@<TRIPOS>MOLECULE
*****
 24 26 0 0 0
SMALL
GASTEIGER

@<TRIPOS>ATOM
      1 C          -8.2409  -18.1809   21.9117 C.2     1  UNL1       -0.0238
      2 C          -8.7936  -19.1662   20.9249 C.2     1  UNL1       -0.0420
      3 C          -7.6557  -20.0010   20.4166 C.3     1  UNL1        0.0480
      4 C          -6.3998  -19.5316   21.0893 C.ar    1  UNL1       -0.0176
      5 C          -4.9736  -19.9831   20.9797 C.ar    1  UNL1        0.0074
      6 C          -3.9091  -19.3098   21.7942 C.ar    1  UNL1        0.0574
      7 CL         -2.4828  -19.7613   21.6847 Cl      1  UNL1       -0.0823
      8 C          -4.2708  -18.1849   22.7183 C.ar    1  UNL1        0.0114
      9 C          -5.6970  -17.7334   22.8278 C.ar    1  UNL1        0.0002
     10 C          -6.7615  -18.4067   22.0133 C.ar    1  UNL1       -0.0078
     11 C          -9.0293  -17.1507   22.6648 C.3     1  UNL1        0.0763
     12 C          -9.4597  -17.9680   25.0931 C.ar    1  UNL1        0.2393
     13 N          -9.2644  -17.8072   26.5716 N.ar    1  UNL1       -0.2075
     14 C          -8.4437  -16.6685   27.1004 C.ar    1  UNL1        0.1227
     15 C          -7.8181  -15.6905   26.1506 C.ar    1  UNL1        0.1193
     16 N          -8.0133  -15.8512   24.6721 N.ar    1  UNL1       -0.2415
     17 C          -8.8341  -16.9900   24.1433 C.ar    1  UNL1        0.1163
     18 C          -9.6606  -20.4619   24.3932 C.3     1  UNL1        0.2543
     19 O         -10.2804  -19.1068   24.5644 O.3     1  UNL1       -0.4553
     20 C         -10.2316  -19.2943   20.5179 C.3     1  UNL1        0.0394
     21 C         -10.8489  -18.2699   19.6127 C.3     1  UNL1        0.0765
     22 N         -11.7424  -17.2077   20.1814 N.3     1  UNL1       -0.2700
     23 C         -12.6159  -17.5151   21.3616 C.3     1  UNL1        0.0897
     24 C         -11.7626  -15.8381   19.5700 C.3     1  UNL1        0.0897
@<TRIPOS>BOND
     1    18    19    1
     2    19    12    1
     3    12    13   ar
     4    13    14   ar
     5    14    15   ar
     6    15    16   ar
     7    16    17   ar
     8    17    11    1
     9    11     1    1
    10     1     2    2
    11     2    20    1
    12    20    21    1
    13    21    22    1
    14    22    23    1
    15    22    24    1
    16     2     3    1
    17     3     4    1
    18     4     5   ar
    19     5     6   ar
    20     6     7    1
    21     6     8   ar
    22     8     9   ar
    23     9    10   ar
    24    17    12   ar
    25    10     1    1
    26    10     4   ar
@<TRIPOS>MOLECULE
*****
 24 26 0 0 0
SMALL
GASTEIGER

@<TRIPOS>ATOM
      1 C          -7.7210  -18.5683   22.2612 C.2     1  UNL1       -0.0238
      2 C          -7.4643  -17.4249   23.1975 C.2     1  UNL1       -0.0420
      3 C          -5.9816  -17.2092   23.2699 C.3     1  UNL1        0.0480
      4 C          -5.3221  -18.2191   22.3782 C.ar    1  UNL1       -0.0176
      5 C          -3.8816  -18.4824   22.0535 C.ar    1  UNL1        0.0074
      6 C          -3.5161  -19.5857   21.1053 C.ar    1  UNL1        0.0574
      7 CL         -2.0755  -19.8490   20.7804 Cl      1  UNL1       -0.0823
      8 C          -4.5912  -20.4257   20.4818 C.ar    1  UNL1        0.0114
      9 C          -6.0317  -20.1624   20.8066 C.ar    1  UNL1        0.0002
     10 C          -6.3972  -19.0591   21.7548 C.ar    1  UNL1       -0.0078
     11 C          -9.0657  -19.1234   21.8953 C.3     1  UNL1        0.0763
     12 C         -11.4998  -18.3075   22.2943 C.ar    1  UNL1        0.2393
     13 N         -12.6295  -17.3785   21.9614 N.ar    1  UNL1       -0.2075
     14 C         -12.4547  -16.3364   20.8968 C.ar    1  UNL1        0.1227
     15 C         -11.1502  -16.2233   20.1649 C.ar    1  UNL1        0.1193
     16 N         -10.0206  -17.1523   20.4978 N.ar    1  UNL1       -0.2415
     17 C         -10.1953  -18.1945   21.5625 C.ar    1  UNL1        0.1163
     18 C         -11.1173  -19.1195   24.7324 C.3     1  UNL1        0.2543
     19 O         -11.6747  -19.3496   23.3589 O.3     1  UNL1       -0.4553
     20 C          -8.5070  -16.6359   23.9325 C.3     1  UNL1        0.0394
     21 C          -8.1052  -15.4546   24.7649 C.3     1  UNL1        0.0765
     22 N          -7.4634  -15.6644   26.1043 N.3     1  UNL1       -0.2700
     23 C          -6.0227  -15.3012   26.3107 C.3     1  UNL1        0.0897
     24 C          -8.2622  -16.2373   27.2373 C.3     1  UNL1        0.0897
@<TRIPOS>BOND
     1    18    19    1
     2    19    12    1
     3    12    13   ar
     4    13    14   ar
     5    14    15   ar
     6    15    16   ar
     7    16    17   ar
     8    17    11    1
     9    11     1    1
    10     1     2    2
    11     2    20    1
    12    20    21    1
    13    21    22    1
    14    22    23    1
    15    22    24    1
    16     2     3    1
    17     3     4    1
    18     4     5   ar
    19     5     6   ar
    20     6     7    1
    21     6     8   ar
    22     8     9   ar
    23     9    10   ar
    24    17    12   ar
    25    10     1    1
    26    10     4   ar
@<TRIPOS>MOLECULE
*****
 24 26 0 0 0
SMALL
GASTEIGER

@<TRIPOS>ATOM
      1 C          -7.9653  -18.4817   22.5920 C.2     1  UNL1       -0.0238
      2 C          -7.6042  -17.2566   23.3787 C.2     1  UNL1       -0.0420
      3 C          -6.1196  -17.0649   23.2825 C.3     1  UNL1        0.0480
      4 C          -5.5632  -18.1715   22.4364 C.ar    1  UNL1       -0.0176
      5 C          -4.1652  -18.4949   21.9995 C.ar    1  UNL1        0.0074
      6 C          -3.9079  -19.6940   21.1357 C.ar    1  UNL1        0.0574
      7 CL         -2.5098  -20.0174   20.6987 Cl      1  UNL1       -0.0823
      8 C          -5.0486  -20.5696   20.7090 C.ar    1  UNL1        0.0114
      9 C          -6.4466  -20.2461   21.1459 C.ar    1  UNL1        0.0002
     10 C          -6.7039  -19.0471   22.0096 C.ar    1  UNL1       -0.0078
     11 C          -9.3455  -19.0428   22.4182 C.3     1  UNL1        0.0763
     12 C         -10.5000  -17.9404   20.3684 C.ar    1  UNL1        0.2393
     13 N         -11.5912  -17.0845   19.7969 N.ar    1  UNL1       -0.2075
     14 C         -12.6191  -16.4751   20.7036 C.ar    1  UNL1        0.1227
     15 C         -12.5558  -16.7216   22.1819 C.ar    1  UNL1        0.1193
     16 N         -11.4645  -17.5775   22.7533 N.ar    1  UNL1       -0.2415
     17 C         -10.4366  -18.1869   21.8466 C.ar    1  UNL1        0.1163
     18 C          -9.6198  -19.9724   19.0097 C.3     1  UNL1        0.2543
     19 O          -9.4722  -18.5498   19.4616 O.3     1  UNL1       -0.4553
     20 C          -8.5599  -16.3776   24.1297 C.3     1  UNL1        0.0394
     21 C          -8.0396  -15.2457   24.9651 C.3     1  UNL1        0.0765
     22 N          -7.3969  -15.5260   26.2912 N.3     1  UNL1       -0.2700
     23 C          -8.2207  -16.0579   27.4263 C.3     1  UNL1        0.0897
     24 C          -5.9305  -15.2745   26.4821 C.3     1  UNL1        0.0897
@<TRIPOS>BOND
     1    18    19    1
     2    19    12    1
     3    12    13   ar
     4    13    14   ar
     5    14    15   ar
     6    15    16   ar
     7    16    17   ar
     8    17    11    1
     9    11     1    1
    10     1     2    2
    11     2    20    1
    12    20    21    1
    13    21    22    1
    14    22    23    1
    15    22    24    1
    16     2     3    1
    17     3     4    1
    18     4     5   ar
    19     5     6   ar
    20     6     7    1
    21     6     8   ar
    22     8     9   ar
    23     9    10   ar
    24    17    12   ar
    25    10     1    1
    26    10     4   ar
@<TRIPOS>MOLECULE
*****
 24 26 0 0 0
SMALL
GASTEIGER

@<TRIPOS>ATOM
      1 C          -7.3463  -18.5241   21.7307 C.2     1  UNL1       -0.0238
      2 C          -5.8999  -18.9213   21.7287 C.2     1  UNL1       -0.0420
      3 C          -5.6834  -19.8774   20.5934 C.3     1  UNL1        0.0480
      4 C          -6.9960  -20.0710   19.8936 C.ar    1  UNL1       -0.0176
      5 C          -7.3881  -20.9009   18.7072 C.ar    1  UNL1        0.0074
      6 C          -8.8080  -20.8943   18.2238 C.ar    1  UNL1        0.0574
      7 CL         -9.2001  -21.7242   17.0373 Cl      1  UNL1       -0.0823
      8 C          -9.8358  -20.0580   18.9267 C.ar    1  UNL1        0.0114
      9 C          -9.4437  -19.2281   20.1131 C.ar    1  UNL1        0.0002
     10 C          -8.0238  -19.2346   20.5966 C.ar    1  UNL1       -0.0078
     11 C          -8.0006  -17.5818   22.6971 C.3     1  UNL1        0.0763
     12 C         -10.5485  -17.0758   22.7397 C.ar    1  UNL1        0.2393
     13 N         -11.9231  -17.3719   23.2620 N.ar    1  UNL1       -0.2075
     14 C         -12.1244  -18.4698   24.2639 C.ar    1  UNL1        0.1227
     15 C         -10.9511  -19.2719   24.7436 C.ar    1  UNL1        0.1193
     16 N          -9.5765  -18.9758   24.2213 N.ar    1  UNL1       -0.2415
     17 C          -9.3751  -17.8778   23.2194 C.ar    1  UNL1        0.1163
     18 C         -11.1124  -15.9903   20.4477 C.3     1  UNL1        0.2543
     19 O         -10.3473  -15.9778   21.7378 O.3     1  UNL1       -0.4553
     20 C          -4.8537  -18.4460   22.6928 C.3     1  UNL1        0.0394
     21 C          -3.3999  -18.5892   22.3527 C.3     1  UNL1        0.0765
     22 N          -2.7488  -17.6139   21.4173 N.3     1  UNL1       -0.2700
     23 C          -2.5656  -17.9694   19.9715 C.3     1  UNL1        0.0897
     24 C          -2.2810  -16.2832   21.9275 C.3     1  UNL1        0.0897
@<TRIPOS>BOND
     1    18    19    1
     2    19    12    1
     3    12    13   ar
     4    13    14   ar
     5    14    15   ar
     6    15    16   ar
     7    16    17   ar
     8    17    11    1
     9    11     1    1
    10     1     2    2
    11     2    20    1
    12    20    21    1
    13    21    22    1
    14    22    23    1
    15    22    24    1
    16     2     3    1
    17     3     4    1
    18     4     5   ar
    19     5     6   ar
    20     6     7    1
    21     6     8   ar
    22     8     9   ar
    23     9    10   ar
    24    17    12   ar
    25    10     1    1
    26    10     4   ar
@<TRIPOS>MOLECULE
*****
 24 26 0 0 0
SMALL
GASTEIGER

@<TRIPOS>ATOM
      1 C          -7.1879  -18.4874   21.7658 C.2     1  UNL1       -0.0238
      2 C          -5.7515  -18.9192   21.7601 C.2     1  UNL1       -0.0420
      3 C          -5.5706  -19.9128   20.6510 C.3     1  UNL1        0.0480
      4 C          -6.8952  -20.0950   19.9712 C.ar    1  UNL1       -0.0176
      5 C          -7.3204  -20.9493   18.8139 C.ar    1  UNL1        0.0074
      6 C          -8.7451  -20.9226   18.3456 C.ar    1  UNL1        0.0574
      7 CL         -9.1703  -21.7770   17.1882 Cl      1  UNL1       -0.0823
      8 C          -9.7447  -20.0417   19.0346 C.ar    1  UNL1        0.0114
      9 C          -9.3196  -19.1874   20.1919 C.ar    1  UNL1        0.0002
     10 C          -7.8948  -19.2141   20.6602 C.ar    1  UNL1       -0.0078
     11 C          -7.8086  -17.5019   22.7111 C.3     1  UNL1        0.0763
     12 C         -10.2754  -17.6951   23.5034 C.ar    1  UNL1        0.2393
     13 N         -11.7204  -17.3212   23.3550 N.ar    1  UNL1       -0.2075
     14 C         -12.1439  -16.3805   22.2662 C.ar    1  UNL1        0.1227
     15 C         -11.1222  -15.8135   21.3255 C.ar    1  UNL1        0.1193
     16 N          -9.6771  -16.1873   21.4739 N.ar    1  UNL1       -0.2415
     17 C          -9.2536  -17.1281   22.5628 C.ar    1  UNL1        0.1163
     18 C          -9.7840  -20.1103   24.3251 C.3     1  UNL1        0.2543
     19 O          -9.8520  -18.6358   24.5923 O.3     1  UNL1       -0.4553
     20 C          -4.6834  -18.4414   22.6987 C.3     1  UNL1        0.0394
     21 C          -3.2391  -18.5494   22.3087 C.3     1  UNL1        0.0765
     22 N          -2.6463  -17.5636   21.3461 N.3     1  UNL1       -0.2700
     23 C          -2.1918  -16.2197   21.8336 C.3     1  UNL1        0.0897
     24 C          -2.5080  -17.9215   19.8960 C.3     1  UNL1        0.0897
@<TRIPOS>BOND
     1    18    19    1
     2    19    12    1
     3    12    13   ar
     4    13    14   ar
     5    14    15   ar
     6    15    16   ar
     7    16    17   ar
     8    17    11    1
     9    11     1    1
    10     1     2    2
    11     2    20    1
    12    20    21    1
    13    21    22    1
    14    22    23    1
    15    22    24    1
    16     2     3    1
    17     3     4    1
    18     4     5   ar
    19     5     6   ar
    20     6     7    1
    21     6     8   ar
    22     8     9   ar
    23     9    10   ar
    24    17    12   ar
    25    10     1    1
    26    10     4   ar
@<TRIPOS>MOLECULE
*****
 24 26 0 0 0
SMALL
GASTEIGER

@<TRIPOS>ATOM
      1 C          -5.8353  -17.7557   22.9078 C.2     1  UNL1       -0.0238
      2 C          -6.3011  -16.5196   23.6184 C.2     1  UNL1       -0.0420
      3 C          -7.7116  -16.2424   23.1900 C.3     1  UNL1        0.0480
      4 C          -8.1176  -17.3072   22.2146 C.ar    1  UNL1       -0.0176
      5 C          -9.3933  -17.5460   21.4627 C.ar    1  UNL1        0.0074
      6 C          -9.5094  -18.7201   20.5364 C.ar    1  UNL1        0.0574
      7 CL        -10.7852  -18.9589   19.7845 Cl      1  UNL1       -0.0823
      8 C          -8.3497  -19.6553   20.3620 C.ar    1  UNL1        0.0114
      9 C          -7.0739  -19.4165   21.1138 C.ar    1  UNL1        0.0002
     10 C          -6.9579  -18.2425   22.0402 C.ar    1  UNL1       -0.0078
     11 C          -4.4840  -18.3931   23.0413 C.3     1  UNL1        0.0763
     12 C          -2.6880  -18.8702   21.2256 C.ar    1  UNL1        0.2393
     13 N          -1.5492  -18.4003   20.3698 N.ar    1  UNL1       -0.2075
     14 C          -1.0675  -16.9836   20.4740 C.ar    1  UNL1        0.1227
     15 C          -1.7247  -16.0366   21.4340 C.ar    1  UNL1        0.1193
     16 N          -2.8635  -16.5065   22.2898 N.ar    1  UNL1       -0.2415
     17 C          -3.3452  -17.9233   22.1856 C.ar    1  UNL1        0.1163
     18 C          -3.9691  -20.7214   19.9288 C.3     1  UNL1        0.2543
     19 O          -3.1697  -20.2869   21.1213 O.3     1  UNL1       -0.4553
     20 C          -5.4975  -15.7039   24.5874 C.3     1  UNL1        0.0394
     21 C          -5.5565  -16.0095   26.0547 C.3     1  UNL1        0.0765
     22 N          -6.7490  -15.5881   26.8612 N.3     1  UNL1       -0.2700
     23 C          -8.0212  -16.3795   26.7885 C.3     1  UNL1        0.0897
     24 C          -6.6693  -14.3755   27.7404 C.3     1  UNL1        0.0897
@<TRIPOS>BOND
     1    18    19    1
     2    19    12    1
     3    12    13   ar
     4    13    14   ar
     5    14    15   ar
     6    15    16   ar
     7    16    17   ar
     8    17    11    1
     9    11     1    1
    10     1     2    2
    11     2    20    1
    12    20    21    1
    13    21    22    1
    14    22    23    1
    15    22    24    1
    16     2     3    1
    17     3     4    1
    18     4     5   ar
    19     5     6   ar
    20     6     7    1
    21     6     8   ar
    22     8     9   ar
    23     9    10   ar
    24    17    12   ar
    25    10     1    1
    26    10     4   ar
@<TRIPOS>MOLECULE
*****
 24 26 0 0 0
SMALL
GASTEIGER

@<TRIPOS>ATOM
      1 C          -8.6836  -18.7688   21.6219 C.2     1  UNL1       -0.0238
      2 C          -9.2446  -19.0553   20.2607 C.2     1  UNL1       -0.0420
      3 C          -8.1191  -19.5177   19.3835 C.3     1  UNL1        0.0480
      4 C          -6.8625  -19.5169   20.2026 C.ar    1  UNL1       -0.0176
      5 C          -5.4457  -19.8779   19.8674 C.ar    1  UNL1        0.0074
      6 C          -4.3778  -19.7759   20.9158 C.ar    1  UNL1        0.0574
      7 CL         -2.9609  -20.1369   20.5807 Cl      1  UNL1       -0.0823
      8 C          -4.7266  -19.3130   22.2993 C.ar    1  UNL1        0.0114
      9 C          -6.1434  -18.9521   22.6344 C.ar    1  UNL1        0.0002
     10 C          -7.2114  -19.0540   21.5861 C.ar    1  UNL1       -0.0078
     11 C          -9.4586  -18.2823   22.8105 C.3     1  UNL1        0.0763
     12 C          -8.2636  -15.9922   23.0886 C.ar    1  UNL1        0.2393
     13 N          -7.6894  -14.9256   23.9732 N.ar    1  UNL1       -0.2075
     14 C          -7.7358  -15.0824   25.4643 C.ar    1  UNL1        0.1227
     15 C          -8.3566  -16.3059   26.0708 C.ar    1  UNL1        0.1193
     16 N          -8.9308  -17.3725   25.1861 N.ar    1  UNL1       -0.2415
     17 C          -8.8844  -17.2157   23.6950 C.ar    1  UNL1        0.1163
     18 C          -8.5616  -14.5167   20.9711 C.3     1  UNL1        0.2543
     19 O          -8.2171  -15.8353   21.5976 O.3     1  UNL1       -0.4553
     20 C         -10.6792  -18.9058   19.8489 C.3     1  UNL1        0.0394
     21 C         -11.6647  -18.2671   20.7821 C.3     1  UNL1        0.0765
     22 N         -11.8168  -16.7751   20.8058 N.3     1  UNL1       -0.2700
     23 C         -12.1766  -16.0781   22.0844 C.3     1  UNL1        0.0897
     24 C         -11.6092  -15.9800   19.5510 C.3     1  UNL1        0.0897
@<TRIPOS>BOND
     1    18    19    1
     2    19    12    1
     3    12    13   ar
     4    13    14   ar
     5    14    15   ar
     6    15    16   ar
     7    16    17   ar
     8    17    11    1
     9    11     1    1
    10     1     2    2
    11     2    20    1
    12    20    21    1
    13    21    22    1
    14    22    23    1
    15    22    24    1
    16     2     3    1
    17     3     4    1
    18     4     5   ar
    19     5     6   ar
    20     6     7    1
    21     6     8   ar
    22     8     9   ar
    23     9    10   ar
    24    17    12   ar
    25    10     1    1
    26    10     4   ar
@<TRIPOS>MOLECULE
*****
 24 26 0 0 0
SMALL
GASTEIGER

@<TRIPOS>ATOM
      1 C          -6.9968  -18.9727   21.7301 C.2     1  UNL1       -0.0238
      2 C          -8.1353  -18.0436   22.0308 C.2     1  UNL1       -0.0420
      3 C          -9.2116  -18.2852   21.0143 C.3     1  UNL1        0.0480
      4 C          -8.7382  -19.3637   20.0853 C.ar    1  UNL1       -0.0176
      5 C          -9.3767  -20.0136   18.8938 C.ar    1  UNL1        0.0074
      6 C          -8.6464  -21.0885   18.1447 C.ar    1  UNL1        0.0574
      7 CL         -9.2849  -21.7385   16.9531 Cl      1  UNL1       -0.0823
      8 C          -7.2775  -21.5134   18.5871 C.ar    1  UNL1        0.0114
      9 C          -6.6390  -20.8634   19.7786 C.ar    1  UNL1        0.0002
     10 C          -7.3693  -19.7886   20.5278 C.ar    1  UNL1       -0.0078
     11 C          -5.7113  -19.0691   22.4971 C.3     1  UNL1        0.0763
     12 C          -3.9036  -17.2299   22.8128 C.ar    1  UNL1        0.2393
     13 N          -2.6817  -16.5117   22.3219 N.ar    1  UNL1       -0.2075
     14 C          -2.0455  -16.9143   21.0246 C.ar    1  UNL1        0.1227
     15 C          -2.6312  -18.0352   20.2180 C.ar    1  UNL1        0.1193
     16 N          -3.8531  -18.7535   20.7089 N.ar    1  UNL1       -0.2415
     17 C          -4.4894  -18.3509   22.0063 C.ar    1  UNL1        0.1163
     18 C          -5.1745  -15.4750   24.2464 C.3     1  UNL1        0.2543
     19 O          -4.5398  -16.8273   24.1101 O.3     1  UNL1       -0.4553
     20 C          -8.1883  -17.0477   23.1513 C.3     1  UNL1        0.0394
     21 C          -9.4937  -16.7466   23.8259 C.3     1  UNL1        0.0765
     22 N         -10.4171  -17.8658   24.2063 N.3     1  UNL1       -0.2700
     23 C          -9.9584  -18.9232   25.1663 C.3     1  UNL1        0.0897
     24 C         -11.7992  -17.9277   23.6267 C.3     1  UNL1        0.0897
@<TRIPOS>BOND
     1    18    19    1
     2    19    12    1
     3    12    13   ar
     4    13    14   ar
     5    14    15   ar
     6    15    16   ar
     7    16    17   ar
     8    17    11    1
     9    11     1    1
    10     1     2    2
    11     2    20    1
    12    20    21    1
    13    21    22    1
    14    22    23    1
    15    22    24    1
    16     2     3    1
    17     3     4    1
    18     4     5   ar
    19     5     6   ar
    20     6     7    1
    21     6     8   ar
    22     8     9   ar
    23     9    10   ar
    24    17    12   ar
    25    10     1    1
    26    10     4   ar
@<TRIPOS>MOLECULE
*****
 24 26 0 0 0
SMALL
GASTEIGER

@<TRIPOS>ATOM
      1 C          -6.5690  -17.5131   22.9279 C.2     1  UNL1       -0.0238
      2 C          -6.6211  -16.1571   23.5669 C.2     1  UNL1       -0.0420
      3 C          -7.9239  -15.5166   23.1894 C.3     1  UNL1        0.0480
      4 C          -8.6769  -16.4768   22.3171 C.ar    1  UNL1       -0.0176
      5 C         -10.0169  -16.3869   21.6490 C.ar    1  UNL1        0.0074
      6 C         -10.5195  -17.5310   20.8194 C.ar    1  UNL1        0.0574
      7 CL        -11.8596  -17.4412   20.1513 Cl      1  UNL1       -0.0823
      8 C          -9.6821  -18.7650   20.6578 C.ar    1  UNL1        0.0114
      9 C          -8.3422  -18.8549   21.3258 C.ar    1  UNL1        0.0002
     10 C          -7.8395  -17.7107   22.1554 C.ar    1  UNL1       -0.0078
     11 C          -5.4439  -18.4986   23.0414 C.3     1  UNL1        0.0763
     12 C          -3.4658  -18.1399   21.3956 C.ar    1  UNL1        0.2393
     13 N          -2.7035  -18.5522   20.1714 N.ar    1  UNL1       -0.2075
     14 C          -3.1568  -19.7354   19.3686 C.ar    1  UNL1        0.1227
     15 C          -4.3725  -20.5064   19.7901 C.ar    1  UNL1        0.1193
     16 N          -5.1348  -20.0941   21.0143 N.ar    1  UNL1       -0.2415
     17 C          -4.6815  -18.9109   21.8172 C.ar    1  UNL1        0.1163
     18 C          -1.9420  -16.0526   21.6626 C.3     1  UNL1        0.2543
     19 O          -3.0124  -16.9567   22.1984 O.3     1  UNL1       -0.4553
     20 C          -5.5572  -15.5484   24.4316 C.3     1  UNL1        0.0394
     21 C          -5.5032  -15.8734   25.8949 C.3     1  UNL1        0.0765
     22 N          -6.6724  -15.5527   26.7782 N.3     1  UNL1       -0.2700
     23 C          -6.6261  -14.3530   27.6775 C.3     1  UNL1        0.0897
     24 C          -7.8878  -16.4315   26.7621 C.3     1  UNL1        0.0897
@<TRIPOS>BOND
     1    18    19    1
     2    19    12    1
     3    12    13   ar
     4    13    14   ar
     5    14    15   ar
     6    15    16   ar
     7    16    17   ar
     8    17    11    1
     9    11     1    1
    10     1     2    2
    11     2    20    1
    12    20    21    1
    13    21    22    1
    14    22    23    1
    15    22    24    1
    16     2     3    1
    17     3     4    1
    18     4     5   ar
    19     5     6   ar
    20     6     7    1
    21     6     8   ar
    22     8     9   ar
    23     9    10   ar
    24    17    12   ar
    25    10     1    1
    26    10     4   ar
