@<TRIPOS>MOLECULE
*****
 17 17 0 0 0
SMALL
GASTEIGER

@<TRIPOS>ATOM
      1 C          -9.8413  -17.0845   22.3157 C.2     1  UNL1        0.2469
      2 O         -10.8528  -16.3152   23.1125 O.2     1  UNL1       -0.2728
      3 N          -8.4226  -16.6034   22.2402 N.am    1  UNL1       -0.1674
      4 O          -7.4111  -17.3729   21.4433 O.3     1  UNL1       -0.2915
      5 H          -7.8358  -18.1482   21.0442 H       1  UNL1        0.2417
      6 C         -10.2486  -18.3351   21.5943 C.3     1  UNL1        0.0710
      7 C          -9.8066  -19.1565   22.7689 C.3     1  UNL1        0.0092
      8 C         -10.6906  -17.5136   20.4197 C.3     1  UNL1        0.0092
      9 C         -10.2321  -19.8027   19.4505 C.3     1  UNL1        0.0005
     10 C         -10.6558  -19.5856   20.8730 C.3     1  UNL1        0.0087
     11 C          -8.0153  -15.3529   22.9615 C.3     1  UNL1        0.1501
     12 C          -7.5517  -15.4261   24.3862 C.ar    1  UNL1        0.0001
     13 C          -8.5534  -15.5547   25.4952 C.ar    1  UNL1       -0.0025
     14 C          -8.0897  -15.6279   26.9199 C.ar    1  UNL1       -0.0003
     15 C          -6.6244  -15.5724   27.2355 C.ar    1  UNL1       -0.0000
     16 C          -5.6227  -15.4438   26.1265 C.ar    1  UNL1       -0.0003
     17 C          -6.0863  -15.3706   24.7018 C.ar    1  UNL1       -0.0025
@<TRIPOS>BOND
     1     9    10    1
     2    10     6    1
     3     6     7    1
     4     6     8    1
     5     6     1    1
     6     1     2    2
     7     1     3   am
     8     3     4    1
     9     3    11    1
    10    11    12    1
    11    12    13   ar
    12    13    14   ar
    13    14    15   ar
    14    15    16   ar
    15    16    17   ar
    16    17    12   ar
    17     4     5    1
@<TRIPOS>MOLECULE
*****
 17 17 0 0 0
SMALL
GASTEIGER

@<TRIPOS>ATOM
      1 C          -9.7487  -17.1650   21.9231 C.2     1  UNL1        0.2469
      2 O          -9.4546  -15.8551   21.2541 O.2     1  UNL1       -0.2728
      3 N          -9.7771  -17.2528   23.4203 N.am    1  UNL1       -0.1674
      4 O         -10.0713  -18.5628   24.0892 O.3     1  UNL1       -0.2915
      5 H         -10.2183  -19.2444   23.4149 H       1  UNL1        0.2417
      6 C         -10.0145  -18.3871   21.0949 C.3     1  UNL1        0.0710
      7 C         -11.4627  -18.0081   21.0004 C.3     1  UNL1        0.0092
      8 C          -8.5663  -18.7661   21.1894 C.3     1  UNL1        0.0092
      9 C          -9.4346  -19.8971   19.0618 C.3     1  UNL1        0.0005
     10 C         -10.2803  -19.6092   20.2668 C.3     1  UNL1        0.0087
     11 C          -9.5114  -16.0307   24.2484 C.3     1  UNL1        0.1501
     12 C          -8.1593  -15.8207   24.8630 C.ar    1  UNL1        0.0001
     13 C          -8.0165  -15.7480   26.3544 C.ar    1  UNL1       -0.0025
     14 C          -6.6644  -15.5380   26.9690 C.ar    1  UNL1       -0.0003
     15 C          -5.4551  -15.4006   26.0922 C.ar    1  UNL1       -0.0000
     16 C          -5.5980  -15.4732   24.6008 C.ar    1  UNL1       -0.0003
     17 C          -6.9501  -15.6833   23.9862 C.ar    1  UNL1       -0.0025
@<TRIPOS>BOND
     1     9    10    1
     2    10     6    1
     3     6     7    1
     4     6     8    1
     5     6     1    1
     6     1     2    2
     7     1     3   am
     8     3     4    1
     9     3    11    1
    10    11    12    1
    11    12    13   ar
    12    13    14   ar
    13    14    15   ar
    14    15    16   ar
    15    16    17   ar
    16    17    12   ar
    17     4     5    1
@<TRIPOS>MOLECULE
*****
 17 17 0 0 0
SMALL
GASTEIGER

@<TRIPOS>ATOM
      1 C          -9.8042  -18.7849   21.9041 C.2     1  UNL1        0.2469
      2 O         -10.3776  -20.0410   22.4902 O.2     1  UNL1       -0.2728
      3 N          -8.3184  -18.6322   21.7657 N.am    1  UNL1       -0.1674
      4 O          -7.7450  -17.3761   21.1796 O.3     1  UNL1       -0.2915
      5 H          -8.4656  -16.7707   20.9444 H       1  UNL1        0.2417
      6 C         -10.7165  -17.6816   21.4564 C.3     1  UNL1        0.0710
      7 C         -10.5969  -17.0356   22.8048 C.3     1  UNL1        0.0092
      8 C         -10.8362  -18.3277   20.1080 C.3     1  UNL1        0.0092
      9 C         -11.4360  -15.9453   19.6626 C.3     1  UNL1        0.0005
     10 C         -11.6288  -16.5783   21.0088 C.3     1  UNL1        0.0087
     11 C          -7.4061  -19.7354   22.2134 C.3     1  UNL1        0.1501
     12 C          -5.9964  -19.7959   21.7044 C.ar    1  UNL1        0.0001
     13 C          -5.6769  -20.5919   20.4738 C.ar    1  UNL1       -0.0025
     14 C          -4.2672  -20.6524   19.9648 C.ar    1  UNL1       -0.0003
     15 C          -3.1770  -19.9170   20.6863 C.ar    1  UNL1       -0.0000
     16 C          -3.4966  -19.1210   21.9169 C.ar    1  UNL1       -0.0003
     17 C          -4.9062  -19.0605   22.4259 C.ar    1  UNL1       -0.0025
@<TRIPOS>BOND
     1     9    10    1
     2    10     6    1
     3     6     7    1
     4     6     8    1
     5     6     1    1
     6     1     2    2
     7     1     3   am
     8     3     4    1
     9     3    11    1
    10    11    12    1
    11    12    13   ar
    12    13    14   ar
    13    14    15   ar
    14    15    16   ar
    15    16    17   ar
    16    17    12   ar
    17     4     5    1
@<TRIPOS>MOLECULE
*****
 17 17 0 0 0
SMALL
GASTEIGER

@<TRIPOS>ATOM
      1 C         -10.6287  -18.2213   22.9167 C.2     1  UNL1        0.2469
      2 O         -10.4273  -19.6411   23.3567 O.2     1  UNL1       -0.2728
      3 N         -10.2217  -17.0923   23.8166 N.am    1  UNL1       -0.1674
      4 O         -10.4231  -15.6725   23.3765 O.3     1  UNL1       -0.2915
      5 H         -10.8239  -15.6615   22.4932 H       1  UNL1        0.2417
      6 C         -11.2370  -17.9305   21.5767 C.3     1  UNL1        0.0710
      7 C         -12.5961  -17.8646   22.2081 C.3     1  UNL1        0.0092
      8 C          -9.8780  -17.9964   20.9454 C.3     1  UNL1        0.0092
      9 C         -11.7328  -16.2662   19.6442 C.3     1  UNL1        0.0005
     10 C         -11.8454  -17.6397   20.2369 C.3     1  UNL1        0.0087
     11 C          -9.6134  -17.3831   25.1565 C.3     1  UNL1        0.1501
     12 C          -8.4057  -16.6198   25.6134 C.ar    1  UNL1        0.0001
     13 C          -7.4188  -16.1054   24.6078 C.ar    1  UNL1       -0.0025
     14 C          -6.2111  -15.3421   25.0648 C.ar    1  UNL1       -0.0003
     15 C          -5.9903  -15.0932   26.5274 C.ar    1  UNL1       -0.0000
     16 C          -6.9772  -15.6076   27.5330 C.ar    1  UNL1       -0.0003
     17 C          -8.1849  -16.3709   27.0761 C.ar    1  UNL1       -0.0025
@<TRIPOS>BOND
     1     9    10    1
     2    10     6    1
     3     6     7    1
     4     6     8    1
     5     6     1    1
     6     1     2    2
     7     1     3   am
     8     3     4    1
     9     3    11    1
    10    11    12    1
    11    12    13   ar
    12    13    14   ar
    13    14    15   ar
    14    15    16   ar
    15    16    17   ar
    16    17    12   ar
    17     4     5    1
@<TRIPOS>MOLECULE
*****
 17 17 0 0 0
SMALL
GASTEIGER

@<TRIPOS>ATOM
      1 C          -4.6191  -19.2914   21.5165 C.2     1  UNL1        0.2469
      2 O          -4.4841  -19.7958   22.9226 O.2     1  UNL1       -0.2728
      3 N          -5.9712  -18.9330   20.9748 N.am    1  UNL1       -0.1674
      4 O          -6.1061  -18.4285   19.5686 O.3     1  UNL1       -0.2915
      5 H          -5.2309  -18.3946   19.1518 H       1  UNL1        0.2417
      6 C          -3.4020  -19.1455   20.6519 C.3     1  UNL1        0.0710
      7 C          -3.0411  -17.8809   21.3734 C.3     1  UNL1        0.0092
      8 C          -3.7628  -20.4100   19.9303 C.3     1  UNL1        0.0092
      9 C          -2.0441  -17.8093   18.8852 C.3     1  UNL1        0.0005
     10 C          -2.1849  -18.9995   19.7873 C.3     1  UNL1        0.0087
     11 C          -7.1882  -19.0789   21.8393 C.3     1  UNL1        0.1501
     12 C          -8.5224  -18.6070   21.3420 C.ar    1  UNL1        0.0001
     13 C          -9.2440  -19.3824   20.2799 C.ar    1  UNL1       -0.0025
     14 C         -10.5782  -18.9105   19.7827 C.ar    1  UNL1       -0.0003
     15 C         -11.1907  -17.6632   20.3475 C.ar    1  UNL1       -0.0000
     16 C         -10.4692  -16.8879   21.4096 C.ar    1  UNL1       -0.0003
     17 C          -9.1350  -17.3598   21.9068 C.ar    1  UNL1       -0.0025
@<TRIPOS>BOND
     1     9    10    1
     2    10     6    1
     3     6     7    1
     4     6     8    1
     5     6     1    1
     6     1     2    2
     7     1     3   am
     8     3     4    1
     9     3    11    1
    10    11    12    1
    11    12    13   ar
    12    13    14   ar
    13    14    15   ar
    14    15    16   ar
    15    16    17   ar
    16    17    12   ar
    17     4     5    1
@<TRIPOS>MOLECULE
*****
 17 17 0 0 0
SMALL
GASTEIGER

@<TRIPOS>ATOM
      1 C          -7.6850  -18.7085   21.0994 C.2     1  UNL1        0.2469
      2 O          -8.9234  -18.9261   20.2816 O.2     1  UNL1       -0.2728
      3 N          -7.6104  -17.5547   22.0551 N.am    1  UNL1       -0.1674
      4 O          -6.3719  -17.3371   22.8730 O.3     1  UNL1       -0.2915
      5 H          -5.7215  -18.0259   22.6643 H       1  UNL1        0.2417
      6 C          -6.5210  -19.6447   20.9616 C.3     1  UNL1        0.0710
      7 C          -6.0869  -18.9221   19.7209 C.3     1  UNL1        0.0092
      8 C          -6.9552  -20.3672   22.2024 C.3     1  UNL1        0.0092
      9 C          -4.0740  -20.0976   20.2153 C.3     1  UNL1        0.0005
     10 C          -5.3571  -20.5807   20.8238 C.3     1  UNL1        0.0087
     11 C          -8.7742  -16.6186   22.1929 C.3     1  UNL1        0.1501
     12 C         -10.0814  -17.1211   22.7305 C.ar    1  UNL1        0.0001
     13 C         -11.3721  -16.5943   22.1771 C.ar    1  UNL1       -0.0025
     14 C         -12.6792  -17.0968   22.7147 C.ar    1  UNL1       -0.0003
     15 C         -12.6956  -18.1260   23.8057 C.ar    1  UNL1       -0.0000
     16 C         -11.4048  -18.6528   24.3591 C.ar    1  UNL1       -0.0003
     17 C         -10.0977  -18.1503   23.8215 C.ar    1  UNL1       -0.0025
@<TRIPOS>BOND
     1     9    10    1
     2    10     6    1
     3     6     7    1
     4     6     8    1
     5     6     1    1
     6     1     2    2
     7     1     3   am
     8     3     4    1
     9     3    11    1
    10    11    12    1
    11    12    13   ar
    12    13    14   ar
    13    14    15   ar
    14    15    16   ar
    15    16    17   ar
    16    17    12   ar
    17     4     5    1
@<TRIPOS>MOLECULE
*****
 17 17 0 0 0
SMALL
GASTEIGER

@<TRIPOS>ATOM
      1 C          -8.0891  -18.4504   21.8958 C.2     1  UNL1        0.2469
      2 O          -7.3288  -17.7294   20.8225 O.2     1  UNL1       -0.2728
      3 N          -7.6447  -19.8109   22.3449 N.am    1  UNL1       -0.1674
      4 O          -8.4051  -20.5319   23.4183 O.3     1  UNL1       -0.2915
      5 H          -9.1494  -19.9833   23.7113 H       1  UNL1        0.2417
      6 C          -9.2938  -17.8109   22.5201 C.3     1  UNL1        0.0710
      7 C         -10.1753  -18.4890   21.5136 C.3     1  UNL1        0.0092
      8 C          -8.4124  -17.1328   23.5267 C.3     1  UNL1        0.0092
      9 C         -11.6563  -18.0195   23.5809 C.3     1  UNL1        0.0005
     10 C         -10.4985  -17.1715   23.1444 C.3     1  UNL1        0.0087
     11 C          -6.4400  -20.4504   21.7206 C.3     1  UNL1        0.1501
     12 C          -5.1751  -19.6620   21.5520 C.ar    1  UNL1        0.0001
     13 C          -4.4982  -19.6071   20.2145 C.ar    1  UNL1       -0.0025
     14 C          -3.2333  -18.8188   20.0459 C.ar    1  UNL1       -0.0003
     15 C          -2.6452  -18.0854   21.2147 C.ar    1  UNL1       -0.0000
     16 C          -3.3220  -18.1403   22.5522 C.ar    1  UNL1       -0.0003
     17 C          -4.5870  -18.9286   22.7208 C.ar    1  UNL1       -0.0025
@<TRIPOS>BOND
     1     9    10    1
     2    10     6    1
     3     6     7    1
     4     6     8    1
     5     6     1    1
     6     1     2    2
     7     1     3   am
     8     3     4    1
     9     3    11    1
    10    11    12    1
    11    12    13   ar
    12    13    14   ar
    13    14    15   ar
    14    15    16   ar
    15    16    17   ar
    16    17    12   ar
    17     4     5    1
@<TRIPOS>MOLECULE
*****
 17 17 0 0 0
SMALL
GASTEIGER

@<TRIPOS>ATOM
      1 C          -8.7495  -16.7943   25.5680 C.2     1  UNL1        0.2469
      2 O          -9.2195  -17.9423   26.4113 O.2     1  UNL1       -0.2728
      3 N          -9.4263  -16.4958   24.2631 N.am    1  UNL1       -0.1674
      4 O          -8.9562  -15.3478   23.4198 O.3     1  UNL1       -0.2915
      5 H          -8.2129  -14.9064   23.8598 H       1  UNL1        0.2417
      6 C          -7.6026  -15.9447   26.0297 C.3     1  UNL1        0.0710
      7 C          -8.3764  -15.5679   27.2581 C.3     1  UNL1        0.0092
      8 C          -6.8289  -16.3216   24.8012 C.3     1  UNL1        0.0092
      9 C          -5.1283  -15.1867   25.7989 C.3     1  UNL1        0.0005
     10 C          -6.4559  -15.0952   26.4913 C.3     1  UNL1        0.0087
     11 C         -10.5731  -17.3453   23.8014 C.3     1  UNL1        0.1501
     12 C         -10.6219  -17.8332   22.3838 C.ar    1  UNL1        0.0001
     13 C         -10.0268  -19.1632   22.0275 C.ar    1  UNL1       -0.0025
     14 C         -10.0757  -19.6511   20.6099 C.ar    1  UNL1       -0.0003
     15 C         -10.7197  -18.8092   19.5487 C.ar    1  UNL1       -0.0000
     16 C         -11.3148  -17.4792   19.9050 C.ar    1  UNL1       -0.0003
     17 C         -11.2659  -16.9913   21.3226 C.ar    1  UNL1       -0.0025
@<TRIPOS>BOND
     1     9    10    1
     2    10     6    1
     3     6     7    1
     4     6     8    1
     5     6     1    1
     6     1     2    2
     7     1     3   am
     8     3     4    1
     9     3    11    1
    10    11    12    1
    11    12    13   ar
    12    13    14   ar
    13    14    15   ar
    14    15    16   ar
    15    16    17   ar
    16    17    12   ar
    17     4     5    1
@<TRIPOS>MOLECULE
*****
 17 17 0 0 0
SMALL
GASTEIGER

@<TRIPOS>ATOM
      1 C         -15.2834   -7.1955   17.6518 C.2     1  UNL1        0.2469
      2 O         -15.1338   -6.1737   16.5641 O.2     1  UNL1       -0.2728
      3 N         -14.1058   -8.0263   18.0676 N.am    1  UNL1       -0.1674
      4 O         -14.2554   -9.0483   19.1554 O.3     1  UNL1       -0.2915
      5 H         -15.1695   -9.0434   19.4801 H       1  UNL1        0.2417
      6 C         -16.6108   -7.3867   18.3239 C.3     1  UNL1        0.0710
      7 C         -16.2506   -6.3376   19.3337 C.3     1  UNL1        0.0092
      8 C         -16.9710   -8.4358   17.3142 C.3     1  UNL1        0.0092
      9 C         -18.0112   -8.2525   20.3338 C.3     1  UNL1        0.0005
     10 C         -17.9381   -7.5778   18.9960 C.3     1  UNL1        0.0087
     11 C         -12.7784   -7.8352   17.3956 C.3     1  UNL1        0.1501
     12 C         -11.7508   -6.9305   18.0084 C.ar    1  UNL1        0.0001
     13 C         -10.4133   -7.4781   18.4097 C.ar    1  UNL1       -0.0025
     14 C          -9.3857   -6.5735   19.0226 C.ar    1  UNL1       -0.0003
     15 C          -9.6956   -5.1212   19.2341 C.ar    1  UNL1       -0.0000
     16 C         -11.0331   -4.5736   18.8328 C.ar    1  UNL1       -0.0003
     17 C         -12.0607   -5.4783   18.2199 C.ar    1  UNL1       -0.0025
@<TRIPOS>BOND
     1     9    10    1
     2    10     6    1
     3     6     7    1
     4     6     8    1
     5     6     1    1
     6     1     2    2
     7     1     3   am
     8     3     4    1
     9     3    11    1
    10    11    12    1
    11    12    13   ar
    12    13    14   ar
    13    14    15   ar
    14    15    16   ar
    15    16    17   ar
    16    17    12   ar
    17     4     5    1
