@<TRIPOS>MOLECULE
*****
 17 17 0 0 0
SMALL
GASTEIGER

@<TRIPOS>ATOM
      1 C          -7.6780  -15.8238   23.6411 C.ar    1  UNL1        0.1754
      2 C          -7.8094  -16.4724   22.2950 C.ar    1  UNL1        0.0770
      3 C          -8.9610  -17.3916   22.0146 C.ar    1  UNL1        0.1451
      4 C          -9.9814  -17.6622   23.0802 C.ar    1  UNL1        0.0790
      5 C          -9.8501  -17.0136   24.4263 C.ar    1  UNL1        0.0464
      6 C          -8.6984  -16.0944   24.7068 C.ar    1  UNL1        0.1727
      7 C          -5.1782  -15.4715   24.2551 C.3     1  UNL1        0.2526
      8 O          -6.5263  -14.9046   23.9216 O.3     1  UNL1       -0.4683
      9 O          -9.0923  -18.0402   20.6684 O.3     1  UNL1       -0.4712
     10 C          -8.3260  -19.2926   20.3613 C.3     1  UNL1        0.2525
     11 C         -11.1331  -18.5814   22.7997 C.2     1  UNL1        0.2330
     12 O         -10.9259  -20.0670   22.8064 O.2     1  UNL1       -0.2834
     13 C         -12.4920  -18.0150   22.5126 C.2     1  UNL1        0.2122
     14 C         -13.5018  -17.8925   23.6150 C.3     1  UNL1        0.0808
     15 O         -12.8413  -17.5712   21.1229 O.2     1  UNL1       -0.2879
     16 O          -8.5671  -15.4458   26.0529 O.3     1  UNL1       -0.4684
     17 C          -8.1837  -16.2681   27.2474 C.3     1  UNL1        0.2526
@<TRIPOS>BOND
     1     7     8    1
     2     8     1    1
     3     1     2   ar
     4     2     3   ar
     5     3     9    1
     6     9    10    1
     7     3     4   ar
     8     4    11    1
     9    11    12    2
    10    11    13    1
    11    13    14    1
    12    13    15    2
    13     4     5   ar
    14     5     6   ar
    15     6    16    1
    16    16    17    1
    17     6     1   ar
@<TRIPOS>MOLECULE
*****
 17 17 0 0 0
SMALL
GASTEIGER

@<TRIPOS>ATOM
      1 C          -6.9544  -16.4335   23.4374 C.ar    1  UNL1        0.1754
      2 C          -7.5409  -17.0137   22.1846 C.ar    1  UNL1        0.0770
      3 C          -9.0283  -17.1473   22.0448 C.ar    1  UNL1        0.1451
      4 C          -9.9294  -16.7006   23.1577 C.ar    1  UNL1        0.0790
      5 C          -9.3430  -16.1204   24.4104 C.ar    1  UNL1        0.0464
      6 C          -7.8555  -15.9869   24.5503 C.ar    1  UNL1        0.1727
      7 C          -4.5764  -17.4652   23.2624 C.3     1  UNL1        0.2526
      8 O          -5.4669  -16.3000   23.5772 O.3     1  UNL1       -0.4683
      9 O          -9.6148  -17.7275   20.7919 O.3     1  UNL1       -0.4712
     10 C          -9.7236  -19.2151   20.6338 C.3     1  UNL1        0.2525
     11 C         -11.4169  -16.8341   23.0178 C.2     1  UNL1        0.2330
     12 O         -12.2043  -15.7620   22.3246 O.2     1  UNL1       -0.2834
     13 C         -12.1170  -18.0398   23.5711 C.2     1  UNL1        0.2122
     14 C         -13.6009  -18.0115   23.7885 C.3     1  UNL1        0.0808
     15 O         -11.3332  -19.2738   23.9072 O.2     1  UNL1       -0.2879
     16 O          -7.2690  -15.4067   25.8031 O.3     1  UNL1       -0.4684
     17 C          -8.0159  -15.5124   27.0996 C.3     1  UNL1        0.2526
@<TRIPOS>BOND
     1     7     8    1
     2     8     1    1
     3     1     2   ar
     4     2     3   ar
     5     3     9    1
     6     9    10    1
     7     3     4   ar
     8     4    11    1
     9    11    12    2
    10    11    13    1
    11    13    14    1
    12    13    15    2
    13     4     5   ar
    14     5     6   ar
    15     6    16    1
    16    16    17    1
    17     6     1   ar
@<TRIPOS>MOLECULE
*****
 17 17 0 0 0
SMALL
GASTEIGER

@<TRIPOS>ATOM
      1 C          -6.7101  -16.9244   23.2335 C.ar    1  UNL1        0.1754
      2 C          -7.3362  -18.0028   22.3997 C.ar    1  UNL1        0.0770
      3 C          -8.8101  -18.2644   22.4955 C.ar    1  UNL1        0.1451
      4 C          -9.6579  -17.4477   23.4250 C.ar    1  UNL1        0.0790
      5 C          -9.0319  -16.3694   24.2588 C.ar    1  UNL1        0.0464
      6 C          -7.5580  -16.1077   24.1630 C.ar    1  UNL1        0.1727
      7 C          -4.2685  -17.8087   23.1538 C.3     1  UNL1        0.2526
      8 O          -5.2362  -16.6628   23.1377 O.3     1  UNL1       -0.4683
      9 O          -9.4361  -19.3428   21.6617 O.3     1  UNL1       -0.4712
     10 C          -9.4993  -19.1962   20.1702 C.3     1  UNL1        0.2525
     11 C         -11.1318  -17.7094   23.5208 C.2     1  UNL1        0.2330
     12 O         -11.6618  -18.6387   24.5722 O.2     1  UNL1       -0.2834
     13 C         -12.0757  -17.0416   22.5653 C.2     1  UNL1        0.2122
     14 C         -12.7488  -17.8445   21.4918 C.3     1  UNL1        0.0808
     15 O         -12.3466  -15.5710   22.6832 O.2     1  UNL1       -0.2879
     16 O          -6.9319  -15.0293   24.9968 O.3     1  UNL1       -0.4684
     17 C          -6.1698  -15.3881   26.2380 C.3     1  UNL1        0.2526
@<TRIPOS>BOND
     1     7     8    1
     2     8     1    1
     3     1     2   ar
     4     2     3   ar
     5     3     9    1
     6     9    10    1
     7     3     4   ar
     8     4    11    1
     9    11    12    2
    10    11    13    1
    11    13    14    1
    12    13    15    2
    13     4     5   ar
    14     5     6   ar
    15     6    16    1
    16    16    17    1
    17     6     1   ar
@<TRIPOS>MOLECULE
*****
 17 17 0 0 0
SMALL
GASTEIGER

@<TRIPOS>ATOM
      1 C          -9.3290  -18.5298   21.7434 C.ar    1  UNL1        0.1754
      2 C          -7.8472  -18.7593   21.7806 C.ar    1  UNL1        0.0770
      3 C          -6.9557  -17.7888   22.4970 C.ar    1  UNL1        0.1451
      4 C          -7.5460  -16.5887   23.1762 C.ar    1  UNL1        0.0790
      5 C          -9.0279  -16.3593   23.1390 C.ar    1  UNL1        0.0464
      6 C          -9.9194  -17.3298   22.4226 C.ar    1  UNL1        0.1727
      7 C         -10.3741  -19.4187   19.5371 C.3     1  UNL1        0.2526
      8 O         -10.2205  -19.5004   21.0270 O.3     1  UNL1       -0.4683
      9 O          -5.4738  -18.0183   22.5342 O.3     1  UNL1       -0.4712
     10 C          -4.9115  -19.3529   22.1435 C.3     1  UNL1        0.2525
     11 C          -6.6545  -15.6182   23.8927 C.2     1  UNL1        0.2330
     12 O          -5.6489  -14.8145   23.1228 O.2     1  UNL1       -0.2834
     13 C          -6.7687  -15.4513   25.3789 C.2     1  UNL1        0.2122
     14 C          -5.5328  -15.4335   26.2288 C.3     1  UNL1        0.0808
     15 O          -8.1188  -15.3022   26.0155 O.2     1  UNL1       -0.2879
     16 O         -11.4013  -17.1003   22.3854 O.3     1  UNL1       -0.4684
     17 C         -12.0244  -16.4130   21.2067 C.3     1  UNL1        0.2526
@<TRIPOS>BOND
     1     7     8    1
     2     8     1    1
     3     1     2   ar
     4     2     3   ar
     5     3     9    1
     6     9    10    1
     7     3     4   ar
     8     4    11    1
     9    11    12    2
    10    11    13    1
    11    13    14    1
    12    13    15    2
    13     4     5   ar
    14     5     6   ar
    15     6    16    1
    16    16    17    1
    17     6     1   ar
@<TRIPOS>MOLECULE
*****
 17 17 0 0 0
SMALL
GASTEIGER

@<TRIPOS>ATOM
      1 C          -6.0299  -19.9146   20.9118 C.ar    1  UNL1        0.1754
      2 C          -7.3212  -19.7534   20.1660 C.ar    1  UNL1        0.0770
      3 C          -8.3234  -18.7311   20.6138 C.ar    1  UNL1        0.1451
      4 C          -8.0343  -17.8701   21.8075 C.ar    1  UNL1        0.0790
      5 C          -6.7429  -18.0314   22.5534 C.ar    1  UNL1        0.0464
      6 C          -5.7407  -19.0536   22.1055 C.ar    1  UNL1        0.1727
      7 C          -3.7796  -20.5029   19.7543 C.3     1  UNL1        0.2526
      8 O          -5.0277  -20.9369   20.4640 O.3     1  UNL1       -0.4683
      9 O          -9.6148  -18.5699   19.8679 O.3     1  UNL1       -0.4712
     10 C         -10.8025  -19.4096   20.2343 C.3     1  UNL1        0.2525
     11 C          -9.0365  -16.8478   22.2554 C.2     1  UNL1        0.2330
     12 O          -9.4909  -15.7777   21.3076 O.2     1  UNL1       -0.2834
     13 C          -9.5842  -16.8957   23.6509 C.2     1  UNL1        0.2122
     14 C          -9.0725  -15.9431   24.6905 C.3     1  UNL1        0.0808
     15 O         -10.6436  -17.8961   24.0070 O.2     1  UNL1       -0.2879
     16 O          -4.4493  -19.2149   22.8515 O.3     1  UNL1       -0.4684
     17 C          -3.7087  -18.0050   23.3389 C.3     1  UNL1        0.2526
@<TRIPOS>BOND
     1     7     8    1
     2     8     1    1
     3     1     2   ar
     4     2     3   ar
     5     3     9    1
     6     9    10    1
     7     3     4   ar
     8     4    11    1
     9    11    12    2
    10    11    13    1
    11    13    14    1
    12    13    15    2
    13     4     5   ar
    14     5     6   ar
    15     6    16    1
    16    16    17    1
    17     6     1   ar
@<TRIPOS>MOLECULE
*****
 17 17 0 0 0
SMALL
GASTEIGER

@<TRIPOS>ATOM
      1 C          -6.7271  -18.2891   21.9530 C.ar    1  UNL1        0.1754
      2 C          -7.8181  -19.0746   21.2877 C.ar    1  UNL1        0.0770
      3 C          -9.2550  -18.7366   21.5540 C.ar    1  UNL1        0.1451
      4 C          -9.6010  -17.6131   22.4856 C.ar    1  UNL1        0.0790
      5 C          -8.5101  -16.8276   23.1509 C.ar    1  UNL1        0.0464
      6 C          -7.0731  -17.1656   22.8846 C.ar    1  UNL1        0.1727
      7 C          -4.9398  -19.6380   20.6355 C.3     1  UNL1        0.2526
      8 O          -5.2902  -18.6271   21.6868 O.3     1  UNL1       -0.4683
      9 O         -10.3460  -19.5222   20.8886 O.3     1  UNL1       -0.4712
     10 C         -10.7817  -19.1707   19.4970 C.3     1  UNL1        0.2525
     11 C         -11.0380  -17.2751   22.7518 C.2     1  UNL1        0.2330
     12 O         -11.6616  -16.0798   22.0943 O.2     1  UNL1       -0.2834
     13 C         -11.8514  -18.1324   23.6756 C.2     1  UNL1        0.2122
     14 C         -13.3446  -17.9934   23.7076 C.3     1  UNL1        0.0808
     15 O         -11.1716  -19.1288   24.5673 O.2     1  UNL1       -0.2879
     16 O          -5.9821  -16.3799   23.5500 O.3     1  UNL1       -0.4684
     17 C          -6.3208  -15.1636   24.3598 C.3     1  UNL1        0.2526
@<TRIPOS>BOND
     1     7     8    1
     2     8     1    1
     3     1     2   ar
     4     2     3   ar
     5     3     9    1
     6     9    10    1
     7     3     4   ar
     8     4    11    1
     9    11    12    2
    10    11    13    1
    11    13    14    1
    12    13    15    2
    13     4     5   ar
    14     5     6   ar
    15     6    16    1
    16    16    17    1
    17     6     1   ar
@<TRIPOS>MOLECULE
*****
 17 17 0 0 0
SMALL
GASTEIGER

@<TRIPOS>ATOM
      1 C          -4.7554  -17.3452   23.0732 C.ar    1  UNL1        0.1754
      2 C          -5.1388  -18.5741   22.3034 C.ar    1  UNL1        0.0770
      3 C          -6.5835  -18.8610   22.0196 C.ar    1  UNL1        0.1451
      4 C          -7.6448  -17.9190   22.5057 C.ar    1  UNL1        0.0790
      5 C          -7.2613  -16.6901   23.2755 C.ar    1  UNL1        0.0464
      6 C          -5.8166  -16.4032   23.5592 C.ar    1  UNL1        0.1727
      7 C          -2.3451  -16.8781   22.2233 C.3     1  UNL1        0.2526
      8 O          -3.3107  -17.0583   23.3569 O.3     1  UNL1       -0.4683
      9 O          -6.9669  -20.0900   21.2497 O.3     1  UNL1       -0.4712
     10 C          -5.9312  -20.8336   20.4596 C.3     1  UNL1        0.2525
     11 C          -9.0895  -18.2059   22.2219 C.2     1  UNL1        0.2330
     12 O          -9.7351  -17.6535   20.9858 O.2     1  UNL1       -0.2834
     13 C          -9.8885  -19.0453   23.1742 C.2     1  UNL1        0.2122
     14 C         -11.2830  -18.6363   23.5460 C.3     1  UNL1        0.0808
     15 O          -9.2932  -20.2937   23.7548 O.2     1  UNL1       -0.2879
     16 O          -5.4332  -15.1742   24.3291 O.3     1  UNL1       -0.4684
     17 C          -5.3963  -15.2094   25.8282 C.3     1  UNL1        0.2526
@<TRIPOS>BOND
     1     7     8    1
     2     8     1    1
     3     1     2   ar
     4     2     3   ar
     5     3     9    1
     6     9    10    1
     7     3     4   ar
     8     4    11    1
     9    11    12    2
    10    11    13    1
    11    13    14    1
    12    13    15    2
    13     4     5   ar
    14     5     6   ar
    15     6    16    1
    16    16    17    1
    17     6     1   ar
@<TRIPOS>MOLECULE
*****
 17 17 0 0 0
SMALL
GASTEIGER

@<TRIPOS>ATOM
      1 C         -14.5098   -6.4037   19.3270 C.ar    1  UNL1        0.1754
      2 C         -13.4713   -7.2244   18.6215 C.ar    1  UNL1        0.0770
      3 C         -12.0849   -6.6823   18.4371 C.ar    1  UNL1        0.1451
      4 C         -11.7370   -5.3194   18.9581 C.ar    1  UNL1        0.0790
      5 C         -12.7755   -4.4987   19.6636 C.ar    1  UNL1        0.0464
      6 C         -14.1619   -5.0408   19.8481 C.ar    1  UNL1        0.1727
      7 C         -16.9046   -6.8173   18.4086 C.3     1  UNL1        0.2526
      8 O         -15.8962   -6.9458   19.5115 O.3     1  UNL1       -0.4683
      9 O         -11.0463   -7.5031   17.7315 O.3     1  UNL1       -0.4712
     10 C         -11.2876   -7.9720   16.3273 C.3     1  UNL1        0.2525
     11 C         -10.3506   -4.7773   18.7737 C.2     1  UNL1        0.2330
     12 O          -9.2467   -5.2131   19.6910 O.2     1  UNL1       -0.2834
     13 C         -10.0681   -3.7995   17.6719 C.2     1  UNL1        0.2122
     14 C          -9.1480   -4.1792   16.5497 C.3     1  UNL1        0.0808
     15 O         -10.7057   -2.4418   17.6923 O.2     1  UNL1       -0.2879
     16 O         -15.2004   -4.2200   20.5536 O.3     1  UNL1       -0.4684
     17 C         -16.1269   -3.3432   19.7644 C.3     1  UNL1        0.2526
@<TRIPOS>BOND
     1     7     8    1
     2     8     1    1
     3     1     2   ar
     4     2     3   ar
     5     3     9    1
     6     9    10    1
     7     3     4   ar
     8     4    11    1
     9    11    12    2
    10    11    13    1
    11    13    14    1
    12    13    15    2
    13     4     5   ar
    14     5     6   ar
    15     6    16    1
    16    16    17    1
    17     6     1   ar
@<TRIPOS>MOLECULE
*****
 17 17 0 0 0
SMALL
GASTEIGER

@<TRIPOS>ATOM
      1 C         -11.9819   -5.6578   19.0452 C.ar    1  UNL1        0.1754
      2 C         -13.3513   -5.2781   19.5251 C.ar    1  UNL1        0.0770
      3 C         -14.5371   -6.1163   19.1491 C.ar    1  UNL1        0.1451
      4 C         -14.3534   -7.3343   18.2932 C.ar    1  UNL1        0.0790
      5 C         -12.9839   -7.7141   17.8133 C.ar    1  UNL1        0.0464
      6 C         -11.7982   -6.8758   18.1892 C.ar    1  UNL1        0.1727
      7 C         -10.2334   -3.8338   18.4406 C.3     1  UNL1        0.2526
      8 O         -10.7962   -4.8195   19.4211 O.3     1  UNL1       -0.4683
      9 O         -15.9066   -5.7365   19.6292 O.3     1  UNL1       -0.4712
     10 C         -16.1941   -4.3207   20.0324 C.3     1  UNL1        0.2525
     11 C         -15.5391   -8.1726   17.9172 C.2     1  UNL1        0.2330
     12 O         -16.3747   -7.7996   16.7287 O.2     1  UNL1       -0.2834
     13 C         -15.8892   -9.3838   18.7298 C.2     1  UNL1        0.2122
     14 C         -16.6463   -9.2312   20.0157 C.3     1  UNL1        0.0808
     15 O         -15.4822  -10.7478   18.2565 O.2     1  UNL1       -0.2879
     16 O         -10.4287   -7.2556   17.7092 O.3     1  UNL1       -0.4684
     17 C          -9.4247   -7.8154   18.6729 C.3     1  UNL1        0.2526
@<TRIPOS>BOND
     1     7     8    1
     2     8     1    1
     3     1     2   ar
     4     2     3   ar
     5     3     9    1
     6     9    10    1
     7     3     4   ar
     8     4    11    1
     9    11    12    2
    10    11    13    1
    11    13    14    1
    12    13    15    2
    13     4     5   ar
    14     5     6   ar
    15     6    16    1
    16    16    17    1
    17     6     1   ar
