@<TRIPOS>MOLECULE
*****
 29 32 0 0 0
SMALL
GASTEIGER

@<TRIPOS>ATOM
      1 N          -7.1387  -19.1162   21.1941 N.am    1  UNL1       -0.2707
      2 C          -5.8842  -19.9122   20.9870 C.2     1  UNL1        0.2686
      3 O          -5.9629  -21.3957   20.7796 O.2     1  UNL1       -0.2682
      4 C          -4.5511  -19.2246   20.9873 C.ar    1  UNL1        0.1535
      5 C          -3.7301  -18.8924   19.7767 C.ar    1  UNL1        0.1012
      6 N          -2.4766  -18.2110   20.2394 N.ar    1  UNL1       -0.3057
      7 C          -1.3708  -17.7070   19.3599 C.3     1  UNL1        0.1321
      8 C          -2.5228  -18.1220   21.7361 C.ar    1  UNL1        0.1787
      9 N          -3.8049  -18.7484   22.1983 N.ar    1  UNL1       -0.2192
     10 C          -7.0600  -17.6327   21.4015 C.3     1  UNL1        0.0941
     11 C          -8.0826  -15.0781   27.4086 C.3     1  UNL1        0.0896
     12 N          -7.8504  -15.6581   26.0449 N.3     1  UNL1       -0.2715
     13 C          -6.5868  -15.5493   25.2439 C.3     1  UNL1        0.0722
     14 C          -6.7965  -16.2726   23.9467 C.3     1  UNL1        0.0191
     15 C          -8.1898  -16.8284   23.9458 C.3     1  UNL1        0.0191
     16 C          -8.8412  -16.4486   25.2426 C.3     1  UNL1        0.0722
     17 C          -7.2921  -17.0528   22.7652 C.3     1  UNL1        0.0226
     18 C          -8.4718  -19.8038   21.1938 C.3     1  UNL1        0.1206
     19 C          -9.4164  -19.6090   22.3427 C.ar    1  UNL1        0.0007
     20 C          -9.1916  -20.3432   23.6312 C.ar    1  UNL1       -0.0024
     21 C         -10.1363  -20.1483   24.7801 C.ar    1  UNL1        0.0028
     22 C         -11.3056  -19.2194   24.6403 C.ar    1  UNL1        0.0372
     23 C         -11.5304  -18.4852   23.3517 C.ar    1  UNL1        0.1465
     24 C         -10.5858  -18.6800   22.2029 C.ar    1  UNL1        0.0346
     25 O         -12.6998  -17.5562   23.2119 O.3     1  UNL1       -0.4045
     26 C         -12.8548  -16.7270   21.9715 C.3     1  UNL1        0.5753
     27 F         -13.0099  -15.8979   20.7312 F       1  UNL1       -0.1328
     28 F         -12.2418  -15.5546   22.6786 F       1  UNL1       -0.1328
     29 F         -13.4678  -17.8993   21.2645 F       1  UNL1       -0.1328
@<TRIPOS>BOND
     1    11    12    1
     2    12    13    1
     3    14    13    1
     4    14    15    1
     5    15    16    1
     6    15    17    1
     7    17    10    1
     8    10     1    1
     9     1    18    1
    10    18    19    1
    11    19    20   ar
    12    20    21   ar
    13    21    22   ar
    14    22    23   ar
    15    23    25    1
    16    25    26    1
    17    26    27    1
    18    26    28    1
    19    26    29    1
    20    23    24   ar
    21     1     2   am
    22     2     3    2
    23     2     4    1
    24     4     5   ar
    25     5     6   ar
    26     6     7    1
    27     6     8   ar
    28     8     9   ar
    29    16    12    1
    30    24    19   ar
    31     9     4   ar
    32    17    14    1
@<TRIPOS>MOLECULE
*****
 29 32 0 0 0
SMALL
GASTEIGER

@<TRIPOS>ATOM
      1 N          -5.4878  -18.8999   21.7309 N.am    1  UNL1       -0.2707
      2 C          -4.6237  -19.5569   20.6957 C.2     1  UNL1        0.2686
      3 O          -4.9549  -20.9360   20.2076 O.2     1  UNL1       -0.2682
      4 C          -3.4282  -18.8347   20.1485 C.ar    1  UNL1        0.1535
      5 C          -2.0205  -18.9511   20.6534 C.ar    1  UNL1        0.1012
      6 N          -1.1529  -18.0577   19.8174 N.ar    1  UNL1       -0.3057
      7 C           0.3265  -17.8664   19.9752 C.3     1  UNL1        0.1321
      8 C          -2.0244  -17.3891   18.7958 C.ar    1  UNL1        0.1787
      9 N          -3.4305  -17.8694   19.0005 N.ar    1  UNL1       -0.2192
     10 C          -5.1566  -17.5208   22.2189 C.3     1  UNL1        0.0941
     11 C          -8.4091  -14.9708   27.3741 C.3     1  UNL1        0.0896
     12 N          -7.6707  -15.5497   26.2038 N.3     1  UNL1       -0.2715
     13 C          -6.1805  -15.6040   26.0407 C.3     1  UNL1        0.0722
     14 C          -5.8816  -16.2638   24.7272 C.3     1  UNL1        0.0191
     15 C          -7.1871  -16.6173   24.0784 C.3     1  UNL1        0.0191
     16 C          -8.2928  -16.1760   24.9910 C.3     1  UNL1        0.0722
     17 C          -5.8949  -16.9419   23.3892 C.3     1  UNL1        0.0226
     18 C          -6.6833  -19.6221   22.2780 C.3     1  UNL1        0.1206
     19 C          -8.0182  -19.4767   21.6094 C.ar    1  UNL1        0.0007
     20 C          -8.1210  -19.5552   20.1150 C.ar    1  UNL1       -0.0024
     21 C          -9.4559  -19.4098   19.4464 C.ar    1  UNL1        0.0028
     22 C         -10.6879  -19.1860   20.2722 C.ar    1  UNL1        0.0372
     23 C         -10.5851  -19.1076   21.7667 C.ar    1  UNL1        0.1465
     24 C          -9.2502  -19.2529   22.4352 C.ar    1  UNL1        0.0346
     25 O         -11.8171  -18.8837   22.5925 O.3     1  UNL1       -0.4045
     26 C         -12.3977  -17.5060   22.7153 C.3     1  UNL1        0.5753
     27 F         -12.9782  -16.1284   22.8380 F       1  UNL1       -0.1328
     28 F         -13.4202  -17.8439   21.6710 F       1  UNL1       -0.1328
     29 F         -11.3752  -17.1682   23.7595 F       1  UNL1       -0.1328
@<TRIPOS>BOND
     1    11    12    1
     2    12    13    1
     3    14    13    1
     4    14    15    1
     5    15    16    1
     6    15    17    1
     7    17    10    1
     8    10     1    1
     9     1    18    1
    10    18    19    1
    11    19    20   ar
    12    20    21   ar
    13    21    22   ar
    14    22    23   ar
    15    23    25    1
    16    25    26    1
    17    26    27    1
    18    26    28    1
    19    26    29    1
    20    23    24   ar
    21     1     2   am
    22     2     3    2
    23     2     4    1
    24     4     5   ar
    25     5     6   ar
    26     6     7    1
    27     6     8   ar
    28     8     9   ar
    29    16    12    1
    30    24    19   ar
    31     9     4   ar
    32    17    14    1
@<TRIPOS>MOLECULE
*****
 29 32 0 0 0
SMALL
GASTEIGER

@<TRIPOS>ATOM
      1 N          -7.3940  -19.1922   21.5650 N.am    1  UNL1       -0.2707
      2 C          -6.1894  -19.9432   21.0804 C.2     1  UNL1        0.2686
      3 O          -6.2270  -21.4396   20.9842 O.2     1  UNL1       -0.2682
      4 C          -4.9470  -19.1978   20.6919 C.ar    1  UNL1        0.1535
      5 C          -3.8272  -18.8106   21.6116 C.ar    1  UNL1        0.1012
      6 N          -2.7946  -18.0821   20.8036 N.ar    1  UNL1       -0.3057
      7 C          -1.5063  -17.5160   21.3235 C.3     1  UNL1        0.1321
      8 C          -3.2762  -18.0191   19.3845 C.ar    1  UNL1        0.1787
      9 N          -4.6064  -18.7086   19.3154 N.ar    1  UNL1       -0.2192
     10 C          -7.3563  -17.6958   21.6612 C.3     1  UNL1        0.0941
     11 C          -7.1281  -14.7705   27.5813 C.3     1  UNL1        0.0896
     12 N          -7.1799  -15.4346   26.2373 N.3     1  UNL1       -0.2715
     13 C          -6.0436  -15.5459   25.2644 C.3     1  UNL1        0.0722
     14 C          -6.5385  -16.2841   24.0560 C.3     1  UNL1        0.0191
     15 C          -7.9807  -16.6291   24.2821 C.3     1  UNL1        0.0191
     16 C          -8.3771  -16.1040   25.6302 C.3     1  UNL1        0.0722
     17 C          -7.3045  -17.0317   23.0051 C.3     1  UNL1        0.0226
     18 C          -8.6363  -19.9377   21.9535 C.3     1  UNL1        0.1206
     19 C          -9.8894  -19.1841   22.2883 C.ar    1  UNL1        0.0007
     20 C         -10.4935  -19.3032   23.6560 C.ar    1  UNL1       -0.0024
     21 C         -11.7466  -18.5496   23.9908 C.ar    1  UNL1        0.0028
     22 C         -12.3955  -17.6770   22.9576 C.ar    1  UNL1        0.0372
     23 C         -11.7914  -17.5579   21.5898 C.ar    1  UNL1        0.1465
     24 C         -10.5384  -18.3115   21.2551 C.ar    1  UNL1        0.0346
     25 O         -12.4404  -16.6853   20.5566 O.3     1  UNL1       -0.4045
     26 C         -11.5995  -15.7886   19.6969 C.3     1  UNL1        0.5753
     27 F         -10.7588  -14.8919   18.8373 F       1  UNL1       -0.1328
     28 F         -12.4432  -16.1384   18.5070 F       1  UNL1       -0.1328
     29 F         -10.7559  -15.4388   20.8868 F       1  UNL1       -0.1328
@<TRIPOS>BOND
     1    11    12    1
     2    12    13    1
     3    14    13    1
     4    14    15    1
     5    15    16    1
     6    15    17    1
     7    17    10    1
     8    10     1    1
     9     1    18    1
    10    18    19    1
    11    19    20   ar
    12    20    21   ar
    13    21    22   ar
    14    22    23   ar
    15    23    25    1
    16    25    26    1
    17    26    27    1
    18    26    28    1
    19    26    29    1
    20    23    24   ar
    21     1     2   am
    22     2     3    2
    23     2     4    1
    24     4     5   ar
    25     5     6   ar
    26     6     7    1
    27     6     8   ar
    28     8     9   ar
    29    16    12    1
    30    24    19   ar
    31     9     4   ar
    32    17    14    1
@<TRIPOS>MOLECULE
*****
 29 32 0 0 0
SMALL
GASTEIGER

@<TRIPOS>ATOM
      1 N          -8.4267  -18.6264   20.6358 N.am    1  UNL1       -0.2707
      2 C          -9.7770  -19.2633   20.7813 C.2     1  UNL1        0.2686
      3 O          -9.9975  -20.6699   20.3091 O.2     1  UNL1       -0.2682
      4 C         -10.9067  -18.4937   21.3989 C.ar    1  UNL1        0.1535
      5 C         -11.6670  -18.8812   22.6325 C.ar    1  UNL1        0.1012
      6 N         -12.7046  -17.8285   22.8873 N.ar    1  UNL1       -0.3057
      7 C         -13.6885  -17.8161   24.0195 C.3     1  UNL1        0.1321
      8 C         -12.5855  -16.7902   21.8113 C.ar    1  UNL1        0.1787
      9 N         -11.4744  -17.2013   20.8914 N.ar    1  UNL1       -0.2192
     10 C          -8.2061  -17.2198   21.1080 C.3     1  UNL1        0.0941
     11 C          -8.1401  -15.8789   27.5775 C.3     1  UNL1        0.0896
     12 N          -8.1551  -16.1833   26.1088 N.3     1  UNL1       -0.2715
     13 C          -9.1674  -17.0284   25.3938 C.3     1  UNL1        0.0722
     14 C          -8.7984  -17.0635   23.9403 C.3     1  UNL1        0.0191
     15 C          -7.5580  -16.2401   23.7569 C.3     1  UNL1        0.0191
     16 C          -7.1605  -15.6961   25.0972 C.3     1  UNL1        0.0722
     17 C          -8.1912  -16.9154   22.5767 C.3     1  UNL1        0.0226
     18 C          -7.2970  -19.3960   20.0182 C.3     1  UNL1        0.1206
     19 C          -5.9211  -19.3130   20.6099 C.ar    1  UNL1        0.0007
     20 C          -5.7270  -19.4974   22.0858 C.ar    1  UNL1       -0.0024
     21 C          -4.3511  -19.4144   22.6776 C.ar    1  UNL1        0.0028
     22 C          -3.1693  -19.1470   21.7933 C.ar    1  UNL1        0.0372
     23 C          -3.3635  -18.9626   20.3173 C.ar    1  UNL1        0.1465
     24 C          -4.7393  -19.0456   19.7257 C.ar    1  UNL1        0.0346
     25 O          -2.1817  -18.6952   19.4331 O.3     1  UNL1       -0.4045
     26 C          -1.1824  -17.6434   19.8144 C.3     1  UNL1        0.5753
     27 F          -0.1833  -16.5916   20.1956 F       1  UNL1       -0.1328
     28 F          -2.2901  -16.6415   19.9535 F       1  UNL1       -0.1328
     29 F          -0.0748  -18.6452   19.6752 F       1  UNL1       -0.1328
@<TRIPOS>BOND
     1    11    12    1
     2    12    13    1
     3    14    13    1
     4    14    15    1
     5    15    16    1
     6    15    17    1
     7    17    10    1
     8    10     1    1
     9     1    18    1
    10    18    19    1
    11    19    20   ar
    12    20    21   ar
    13    21    22   ar
    14    22    23   ar
    15    23    25    1
    16    25    26    1
    17    26    27    1
    18    26    28    1
    19    26    29    1
    20    23    24   ar
    21     1     2   am
    22     2     3    2
    23     2     4    1
    24     4     5   ar
    25     5     6   ar
    26     6     7    1
    27     6     8   ar
    28     8     9   ar
    29    16    12    1
    30    24    19   ar
    31     9     4   ar
    32    17    14    1
@<TRIPOS>MOLECULE
*****
 29 32 0 0 0
SMALL
GASTEIGER

@<TRIPOS>ATOM
      1 N          -6.4403  -17.8774   22.1171 N.am    1  UNL1       -0.2707
      2 C          -7.1650  -16.7028   22.7048 C.2     1  UNL1        0.2686
      3 O          -8.4099  -16.1845   22.0479 O.2     1  UNL1       -0.2682
      4 C          -6.6448  -16.0466   23.9493 C.ar    1  UNL1        0.1535
      5 C          -7.3335  -16.0115   25.2813 C.ar    1  UNL1        0.1012
      6 N          -6.4589  -15.2536   26.2355 N.ar    1  UNL1       -0.3057
      7 C          -6.7606  -14.9774   27.6787 C.3     1  UNL1        0.1321
      8 C          -5.2296  -14.8202   25.4931 C.ar    1  UNL1        0.1787
      9 N          -5.3445  -15.3103   24.0802 N.ar    1  UNL1       -0.2192
     10 C          -5.1954  -18.3957   22.7740 C.3     1  UNL1        0.0941
     11 C           0.6863  -17.4524   19.9152 C.3     1  UNL1        0.0896
     12 N          -0.6489  -17.6665   20.5642 N.3     1  UNL1       -0.2715
     13 C          -1.4240  -16.6462   21.3443 C.3     1  UNL1        0.0722
     14 C          -2.6976  -17.2877   21.8093 C.3     1  UNL1        0.0191
     15 C          -2.7099  -18.7045   21.3167 C.3     1  UNL1        0.0191
     16 C          -1.4437  -18.9386   20.5472 C.3     1  UNL1        0.0722
     17 C          -3.8601  -18.1815   22.1250 C.3     1  UNL1        0.0226
     18 C          -6.9605  -18.5336   20.8726 C.3     1  UNL1        0.1206
     19 C          -8.3719  -19.0393   20.8253 C.ar    1  UNL1        0.0007
     20 C          -9.0603  -19.2191   19.5048 C.ar    1  UNL1       -0.0024
     21 C         -10.4717  -19.7248   19.4575 C.ar    1  UNL1        0.0028
     22 C         -11.1948  -20.0506   20.7307 C.ar    1  UNL1        0.0372
     23 C         -10.5064  -19.8707   22.0512 C.ar    1  UNL1        0.1465
     24 C          -9.0950  -19.3650   22.0985 C.ar    1  UNL1        0.0346
     25 O         -11.2294  -20.1965   23.3245 O.3     1  UNL1       -0.4045
     26 C         -10.7041  -19.6914   24.6356 C.3     1  UNL1        0.5753
     27 F         -10.1789  -19.1862   25.9467 F       1  UNL1       -0.1328
     28 F         -11.5035  -18.4328   24.4710 F       1  UNL1       -0.1328
     29 F          -9.9047  -20.9498   24.8002 F       1  UNL1       -0.1328
@<TRIPOS>BOND
     1    11    12    1
     2    12    13    1
     3    14    13    1
     4    14    15    1
     5    15    16    1
     6    15    17    1
     7    17    10    1
     8    10     1    1
     9     1    18    1
    10    18    19    1
    11    19    20   ar
    12    20    21   ar
    13    21    22   ar
    14    22    23   ar
    15    23    25    1
    16    25    26    1
    17    26    27    1
    18    26    28    1
    19    26    29    1
    20    23    24   ar
    21     1     2   am
    22     2     3    2
    23     2     4    1
    24     4     5   ar
    25     5     6   ar
    26     6     7    1
    27     6     8   ar
    28     8     9   ar
    29    16    12    1
    30    24    19   ar
    31     9     4   ar
    32    17    14    1
@<TRIPOS>MOLECULE
*****
 29 32 0 0 0
SMALL
GASTEIGER

@<TRIPOS>ATOM
      1 N           4.7170   -0.2430   34.0938 N.am    1  UNL1       -0.2707
      2 C           4.2273   -1.3543   33.2133 C.2     1  UNL1        0.2686
      3 O           4.0823   -2.7411   33.7664 O.2     1  UNL1       -0.2682
      4 C           3.8825   -1.0789   31.7797 C.ar    1  UNL1        0.1535
      5 C           4.8390   -1.0937   30.6243 C.ar    1  UNL1        0.1012
      6 N           4.0683   -0.7642   29.3803 N.ar    1  UNL1       -0.3057
      7 C           4.6316   -0.6698   27.9932 C.3     1  UNL1        0.1321
      8 C           2.6356   -0.5457   29.7669 C.ar    1  UNL1        0.1787
      9 N           2.5207   -0.7402   31.2497 N.ar    1  UNL1       -0.2192
     10 C           4.8619    1.1437   33.5406 C.3     1  UNL1        0.0941
     11 C          -0.3887    5.1428   33.2321 C.3     1  UNL1        0.0896
     12 N           0.8033    4.2349   33.3021 N.3     1  UNL1       -0.2715
     13 C           1.6398    3.9702   34.5189 C.3     1  UNL1        0.0722
     14 C           2.7216    3.0040   34.1365 C.3     1  UNL1        0.0191
     15 C           2.5538    2.6715   32.6834 C.3     1  UNL1        0.0191
     16 C           1.3682    3.4323   32.1678 C.3     1  UNL1        0.0722
     17 C           3.6700    2.0515   33.4706 C.3     1  UNL1        0.0226
     18 C           5.0618   -0.5185   35.5274 C.3     1  UNL1        0.1206
     19 C           4.6328    0.4392   36.5993 C.ar    1  UNL1        0.0007
     20 C           5.6518    1.2931   37.2938 C.ar    1  UNL1       -0.0024
     21 C           5.2228    2.2508   38.3657 C.ar    1  UNL1        0.0028
     22 C           3.7748    2.3544   38.7431 C.ar    1  UNL1        0.0372
     23 C           2.7557    1.5004   38.0485 C.ar    1  UNL1        0.1465
     24 C           3.1847    0.5428   36.9767 C.ar    1  UNL1        0.0346
     25 O           1.3077    1.6041   38.4259 O.3     1  UNL1       -0.4045
     26 C           0.8697    1.2641   39.8197 C.3     1  UNL1        0.5753
     27 F           0.4317    0.9241   41.2135 F       1  UNL1       -0.1328
     28 F           1.2915   -0.1593   39.6051 F       1  UNL1       -0.1328
     29 F           0.4478    2.6874   40.0344 F       1  UNL1       -0.1328
@<TRIPOS>BOND
     1    11    12    1
     2    12    13    1
     3    14    13    1
     4    14    15    1
     5    15    16    1
     6    15    17    1
     7    17    10    1
     8    10     1    1
     9     1    18    1
    10    18    19    1
    11    19    20   ar
    12    20    21   ar
    13    21    22   ar
    14    22    23   ar
    15    23    25    1
    16    25    26    1
    17    26    27    1
    18    26    28    1
    19    26    29    1
    20    23    24   ar
    21     1     2   am
    22     2     3    2
    23     2     4    1
    24     4     5   ar
    25     5     6   ar
    26     6     7    1
    27     6     8   ar
    28     8     9   ar
    29    16    12    1
    30    24    19   ar
    31     9     4   ar
    32    17    14    1
@<TRIPOS>MOLECULE
*****
 29 32 0 0 0
SMALL
GASTEIGER

@<TRIPOS>ATOM
      1 N          -8.0322  -18.2411   21.5014 N.am    1  UNL1       -0.2707
      2 C          -7.0776  -17.8669   22.5964 C.2     1  UNL1        0.2686
      3 O          -5.7958  -18.6273   22.7662 O.2     1  UNL1       -0.2682
      4 C          -7.4048  -16.7324   23.5214 C.ar    1  UNL1        0.1535
      5 C          -7.9194  -16.8593   24.9247 C.ar    1  UNL1        0.1012
      6 N          -8.1075  -15.4771   25.4761 N.ar    1  UNL1       -0.3057
      7 C          -8.6064  -15.1359   26.8490 C.3     1  UNL1        0.1321
      8 C          -7.7092  -14.4960   24.4137 C.ar    1  UNL1        0.1787
      9 N          -7.2749  -15.2718   23.2057 N.ar    1  UNL1       -0.2192
     10 C          -9.3139  -17.4807   21.3316 C.3     1  UNL1        0.0941
     11 C         -14.3663  -18.5604   25.4504 C.3     1  UNL1        0.0896
     12 N         -13.2193  -18.3153   24.5154 N.3     1  UNL1       -0.2715
     13 C         -11.8056  -18.7756   24.7144 C.3     1  UNL1        0.0722
     14 C         -10.9971  -18.3117   23.5391 C.3     1  UNL1        0.0191
     15 C         -11.9112  -17.5645   22.6137 C.3     1  UNL1        0.0191
     16 C         -13.2846  -17.5667   23.2171 C.3     1  UNL1        0.0722
     17 C         -10.4609  -17.7258   22.2666 C.3     1  UNL1        0.0226
     18 C          -7.7049  -19.3756   20.5764 C.3     1  UNL1        0.1206
     19 C          -6.2795  -19.6443   20.1940 C.ar    1  UNL1        0.0007
     20 C          -5.7391  -21.0425   20.2488 C.ar    1  UNL1       -0.0024
     21 C          -4.3137  -21.3112   19.8664 C.ar    1  UNL1        0.0028
     22 C          -3.4288  -20.1817   19.4293 C.ar    1  UNL1        0.0372
     23 C          -3.9693  -18.7834   19.3745 C.ar    1  UNL1        0.1465
     24 C          -5.3946  -18.5148   19.7568 C.ar    1  UNL1        0.0346
     25 O          -3.0844  -17.6539   18.9373 O.3     1  UNL1       -0.4045
     26 C          -1.5979  -17.7550   19.1115 C.3     1  UNL1        0.5753
     27 F          -0.1115  -17.8562   19.2856 F       1  UNL1       -0.1328
     28 F          -1.4282  -17.8254   17.6227 F       1  UNL1       -0.1328
     29 F          -1.7675  -17.6847   20.6002 F       1  UNL1       -0.1328
@<TRIPOS>BOND
     1    11    12    1
     2    12    13    1
     3    14    13    1
     4    14    15    1
     5    15    16    1
     6    15    17    1
     7    17    10    1
     8    10     1    1
     9     1    18    1
    10    18    19    1
    11    19    20   ar
    12    20    21   ar
    13    21    22   ar
    14    22    23   ar
    15    23    25    1
    16    25    26    1
    17    26    27    1
    18    26    28    1
    19    26    29    1
    20    23    24   ar
    21     1     2   am
    22     2     3    2
    23     2     4    1
    24     4     5   ar
    25     5     6   ar
    26     6     7    1
    27     6     8   ar
    28     8     9   ar
    29    16    12    1
    30    24    19   ar
    31     9     4   ar
    32    17    14    1
@<TRIPOS>MOLECULE
*****
 29 32 0 0 0
SMALL
GASTEIGER

@<TRIPOS>ATOM
      1 N           3.5862   -1.7367   18.8364 N.am    1  UNL1       -0.2707
      2 C           3.4279   -0.6562   17.8079 C.2     1  UNL1        0.2686
      3 O           4.1083   -0.7822   16.4771 O.2     1  UNL1       -0.2682
      4 C           2.5893    0.5501   18.1104 C.ar    1  UNL1        0.1535
      5 C           3.1023    1.9223   18.4326 C.ar    1  UNL1        0.1012
      6 N           1.9205    2.8162   18.6650 N.ar    1  UNL1       -0.3057
      7 C           1.9729    4.2741   19.0147 C.3     1  UNL1        0.1321
      8 C           0.6771    1.9965   18.4865 C.ar    1  UNL1        0.1787
      9 N           1.0904    0.5960   18.1437 N.ar    1  UNL1       -0.2192
     10 C           2.9058   -1.6107   20.1673 C.3     1  UNL1        0.0941
     11 C           6.5070   -1.0935   25.6828 C.3     1  UNL1        0.0896
     12 N           5.6894   -1.2109   24.4307 N.3     1  UNL1       -0.2715
     13 C           6.1526   -0.8856   23.0415 C.3     1  UNL1        0.0722
     14 C           5.0146   -1.1479   22.1001 C.3     1  UNL1        0.0191
     15 C           3.8481   -1.6354   22.9074 C.3     1  UNL1        0.0191
     16 C           4.2652   -1.6743   24.3478 C.3     1  UNL1        0.0722
     17 C           3.7233   -1.4933   21.4194 C.3     1  UNL1        0.0226
     18 C           4.4248   -2.9430   18.5340 C.3     1  UNL1        0.1206
     19 C           5.8088   -3.0557   19.1016 C.ar    1  UNL1        0.0007
     20 C           6.9253   -2.2375   18.5238 C.ar    1  UNL1       -0.0024
     21 C           8.3092   -2.3502   19.0914 C.ar    1  UNL1        0.0028
     22 C           8.5766   -3.2813   20.2367 C.ar    1  UNL1        0.0372
     23 C           7.4600   -4.0996   20.8144 C.ar    1  UNL1        0.1465
     24 C           6.0761   -3.9868   20.2468 C.ar    1  UNL1        0.0346
     25 O           7.7273   -5.0306   21.9597 O.3     1  UNL1       -0.4045
     26 C           7.8239   -4.4928   23.3567 C.3     1  UNL1        0.5753
     27 F           7.9206   -3.9550   24.7536 F       1  UNL1       -0.1328
     28 F           9.3179   -4.6159   23.3008 F       1  UNL1       -0.1328
     29 F           6.3301   -4.3696   23.4126 F       1  UNL1       -0.1328
@<TRIPOS>BOND
     1    11    12    1
     2    12    13    1
     3    14    13    1
     4    14    15    1
     5    15    16    1
     6    15    17    1
     7    17    10    1
     8    10     1    1
     9     1    18    1
    10    18    19    1
    11    19    20   ar
    12    20    21   ar
    13    21    22   ar
    14    22    23   ar
    15    23    25    1
    16    25    26    1
    17    26    27    1
    18    26    28    1
    19    26    29    1
    20    23    24   ar
    21     1     2   am
    22     2     3    2
    23     2     4    1
    24     4     5   ar
    25     5     6   ar
    26     6     7    1
    27     6     8   ar
    28     8     9   ar
    29    16    12    1
    30    24    19   ar
    31     9     4   ar
    32    17    14    1
@<TRIPOS>MOLECULE
*****
 29 32 0 0 0
SMALL
GASTEIGER

@<TRIPOS>ATOM
      1 N          -9.7038  -18.3134   20.6505 N.am    1  UNL1       -0.2707
      2 C         -10.7858  -19.1856   21.2150 C.2     1  UNL1        0.2686
      3 O         -10.8980  -20.6171   20.7810 O.2     1  UNL1       -0.2682
      4 C         -11.7555  -18.6264   22.2134 C.ar    1  UNL1        0.1535
      5 C         -12.0301  -19.1787   23.5807 C.ar    1  UNL1        0.1012
      6 N         -13.0652  -18.3104   24.2321 N.ar    1  UNL1       -0.3057
      7 C         -13.6352  -18.4980   25.6069 C.3     1  UNL1        0.1321
      8 C         -13.4303  -17.2213   23.2674 C.ar    1  UNL1        0.1787
      9 N         -12.6209  -17.4166   22.0198 N.ar    1  UNL1       -0.2192
     10 C          -9.5915  -16.8820   21.0845 C.3     1  UNL1        0.0941
     11 C          -7.0738  -15.4155   27.0147 C.3     1  UNL1        0.0896
     12 N          -7.6454  -15.7484   25.6685 N.3     1  UNL1       -0.2715
     13 C          -8.7585  -16.7169   25.3982 C.3     1  UNL1        0.0722
     14 C          -9.0053  -16.7384   23.9188 C.3     1  UNL1        0.0191
     15 C          -8.0447  -15.7832   23.2747 C.3     1  UNL1        0.0191
     16 C          -7.2042  -15.1713   24.3561 C.3     1  UNL1        0.0722
     17 C          -9.0200  -16.5491   22.4308 C.3     1  UNL1        0.0226
     18 C          -8.7340  -18.8726   19.6521 C.3     1  UNL1        0.1206
     19 C          -7.3952  -19.3740   20.1065 C.ar    1  UNL1        0.0007
     20 C          -7.0637  -20.8327   19.9961 C.ar    1  UNL1       -0.0024
     21 C          -5.7249  -21.3340   20.4505 C.ar    1  UNL1        0.0028
     22 C          -4.7177  -20.3766   21.0153 C.ar    1  UNL1        0.0372
     23 C          -5.0494  -18.9179   21.1257 C.ar    1  UNL1        0.1465
     24 C          -6.3881  -18.4166   20.6713 C.ar    1  UNL1        0.0346
     25 O          -4.0422  -17.9605   21.6905 O.3     1  UNL1       -0.4045
     26 C          -3.7970  -17.9160   23.1698 C.3     1  UNL1        0.5753
     27 F          -3.5517  -17.8716   24.6489 F       1  UNL1       -0.1328
     28 F          -2.3482  -18.2290   22.9390 F       1  UNL1       -0.1328
     29 F          -5.2457  -17.6031   23.4006 F       1  UNL1       -0.1328
@<TRIPOS>BOND
     1    11    12    1
     2    12    13    1
     3    14    13    1
     4    14    15    1
     5    15    16    1
     6    15    17    1
     7    17    10    1
     8    10     1    1
     9     1    18    1
    10    18    19    1
    11    19    20   ar
    12    20    21   ar
    13    21    22   ar
    14    22    23   ar
    15    23    25    1
    16    25    26    1
    17    26    27    1
    18    26    28    1
    19    26    29    1
    20    23    24   ar
    21     1     2   am
    22     2     3    2
    23     2     4    1
    24     4     5   ar
    25     5     6   ar
    26     6     7    1
    27     6     8   ar
    28     8     9   ar
    29    16    12    1
    30    24    19   ar
    31     9     4   ar
    32    17    14    1
