@<TRIPOS>MOLECULE
*****
 24 27 0 0 0
SMALL
GASTEIGER

@<TRIPOS>ATOM
      1 C          -8.2693  -15.1642   25.2789 C.3     1  UNL1        0.1363
      2 N          -7.1411  -15.8419   24.5594 N.ar    1  UNL1       -0.2667
      3 C          -7.4121  -16.6269   23.3103 C.ar    1  UNL1        0.2035
      4 N          -6.2837  -17.3047   22.5907 N.ar    1  UNL1       -0.2147
      5 C          -4.8845  -17.1974   23.1203 C.ar    1  UNL1        0.0911
      6 C          -4.6134  -16.4124   24.3695 C.ar    1  UNL1        0.0801
      7 C          -5.7417  -15.7347   25.0890 C.ar    1  UNL1        0.2645
      8 O          -5.4707  -14.9496   26.3381 O.2     1  UNL1       -0.2668
      9 N          -8.8114  -16.7342   22.7807 N.pl3   1  UNL1       -0.2761
     10 C          -9.2494  -15.8668   21.6380 C.3     1  UNL1        0.1256
     11 C         -10.6486  -15.9741   21.1084 C.3     1  UNL1        0.1635
     12 O         -11.6099  -16.9489   21.7214 O.3     1  UNL1       -0.3527
     13 C         -11.1719  -17.8163   22.8641 C.3     1  UNL1        0.1333
     14 C         -11.8917  -18.8610   23.6644 C.3     1  UNL1        0.0313
     15 C         -10.9372  -19.3993   24.6887 C.3     1  UNL1        0.0043
     16 C          -9.6276  -18.6874   24.5214 C.3     1  UNL1        0.0224
     17 C          -9.7726  -17.7090   23.3937 C.3     1  UNL1        0.1026
     18 C          -3.7562  -17.8751   22.4008 C.ar    1  UNL1        0.0485
     19 C          -3.7752  -19.3626   22.2086 C.ar    1  UNL1        0.0244
     20 C          -2.6469  -20.0403   21.4891 C.ar    1  UNL1        0.0991
     21 N          -1.4997  -19.2304   20.9618 N.ar    1  UNL1       -0.2400
     22 C          -1.4807  -17.7430   21.1540 C.ar    1  UNL1        0.1285
     23 C          -2.6090  -17.0653   21.8735 C.ar    1  UNL1        0.1606
     24 F          -2.5901  -15.5778   22.0657 F       1  UNL1       -0.2025
@<TRIPOS>BOND
     1     1     2    1
     2     2     3   ar
     3     3     9    1
     4     9    10    1
     5    10    11    1
     6    11    12    1
     7    12    13    1
     8    13    14    1
     9    14    15    1
    10    15    16    1
    11    17    16    1
    12     3     4   ar
    13     4     5   ar
    14     5    18    1
    15    18    19   ar
    16    19    20   ar
    17    20    21   ar
    18    21    22   ar
    19    22    23   ar
    20    23    24    1
    21     5     6   ar
    22     6     7   ar
    23     7     8    2
    24     7     2   ar
    25    17     9    1
    26    23    18   ar
    27    17    13    1
@<TRIPOS>MOLECULE
*****
 24 27 0 0 0
SMALL
GASTEIGER

@<TRIPOS>ATOM
      1 C          -8.6914  -15.3093   25.0058 C.3     1  UNL1        0.1363
      2 N          -7.7257  -16.1731   24.2499 N.ar    1  UNL1       -0.2667
      3 C          -8.2263  -17.3520   23.4692 C.ar    1  UNL1        0.2035
      4 N          -7.2606  -18.2158   22.7133 N.ar    1  UNL1       -0.2147
      5 C          -5.7944  -17.9007   22.7380 C.ar    1  UNL1        0.0911
      6 C          -5.2937  -16.7218   23.5188 C.ar    1  UNL1        0.0801
      7 C          -6.2593  -15.8580   24.2747 C.ar    1  UNL1        0.2645
      8 O          -5.7587  -14.6791   25.0554 O.2     1  UNL1       -0.2668
      9 N          -9.6927  -17.6671   23.4444 N.pl3   1  UNL1       -0.2761
     10 C         -10.2963  -18.5135   24.5257 C.3     1  UNL1        0.1256
     11 C         -11.7625  -18.8287   24.5009 C.3     1  UNL1        0.1635
     12 O         -12.6253  -18.2974   23.3948 O.3     1  UNL1       -0.3527
     13 C         -12.0217  -17.4511   22.3135 C.3     1  UNL1        0.1333
     14 C         -12.6171  -16.7920   21.1047 C.3     1  UNL1        0.0313
     15 C         -11.5188  -16.0696   20.3824 C.3     1  UNL1        0.0043
     16 C         -10.2445  -16.2821   21.1448 C.3     1  UNL1        0.0224
     17 C         -10.5554  -17.1359   22.3383 C.3     1  UNL1        0.1026
     18 C          -4.8287  -18.7645   21.9822 C.ar    1  UNL1        0.0485
     19 C          -3.3904  -18.8274   22.4033 C.ar    1  UNL1        0.0244
     20 C          -2.4248  -19.6912   21.6474 C.ar    1  UNL1        0.0991
     21 N          -2.8975  -20.4920   20.4703 N.ar    1  UNL1       -0.2400
     22 C          -4.3357  -20.4290   20.0493 C.ar    1  UNL1        0.1285
     23 C          -5.3014  -19.5652   20.8051 C.ar    1  UNL1        0.1606
     24 F          -6.7397  -19.5023   20.3840 F       1  UNL1       -0.2025
@<TRIPOS>BOND
     1     1     2    1
     2     2     3   ar
     3     3     9    1
     4     9    10    1
     5    10    11    1
     6    11    12    1
     7    12    13    1
     8    13    14    1
     9    14    15    1
    10    15    16    1
    11    17    16    1
    12     3     4   ar
    13     4     5   ar
    14     5    18    1
    15    18    19   ar
    16    19    20   ar
    17    20    21   ar
    18    21    22   ar
    19    22    23   ar
    20    23    24    1
    21     5     6   ar
    22     6     7   ar
    23     7     8    2
    24     7     2   ar
    25    17     9    1
    26    23    18   ar
    27    17    13    1
@<TRIPOS>MOLECULE
*****
 24 27 0 0 0
SMALL
GASTEIGER

@<TRIPOS>ATOM
      1 C          -8.4844  -15.3537   25.0500 C.3     1  UNL1        0.1363
      2 N          -7.2939  -15.9675   24.3748 N.ar    1  UNL1       -0.2667
      3 C          -7.4853  -16.8743   23.1954 C.ar    1  UNL1        0.2035
      4 N          -6.2947  -17.4881   22.5202 N.ar    1  UNL1       -0.2147
      5 C          -4.9128  -17.1951   23.0243 C.ar    1  UNL1        0.0911
      6 C          -4.7213  -16.2882   24.2038 C.ar    1  UNL1        0.0801
      7 C          -5.9118  -15.6745   24.8790 C.ar    1  UNL1        0.2645
      8 O          -5.7204  -14.7676   26.0584 O.2     1  UNL1       -0.2668
      9 N          -8.8673  -17.1674   22.6912 N.pl3   1  UNL1       -0.2761
     10 C         -10.0563  -16.5336   23.3504 C.3     1  UNL1        0.1256
     11 C         -11.4382  -16.8266   22.8462 C.3     1  UNL1        0.1635
     12 O         -11.6313  -17.7535   21.6827 O.3     1  UNL1       -0.3527
     13 C         -10.4423  -18.3874   21.0235 C.3     1  UNL1        0.1333
     14 C         -10.3225  -19.3349   19.8669 C.3     1  UNL1        0.0313
     15 C          -8.8665  -19.6274   19.6563 C.3     1  UNL1        0.0043
     16 C          -8.0864  -18.8607   20.6827 C.3     1  UNL1        0.0224
     17 C          -9.0603  -18.0943   21.5277 C.3     1  UNL1        0.1026
     18 C          -3.7223  -17.8088   22.3492 C.ar    1  UNL1        0.0485
     19 C          -2.5734  -16.9439   21.9224 C.ar    1  UNL1        0.0244
     20 C          -1.3829  -17.5577   21.2473 C.ar    1  UNL1        0.0991
     21 N          -1.3412  -19.0364   20.9989 N.ar    1  UNL1       -0.2400
     22 C          -2.4900  -19.9013   21.4256 C.ar    1  UNL1        0.1285
     23 C          -3.6805  -19.2875   22.1008 C.ar    1  UNL1        0.1606
     24 F          -4.8294  -20.1525   22.5275 F       1  UNL1       -0.2025
@<TRIPOS>BOND
     1     1     2    1
     2     2     3   ar
     3     3     9    1
     4     9    10    1
     5    10    11    1
     6    11    12    1
     7    12    13    1
     8    13    14    1
     9    14    15    1
    10    15    16    1
    11    17    16    1
    12     3     4   ar
    13     4     5   ar
    14     5    18    1
    15    18    19   ar
    16    19    20   ar
    17    20    21   ar
    18    21    22   ar
    19    22    23   ar
    20    23    24    1
    21     5     6   ar
    22     6     7   ar
    23     7     8    2
    24     7     2   ar
    25    17     9    1
    26    23    18   ar
    27    17    13    1
@<TRIPOS>MOLECULE
*****
 24 27 0 0 0
SMALL
GASTEIGER

@<TRIPOS>ATOM
      1 C         -10.1594  -19.4111   20.8542 C.3     1  UNL1        0.1363
      2 N          -8.6668  -19.3068   20.7478 N.ar    1  UNL1       -0.2667
      3 C          -7.8607  -18.8520   21.9282 C.ar    1  UNL1        0.2035
      4 N          -6.3680  -18.7477   21.8218 N.ar    1  UNL1       -0.2147
      5 C          -5.6816  -19.0981   20.5350 C.ar    1  UNL1        0.0911
      6 C          -6.4877  -19.5528   19.3545 C.ar    1  UNL1        0.0801
      7 C          -7.9802  -19.6571   19.4609 C.ar    1  UNL1        0.2645
      8 O          -8.7863  -20.1119   18.2805 O.2     1  UNL1       -0.2668
      9 N          -8.5472  -18.5016   23.2150 N.pl3   1  UNL1       -0.2761
     10 C          -9.4136  -19.5146   23.9029 C.3     1  UNL1        0.1256
     11 C         -10.1000  -19.1642   25.1897 C.3     1  UNL1        0.1635
     12 O          -9.9201  -17.8008   25.7887 O.3     1  UNL1       -0.3527
     13 C          -9.0537  -16.7878   25.1009 C.3     1  UNL1        0.1333
     14 C          -8.6913  -15.3747   25.4497 C.3     1  UNL1        0.0313
     15 C          -7.7809  -14.8517   24.3785 C.3     1  UNL1        0.0043
     16 C          -7.5806  -15.9416   23.3675 C.3     1  UNL1        0.0224
     17 C          -8.3672  -17.1382   23.8140 C.3     1  UNL1        0.1026
     18 C          -4.1890  -18.9938   20.4286 C.ar    1  UNL1        0.0485
     19 C          -3.5603  -18.5005   19.1592 C.ar    1  UNL1        0.0244
     20 C          -2.0677  -18.3962   19.0527 C.ar    1  UNL1        0.0991
     21 N          -1.2039  -18.7852   20.2158 N.ar    1  UNL1       -0.2400
     22 C          -1.8326  -19.2784   21.4851 C.ar    1  UNL1        0.1285
     23 C          -3.3252  -19.3827   21.5915 C.ar    1  UNL1        0.1606
     24 F          -3.9539  -19.8759   22.8610 F       1  UNL1       -0.2025
@<TRIPOS>BOND
     1     1     2    1
     2     2     3   ar
     3     3     9    1
     4     9    10    1
     5    10    11    1
     6    11    12    1
     7    12    13    1
     8    13    14    1
     9    14    15    1
    10    15    16    1
    11    17    16    1
    12     3     4   ar
    13     4     5   ar
    14     5    18    1
    15    18    19   ar
    16    19    20   ar
    17    20    21   ar
    18    21    22   ar
    19    22    23   ar
    20    23    24    1
    21     5     6   ar
    22     6     7   ar
    23     7     8    2
    24     7     2   ar
    25    17     9    1
    26    23    18   ar
    27    17    13    1
@<TRIPOS>MOLECULE
*****
 24 27 0 0 0
SMALL
GASTEIGER

@<TRIPOS>ATOM
      1 C          -5.3137  -16.0040   25.6329 C.3     1  UNL1        0.1363
      2 N          -6.5827  -16.1799   24.8528 N.ar    1  UNL1       -0.2667
      3 C          -6.5484  -16.8310   23.5019 C.ar    1  UNL1        0.2035
      4 N          -7.8175  -17.0069   22.7217 N.ar    1  UNL1       -0.2147
      5 C          -9.1207  -16.5319   23.2924 C.ar    1  UNL1        0.0911
      6 C          -9.1550  -15.8808   24.6433 C.ar    1  UNL1        0.0801
      7 C          -7.8860  -15.7048   25.4235 C.ar    1  UNL1        0.2645
      8 O          -7.9203  -15.0538   26.7744 O.2     1  UNL1       -0.2668
      9 N          -5.2452  -17.3061   22.9311 N.pl3   1  UNL1       -0.2761
     10 C          -3.9809  -16.5519   23.2190 C.3     1  UNL1        0.1256
     11 C          -2.6777  -17.0269   22.6483 C.3     1  UNL1        0.1635
     12 O          -2.6386  -18.2563   21.7896 O.3     1  UNL1       -0.3527
     13 C          -3.9028  -19.0105   21.5017 C.3     1  UNL1        0.1333
     14 C          -4.1728  -20.2464   20.6957 C.3     1  UNL1        0.0313
     15 C          -5.6430  -20.5352   20.7684 C.3     1  UNL1        0.0043
     16 C          -6.2816  -19.4777   21.6193 C.3     1  UNL1        0.0224
     17 C          -5.2061  -18.5354   22.0725 C.3     1  UNL1        0.1026
     18 C         -10.3897  -16.7078   22.5122 C.ar    1  UNL1        0.0485
     19 C         -10.5597  -16.0182   21.1911 C.ar    1  UNL1        0.0244
     20 C         -11.8287  -16.1941   20.4109 C.ar    1  UNL1        0.0991
     21 N         -12.9278  -17.0597   20.9521 N.ar    1  UNL1       -0.2400
     22 C         -12.7578  -17.7493   22.2732 C.ar    1  UNL1        0.1285
     23 C         -11.4888  -17.5734   23.0533 C.ar    1  UNL1        0.1606
     24 F         -11.3189  -18.2630   24.3745 F       1  UNL1       -0.2025
@<TRIPOS>BOND
     1     1     2    1
     2     2     3   ar
     3     3     9    1
     4     9    10    1
     5    10    11    1
     6    11    12    1
     7    12    13    1
     8    13    14    1
     9    14    15    1
    10    15    16    1
    11    17    16    1
    12     3     4   ar
    13     4     5   ar
    14     5    18    1
    15    18    19   ar
    16    19    20   ar
    17    20    21   ar
    18    21    22   ar
    19    22    23   ar
    20    23    24    1
    21     5     6   ar
    22     6     7   ar
    23     7     8    2
    24     7     2   ar
    25    17     9    1
    26    23    18   ar
    27    17    13    1
@<TRIPOS>MOLECULE
*****
 24 27 0 0 0
SMALL
GASTEIGER

@<TRIPOS>ATOM
      1 C         -10.4518  -19.7999   19.5677 C.3     1  UNL1        0.1363
      2 N          -8.9754  -19.6248   19.7670 N.ar    1  UNL1       -0.2667
      3 C          -8.4670  -18.7040   20.8364 C.ar    1  UNL1        0.2035
      4 N          -6.9906  -18.5289   21.0357 N.ar    1  UNL1       -0.2147
      5 C          -6.0227  -19.2745   20.1657 C.ar    1  UNL1        0.0911
      6 C          -6.5311  -20.1953   19.0962 C.ar    1  UNL1        0.0801
      7 C          -8.0074  -20.3704   18.8969 C.ar    1  UNL1        0.2645
      8 O          -8.5158  -21.2912   17.8274 O.2     1  UNL1       -0.2668
      9 N          -9.4350  -17.9584   21.7065 N.pl3   1  UNL1       -0.2761
     10 C          -9.8868  -16.5821   21.3174 C.3     1  UNL1        0.1256
     11 C         -10.8547  -15.8364   22.1874 C.3     1  UNL1        0.1635
     12 O         -11.3708  -16.4671   23.4468 O.3     1  UNL1       -0.3527
     13 C         -10.9190  -17.8435   23.8360 C.3     1  UNL1        0.1333
     14 C         -11.2534  -18.7151   25.0100 C.3     1  UNL1        0.0313
     15 C         -10.4921  -19.9994   24.8655 C.3     1  UNL1        0.0043
     16 C          -9.6872  -19.9216   23.6021 C.3     1  UNL1        0.0224
     17 C          -9.9510  -18.5891   22.9658 C.3     1  UNL1        0.1026
     18 C          -4.5464  -19.0994   20.3650 C.ar    1  UNL1        0.0485
     19 C          -3.6859  -18.6347   19.2275 C.ar    1  UNL1        0.0244
     20 C          -2.2096  -18.4596   19.4268 C.ar    1  UNL1        0.0991
     21 N          -1.5937  -18.7491   20.7636 N.ar    1  UNL1       -0.2400
     22 C          -2.4541  -19.2138   21.9010 C.ar    1  UNL1        0.1285
     23 C          -3.9305  -19.3889   21.7017 C.ar    1  UNL1        0.1606
     24 F          -4.7909  -19.8535   22.8391 F       1  UNL1       -0.2025
@<TRIPOS>BOND
     1     1     2    1
     2     2     3   ar
     3     3     9    1
     4     9    10    1
     5    10    11    1
     6    11    12    1
     7    12    13    1
     8    13    14    1
     9    14    15    1
    10    15    16    1
    11    17    16    1
    12     3     4   ar
    13     4     5   ar
    14     5    18    1
    15    18    19   ar
    16    19    20   ar
    17    20    21   ar
    18    21    22   ar
    19    22    23   ar
    20    23    24    1
    21     5     6   ar
    22     6     7   ar
    23     7     8    2
    24     7     2   ar
    25    17     9    1
    26    23    18   ar
    27    17    13    1
@<TRIPOS>MOLECULE
*****
 24 27 0 0 0
SMALL
GASTEIGER

@<TRIPOS>ATOM
      1 C          -6.3950  -19.4772   19.6866 C.3     1  UNL1        0.1363
      2 N          -7.6578  -19.2439   20.4618 N.ar    1  UNL1       -0.2667
      3 C          -7.5965  -18.6230   21.8259 C.ar    1  UNL1        0.2035
      4 N          -8.8594  -18.3897   22.6012 N.ar    1  UNL1       -0.2147
      5 C         -10.1833  -18.7772   22.0124 C.ar    1  UNL1        0.0911
      6 C         -10.2447  -19.3981   20.6482 C.ar    1  UNL1        0.0801
      7 C          -8.9819  -19.6314   19.8730 C.ar    1  UNL1        0.2645
      8 O          -9.0432  -20.2522   18.5089 O.2     1  UNL1       -0.2668
      9 N          -6.2725  -18.2355   22.4147 N.pl3   1  UNL1       -0.2761
     10 C          -5.0542  -19.0631   22.1306 C.3     1  UNL1        0.1256
     11 C          -3.7302  -18.6756   22.7195 C.3     1  UNL1        0.1635
     12 O          -3.6244  -17.4604   23.5925 O.3     1  UNL1       -0.3527
     13 C          -4.8427  -16.6327   23.8766 C.3     1  UNL1        0.1333
     14 C          -5.0444  -15.3912   24.6939 C.3     1  UNL1        0.0313
     15 C          -6.4931  -15.0115   24.6102 C.3     1  UNL1        0.0043
     16 C          -7.1868  -16.0183   23.7411 C.3     1  UNL1        0.0224
     17 C          -6.1668  -17.0203   23.2877 C.3     1  UNL1        0.1026
     18 C         -11.4461  -18.5439   22.7876 C.ar    1  UNL1        0.0485
     19 C         -12.5808  -17.7875   22.1628 C.ar    1  UNL1        0.0244
     20 C         -13.8436  -17.5542   22.9380 C.ar    1  UNL1        0.0991
     21 N         -13.9715  -18.0773   24.3381 N.ar    1  UNL1       -0.2400
     22 C         -12.8368  -18.8336   24.9628 C.ar    1  UNL1        0.1285
     23 C         -11.5741  -19.0669   24.1876 C.ar    1  UNL1        0.1606
     24 F         -10.4394  -19.8232   24.8124 F       1  UNL1       -0.2025
@<TRIPOS>BOND
     1     1     2    1
     2     2     3   ar
     3     3     9    1
     4     9    10    1
     5    10    11    1
     6    11    12    1
     7    12    13    1
     8    13    14    1
     9    14    15    1
    10    15    16    1
    11    17    16    1
    12     3     4   ar
    13     4     5   ar
    14     5    18    1
    15    18    19   ar
    16    19    20   ar
    17    20    21   ar
    18    21    22   ar
    19    22    23   ar
    20    23    24    1
    21     5     6   ar
    22     6     7   ar
    23     7     8    2
    24     7     2   ar
    25    17     9    1
    26    23    18   ar
    27    17    13    1
@<TRIPOS>MOLECULE
*****
 24 27 0 0 0
SMALL
GASTEIGER

@<TRIPOS>ATOM
      1 C         -11.5122  -17.8244   20.4504 C.3     1  UNL1        0.1363
      2 N         -10.6508  -17.3885   21.5984 N.ar    1  UNL1       -0.2667
      3 C          -9.2678  -17.9481   21.7531 C.ar    1  UNL1        0.2035
      4 N          -8.4063  -17.5121   22.9011 N.ar    1  UNL1       -0.2147
      5 C          -8.9279  -16.5165   23.8944 C.ar    1  UNL1        0.0911
      6 C         -10.3110  -15.9568   23.7397 C.ar    1  UNL1        0.0801
      7 C         -11.1724  -16.3928   22.5917 C.ar    1  UNL1        0.2645
      8 O         -12.5555  -15.8332   22.4370 O.2     1  UNL1       -0.2668
      9 N          -8.7461  -18.9437   20.7598 N.pl3   1  UNL1       -0.2761
     10 C          -9.6315  -19.4322   19.6519 C.3     1  UNL1        0.1256
     11 C          -9.1099  -20.4278   18.6586 C.3     1  UNL1        0.1635
     12 O          -7.7028  -20.9349   18.7732 O.3     1  UNL1       -0.3527
     13 C          -6.8174  -20.4464   19.8811 C.3     1  UNL1        0.1333
     14 C          -5.3975  -20.7643   20.2454 C.3     1  UNL1        0.0313
     15 C          -5.0416  -19.9651   21.4638 C.3     1  UNL1        0.0043
     16 C          -6.2415  -19.1533   21.8526 C.3     1  UNL1        0.0224
     17 C          -7.3391  -19.4508   20.8744 C.3     1  UNL1        0.1026
     18 C          -8.0665  -16.0806   25.0424 C.ar    1  UNL1        0.0485
     19 C          -8.5612  -16.2306   26.4505 C.ar    1  UNL1        0.0244
     20 C          -7.6998  -15.7946   27.5985 C.ar    1  UNL1        0.0991
     21 N          -6.3437  -15.2086   27.3383 N.ar    1  UNL1       -0.2400
     22 C          -5.8491  -15.0586   25.9302 C.ar    1  UNL1        0.1285
     23 C          -6.7105  -15.4945   24.7822 C.ar    1  UNL1        0.1606
     24 F          -6.2158  -15.3445   23.3741 F       1  UNL1       -0.2025
@<TRIPOS>BOND
     1     1     2    1
     2     2     3   ar
     3     3     9    1
     4     9    10    1
     5    10    11    1
     6    11    12    1
     7    12    13    1
     8    13    14    1
     9    14    15    1
    10    15    16    1
    11    17    16    1
    12     3     4   ar
    13     4     5   ar
    14     5    18    1
    15    18    19   ar
    16    19    20   ar
    17    20    21   ar
    18    21    22   ar
    19    22    23   ar
    20    23    24    1
    21     5     6   ar
    22     6     7   ar
    23     7     8    2
    24     7     2   ar
    25    17     9    1
    26    23    18   ar
    27    17    13    1
