@<TRIPOS>MOLECULE
*****
 42 45 0 0 0
SMALL
GASTEIGER

@<TRIPOS>ATOM
      1 C          -2.0793    4.5006   20.0480 C.3     1  UNL1        0.1139
      2 C          -1.0699    3.4210   19.7910 C.ar    1  UNL1       -0.0029
      3 C          -0.7779    2.3998   20.8501 C.ar    1  UNL1       -0.0026
      4 C           0.2314    1.3204   20.5931 C.ar    1  UNL1       -0.0003
      5 C           0.9486    1.2621   19.2769 C.ar    1  UNL1       -0.0000
      6 C           0.6565    2.2834   18.2178 C.ar    1  UNL1       -0.0003
      7 C          -0.3527    3.3628   18.4748 C.ar    1  UNL1       -0.0026
      8 C           1.9579    0.1826   19.0199 C.ar    1  UNL1        0.0000
      9 C           2.8087    0.2298   17.7854 C.ar    1  UNL1        0.0001
     10 C           3.8180   -0.8498   17.5284 C.ar    1  UNL1        0.0045
     11 C           3.9765   -1.9764   18.5060 C.ar    1  UNL1        0.0531
     12 C           3.1257   -2.0235   19.7405 C.ar    1  UNL1        0.0045
     13 C           2.1165   -0.9440   19.9975 C.ar    1  UNL1        0.0001
     14 C           4.9858   -3.0559   18.2490 C.2     1  UNL1        0.2427
     15 N           4.6333   -4.4900   18.5115 N.am    1  UNL1       -0.3253
     16 O           6.3475   -2.7012   17.7296 O.2     1  UNL1       -0.2704
     17 H           3.7395   -4.7228   18.8524 H       1  UNL1        0.1453
     18 H           5.2957   -5.1985   18.3429 H       1  UNL1        0.1453
     19 C          -3.1785    4.5007   22.4021 C.2     1  UNL1        0.2461
     20 O          -4.0133    3.3170   22.0123 O.2     1  UNL1       -0.2730
     21 N          -2.2115    5.0925   21.4199 N.am    1  UNL1       -0.2729
     22 C          -1.3767    6.2762   21.8096 C.3     1  UNL1        0.1152
     23 C          -3.3107    5.0926   23.7740 C.3     1  UNL1        0.1773
     24 N          -3.3241    4.1987   24.9784 N.pl3   1  UNL1       -0.2973
     25 C          -2.1008    3.4097   25.3405 C.ar    1  UNL1        0.0492
     26 C          -0.9962    3.2375   24.3403 C.ar    1  UNL1        0.0154
     27 C           0.2271    2.4486   24.7024 C.ar    1  UNL1        0.0135
     28 C           0.3458    1.8319   26.0646 C.ar    1  UNL1        0.0683
     29 CL          1.5692    1.0429   26.4266 Cl      1  UNL1       -0.0814
     30 C          -0.7587    2.0041   27.0647 C.ar    1  UNL1        0.0694
     31 CL         -0.6400    1.3874   28.4269 Cl      1  UNL1       -0.0813
     32 C          -1.9821    2.7930   26.7027 C.ar    1  UNL1        0.0268
     33 C          -4.5608    4.0937   25.8208 C.3     1  UNL1        0.1234
     34 C          -5.7987    4.8466   25.4327 C.3     1  UNL1        0.1636
     35 C          -7.0290    5.0856   23.1569 C.3     1  UNL1        0.1742
     36 O          -6.7201    4.2880   24.3892 O.3     1  UNL1       -0.3493
     37 C          -2.9563    4.9881   18.9331 C.3     1  UNL1        0.0967
     38 N          -4.4360    4.7463   18.9822 N.3     1  UNL1       -0.2710
     39 C          -5.4562    5.6484   19.6110 C.3     1  UNL1        0.0722
     40 C          -6.8059    5.0197   19.4287 C.3     1  UNL1        0.0188
     41 C          -6.6197    3.7290   18.6872 C.3     1  UNL1        0.0188
     42 C          -5.1550    3.5602   18.4113 C.3     1  UNL1        0.0722
@<TRIPOS>BOND
     1    35    36    1
     2    36    34    1
     3    34    33    1
     4    33    24    1
     5    24    23    1
     6    23    19    1
     7    19    20    2
     8    19    21   am
     9    21    22    1
    10    21     1    1
    11     1    37    1
    12    37    38    1
    13    38    39    1
    14    39    40    1
    15    40    41    1
    16    41    42    1
    17     1     2    1
    18     2     3   ar
    19     3     4   ar
    20     4     5   ar
    21     5     8    1
    22     8     9   ar
    23     9    10   ar
    24    10    11   ar
    25    11    14    1
    26    14    15   am
    27    14    16    2
    28    11    12   ar
    29    12    13   ar
    30     5     6   ar
    31     6     7   ar
    32    24    25    1
    33    25    26   ar
    34    26    27   ar
    35    27    28   ar
    36    28    29    1
    37    28    30   ar
    38    30    31    1
    39    30    32   ar
    40    42    38    1
    41     7     2   ar
    42    32    25   ar
    43    13     8   ar
    44    15    17    1
    45    15    18    1
@<TRIPOS>MOLECULE
*****
 42 45 0 0 0
SMALL
GASTEIGER

@<TRIPOS>ATOM
      1 C           3.4250    1.0692   28.5389 C.3     1  UNL1        0.1139
      2 C           3.4913    0.4380   27.1797 C.ar    1  UNL1       -0.0029
      3 C           4.0389   -0.9496   27.0230 C.ar    1  UNL1       -0.0026
      4 C           4.1052   -1.5807   25.6639 C.ar    1  UNL1       -0.0003
      5 C           3.6239   -0.8241   24.4614 C.ar    1  UNL1       -0.0000
      6 C           3.0763    0.5635   24.6180 C.ar    1  UNL1       -0.0003
      7 C           3.0100    1.1946   25.9772 C.ar    1  UNL1       -0.0026
      8 C           3.6903   -1.4553   23.1022 C.ar    1  UNL1        0.0000
      9 C           2.9790   -0.8196   21.9446 C.ar    1  UNL1        0.0001
     10 C           3.0454   -1.4508   20.5854 C.ar    1  UNL1        0.0045
     11 C           3.8230   -2.7176   20.3839 C.ar    1  UNL1        0.0531
     12 C           4.5342   -3.3532   21.5416 C.ar    1  UNL1        0.0045
     13 C           4.4679   -2.7220   22.9007 C.ar    1  UNL1        0.0001
     14 C           3.8893   -3.3487   19.0248 C.2     1  UNL1        0.2427
     15 N           4.2551   -2.5192   17.8298 N.am    1  UNL1       -0.3253
     16 O           3.5900   -4.8093   18.8607 O.2     1  UNL1       -0.2704
     17 H           4.4516   -1.5606   17.9375 H       1  UNL1        0.1453
     18 H           4.2986   -2.9334   16.9377 H       1  UNL1        0.1453
     19 C           4.3821   -0.0644   30.6717 C.2     1  UNL1        0.2461
     20 O           3.0912   -0.8054   30.8572 O.2     1  UNL1       -0.2730
     21 N           4.5490    0.8729   29.5126 N.am    1  UNL1       -0.2729
     22 C           5.8399    1.6139   29.3271 C.3     1  UNL1        0.1152
     23 C           5.5061   -0.2607   31.6454 C.3     1  UNL1        0.1773
     24 N           5.6987   -1.5914   32.3102 N.pl3   1  UNL1       -0.2973
     25 C           6.1754   -2.7674   31.5103 C.ar    1  UNL1        0.0492
     26 C           6.5691   -4.0371   32.2052 C.ar    1  UNL1        0.0154
     27 C           7.0459   -5.2131   31.4053 C.ar    1  UNL1        0.0135
     28 C           7.1289   -5.1193   29.9105 C.ar    1  UNL1        0.0683
     29 CL          7.6056   -6.2953   29.1106 Cl      1  UNL1       -0.0814
     30 C           6.7352   -3.8496   29.2156 C.ar    1  UNL1        0.0694
     31 CL          6.8182   -3.7559   27.7209 Cl      1  UNL1       -0.0813
     32 C           6.2584   -2.6736   30.0156 C.ar    1  UNL1        0.0268
     33 C           5.4146   -1.7462   33.7749 C.3     1  UNL1        0.1234
     34 C           4.8748   -0.5882   34.5607 C.3     1  UNL1        0.1636
     35 C           4.3346    0.4792   36.8670 C.3     1  UNL1        0.1742
     36 O           5.0868   -0.5245   36.0442 O.3     1  UNL1       -0.3493
     37 C           2.2347    1.8965   28.9243 C.3     1  UNL1        0.0967
     38 N           0.8490    1.3721   28.6896 N.3     1  UNL1       -0.2710
     39 C           0.3481    0.0078   29.0607 C.3     1  UNL1        0.0722
     40 C          -1.0895   -0.0875   28.6430 C.3     1  UNL1        0.0188
     41 C          -1.4769    1.2179   28.0137 C.3     1  UNL1        0.0188
     42 C          -0.2788    2.1200   28.0425 C.3     1  UNL1        0.0722
@<TRIPOS>BOND
     1    35    36    1
     2    36    34    1
     3    34    33    1
     4    33    24    1
     5    24    23    1
     6    23    19    1
     7    19    20    2
     8    19    21   am
     9    21    22    1
    10    21     1    1
    11     1    37    1
    12    37    38    1
    13    38    39    1
    14    39    40    1
    15    40    41    1
    16    41    42    1
    17     1     2    1
    18     2     3   ar
    19     3     4   ar
    20     4     5   ar
    21     5     8    1
    22     8     9   ar
    23     9    10   ar
    24    10    11   ar
    25    11    14    1
    26    14    15   am
    27    14    16    2
    28    11    12   ar
    29    12    13   ar
    30     5     6   ar
    31     6     7   ar
    32    24    25    1
    33    25    26   ar
    34    26    27   ar
    35    27    28   ar
    36    28    29    1
    37    28    30   ar
    38    30    31    1
    39    30    32   ar
    40    42    38    1
    41     7     2   ar
    42    32    25   ar
    43    13     8   ar
    44    15    17    1
    45    15    18    1
@<TRIPOS>MOLECULE
*****
 42 45 0 0 0
SMALL
GASTEIGER

@<TRIPOS>ATOM
      1 C          -1.8869    4.7790   20.6174 C.3     1  UNL1        0.1139
      2 C          -0.9325    3.6719   20.2804 C.ar    1  UNL1       -0.0029
      3 C          -0.7363    2.5336   21.2373 C.ar    1  UNL1       -0.0026
      4 C           0.2181    1.4266   20.9003 C.ar    1  UNL1       -0.0003
      5 C           0.9763    1.4579   19.6064 C.ar    1  UNL1       -0.0000
      6 C           0.7801    2.5962   18.6495 C.ar    1  UNL1       -0.0003
      7 C          -0.1743    3.7032   18.9865 C.ar    1  UNL1       -0.0026
      8 C           1.9308    0.3508   19.2694 C.ar    1  UNL1        0.0000
      9 C           2.1070   -0.8010   20.2140 C.ar    1  UNL1        0.0001
     10 C           3.0614   -1.9081   19.8770 C.ar    1  UNL1        0.0045
     11 C           3.8396   -1.8633   18.5954 C.ar    1  UNL1        0.0531
     12 C           3.6633   -0.7114   17.6508 C.ar    1  UNL1        0.0045
     13 C           2.7089    0.3956   17.9878 C.ar    1  UNL1        0.0001
     14 C           4.7940   -2.9703   18.2584 C.2     1  UNL1        0.2427
     15 N           4.4159   -4.3958   18.5320 N.am    1  UNL1       -0.3253
     16 O           6.1266   -2.6518   17.6478 O.2     1  UNL1       -0.2704
     17 H           3.5413   -4.6048   18.9328 H       1  UNL1        0.1453
     18 H           5.0423   -5.1224   18.3108 H       1  UNL1        0.1453
     19 C          -2.6819    4.7959   23.0908 C.2     1  UNL1        0.2461
     20 O          -3.5174    3.5777   22.8306 O.2     1  UNL1       -0.2730
     21 N          -1.8666    5.3966   21.9842 N.am    1  UNL1       -0.2729
     22 C          -1.0311    6.6149   22.2444 C.3     1  UNL1        0.1152
     23 C          -2.6616    5.4136   24.4576 C.3     1  UNL1        0.1773
     24 N          -1.7681    4.8496   25.5223 N.pl3   1  UNL1       -0.2973
     25 C          -0.7859    3.7683   25.1818 C.ar    1  UNL1        0.0492
     26 C          -1.0777    2.3452   25.5556 C.ar    1  UNL1        0.0154
     27 C          -0.0954    1.2639   25.2151 C.ar    1  UNL1        0.0135
     28 C           1.1785    1.6056   24.5008 C.ar    1  UNL1        0.0683
     29 CL          2.1608    0.5242   24.1603 Cl      1  UNL1       -0.0814
     30 C           1.4703    3.0287   24.1270 C.ar    1  UNL1        0.0694
     31 CL          2.7443    3.3704   23.4128 Cl      1  UNL1       -0.0813
     32 C           0.4881    4.1101   24.4675 C.ar    1  UNL1        0.0268
     33 C          -1.8568    5.3670   26.9274 C.3     1  UNL1        0.1234
     34 C          -3.1428    5.9520   27.4315 C.3     1  UNL1        0.1636
     35 C          -5.5834    5.4073   26.7266 C.3     1  UNL1        0.1742
     36 O          -4.3656    5.0905   27.5433 O.3     1  UNL1       -0.3493
     37 C          -2.8616    5.2684   19.5876 C.3     1  UNL1        0.0967
     38 N          -4.2361    4.6723   19.5128 N.3     1  UNL1       -0.2710
     39 C          -4.6549    3.5295   18.6361 C.3     1  UNL1        0.0722
     40 C          -6.1107    3.2653   18.8829 C.3     1  UNL1        0.0188
     41 C          -6.5915    4.2449   19.9122 C.3     1  UNL1        0.0188
     42 C          -5.4330    5.1144   20.3014 C.3     1  UNL1        0.0722
@<TRIPOS>BOND
     1    35    36    1
     2    36    34    1
     3    34    33    1
     4    33    24    1
     5    24    23    1
     6    23    19    1
     7    19    20    2
     8    19    21   am
     9    21    22    1
    10    21     1    1
    11     1    37    1
    12    37    38    1
    13    38    39    1
    14    39    40    1
    15    40    41    1
    16    41    42    1
    17     1     2    1
    18     2     3   ar
    19     3     4   ar
    20     4     5   ar
    21     5     8    1
    22     8     9   ar
    23     9    10   ar
    24    10    11   ar
    25    11    14    1
    26    14    15   am
    27    14    16    2
    28    11    12   ar
    29    12    13   ar
    30     5     6   ar
    31     6     7   ar
    32    24    25    1
    33    25    26   ar
    34    26    27   ar
    35    27    28   ar
    36    28    29    1
    37    28    30   ar
    38    30    31    1
    39    30    32   ar
    40    42    38    1
    41     7     2   ar
    42    32    25   ar
    43    13     8   ar
    44    15    17    1
    45    15    18    1
@<TRIPOS>MOLECULE
*****
 42 45 0 0 0
SMALL
GASTEIGER

@<TRIPOS>ATOM
      1 C           2.3824    1.0132   28.3004 C.3     1  UNL1        0.1139
      2 C           2.6485    0.4249   26.9465 C.ar    1  UNL1       -0.0029
      3 C           1.9672    0.9905   25.7358 C.ar    1  UNL1       -0.0026
      4 C           2.2333    0.4021   24.3820 C.ar    1  UNL1       -0.0003
      5 C           3.1807   -0.7519   24.2388 C.ar    1  UNL1       -0.0000
      6 C           3.8621   -1.3176   25.4495 C.ar    1  UNL1       -0.0003
      7 C           3.5960   -0.7292   26.8033 C.ar    1  UNL1       -0.0026
      8 C           3.4468   -1.3403   22.8849 C.ar    1  UNL1        0.0000
      9 C           4.4010   -2.4887   22.7405 C.ar    1  UNL1        0.0001
     10 C           4.6670   -3.0771   21.3866 C.ar    1  UNL1        0.0045
     11 C           3.9789   -2.5170   20.1771 C.ar    1  UNL1        0.0531
     12 C           3.0248   -1.3686   20.3215 C.ar    1  UNL1        0.0045
     13 C           2.7587   -0.7803   21.6754 C.ar    1  UNL1        0.0001
     14 C           4.2450   -3.1054   18.8232 C.2     1  UNL1        0.2427
     15 N           3.7917   -4.5004   18.5094 N.am    1  UNL1       -0.3253
     16 O           4.9643   -2.2987   17.7831 O.2     1  UNL1       -0.2704
     17 H           3.3195   -5.0298   19.1921 H       1  UNL1        0.1453
     18 H           3.9663   -4.8865   17.6208 H       1  UNL1        0.1453
     19 C           3.5955    0.1917   30.4460 C.2     1  UNL1        0.2461
     20 O           2.5751   -0.8960   30.6065 O.2     1  UNL1       -0.2730
     21 N           3.4992    1.1463   29.2930 N.am    1  UNL1       -0.2729
     22 C           4.5196    2.2340   29.1325 C.3     1  UNL1        0.1152
     23 C           4.7123    0.3248   31.4386 C.3     1  UNL1        0.1773
     24 N           5.1401   -0.8621   32.2499 N.pl3   1  UNL1       -0.2973
     25 C           5.7516   -2.0526   31.5724 C.ar    1  UNL1        0.0492
     26 C           6.1061   -3.2709   32.3725 C.ar    1  UNL1        0.0154
     27 C           6.7175   -4.4613   31.6951 C.ar    1  UNL1        0.0135
     28 C           6.9745   -4.4335   30.2175 C.ar    1  UNL1        0.0683
     29 CL          7.5861   -5.6240   29.5401 Cl      1  UNL1       -0.0814
     30 C           6.6201   -3.2152   29.4174 C.ar    1  UNL1        0.0694
     31 CL          6.8771   -3.1874   27.9399 Cl      1  UNL1       -0.0813
     32 C           6.0086   -2.0247   30.0949 C.ar    1  UNL1        0.0268
     33 C           4.9564   -0.8586   33.7386 C.3     1  UNL1        0.1234
     34 C           6.0986   -0.4805   34.6343 C.3     1  UNL1        0.1636
     35 C           4.5332    0.0608   36.6360 C.3     1  UNL1        0.1742
     36 O           5.8793   -0.3432   36.1118 O.3     1  UNL1       -0.3493
     37 C           0.9997    1.4685   28.6618 C.3     1  UNL1        0.0967
     38 N           0.8051    2.4925   29.7406 N.3     1  UNL1       -0.2710
     39 C           0.9032    3.9798   29.5724 C.3     1  UNL1        0.0722
     40 C           0.6370    4.6154   30.9049 C.3     1  UNL1        0.0188
     41 C           0.3744    3.5208   31.8964 C.3     1  UNL1        0.0188
     42 C           0.4783    2.2088   31.1768 C.3     1  UNL1        0.0722
@<TRIPOS>BOND
     1    35    36    1
     2    36    34    1
     3    34    33    1
     4    33    24    1
     5    24    23    1
     6    23    19    1
     7    19    20    2
     8    19    21   am
     9    21    22    1
    10    21     1    1
    11     1    37    1
    12    37    38    1
    13    38    39    1
    14    39    40    1
    15    40    41    1
    16    41    42    1
    17     1     2    1
    18     2     3   ar
    19     3     4   ar
    20     4     5   ar
    21     5     8    1
    22     8     9   ar
    23     9    10   ar
    24    10    11   ar
    25    11    14    1
    26    14    15   am
    27    14    16    2
    28    11    12   ar
    29    12    13   ar
    30     5     6   ar
    31     6     7   ar
    32    24    25    1
    33    25    26   ar
    34    26    27   ar
    35    27    28   ar
    36    28    29    1
    37    28    30   ar
    38    30    31    1
    39    30    32   ar
    40    42    38    1
    41     7     2   ar
    42    32    25   ar
    43    13     8   ar
    44    15    17    1
    45    15    18    1
@<TRIPOS>MOLECULE
*****
 42 45 0 0 0
SMALL
GASTEIGER

@<TRIPOS>ATOM
      1 C           0.1788    3.2711   25.6689 C.3     1  UNL1        0.1139
      2 C           0.8026    2.2565   24.7570 C.ar    1  UNL1       -0.0029
      3 C           1.8515    1.3213   25.2815 C.ar    1  UNL1       -0.0026
      4 C           2.4753    0.3067   24.3696 C.ar    1  UNL1       -0.0003
      5 C           2.0502    0.2275   22.9333 C.ar    1  UNL1       -0.0000
      6 C           1.0014    1.1628   22.4088 C.ar    1  UNL1       -0.0003
      7 C           0.3776    2.1773   23.3207 C.ar    1  UNL1       -0.0026
      8 C           2.6741   -0.7871   22.0214 C.ar    1  UNL1        0.0000
      9 C           3.7173   -1.7276   22.5477 C.ar    1  UNL1        0.0001
     10 C           4.3412   -2.7422   21.6358 C.ar    1  UNL1        0.0045
     11 C           3.9218   -2.8162   20.1976 C.ar    1  UNL1        0.0531
     12 C           2.8785   -1.8756   19.6712 C.ar    1  UNL1        0.0045
     13 C           2.2547   -0.8611   20.5831 C.ar    1  UNL1        0.0001
     14 C           4.5455   -3.8307   19.2857 C.2     1  UNL1        0.2427
     15 N           5.1715   -3.3940   17.9944 N.am    1  UNL1       -0.3253
     16 O           4.5434   -5.2819   19.6650 O.2     1  UNL1       -0.2704
     17 H           5.1730   -2.4415   17.7455 H       1  UNL1        0.1453
     18 H           5.5810   -4.0598   17.3959 H       1  UNL1        0.1453
     19 C          -0.0434    2.3176   28.0755 C.2     1  UNL1        0.2461
     20 O          -1.0191    1.2922   27.5792 O.2     1  UNL1       -0.2730
     21 N           0.5556    3.3071   27.1204 N.am    1  UNL1       -0.2729
     22 C           1.5313    4.3325   27.6167 C.3     1  UNL1        0.1152
     23 C           0.3334    2.3536   29.5270 C.3     1  UNL1        0.1773
     24 N           1.5710    1.6492   29.9982 N.pl3   1  UNL1       -0.2973
     25 C           1.9789    1.7328   31.4393 C.ar    1  UNL1        0.0492
     26 C           1.4408    2.8305   32.3085 C.ar    1  UNL1        0.0154
     27 C           1.8487    2.9142   33.7496 C.ar    1  UNL1        0.0135
     28 C           2.7945    1.9001   34.3214 C.ar    1  UNL1        0.0683
     29 CL          3.2023    1.9837   35.7625 Cl      1  UNL1       -0.0814
     30 C           3.3325    0.8024   33.4522 C.ar    1  UNL1        0.0694
     31 CL          4.2784   -0.2117   34.0241 Cl      1  UNL1       -0.0813
     32 C           2.9247    0.7187   32.0111 C.ar    1  UNL1        0.0268
     33 C           2.4008    0.8612   29.0284 C.3     1  UNL1        0.1234
     34 C           2.0665   -0.5740   28.7484 C.3     1  UNL1        0.1636
     35 C           4.4017   -1.0922   27.7343 C.3     1  UNL1        0.1742
     36 O           2.9322   -1.3795   27.8256 O.3     1  UNL1       -0.3493
     37 C          -0.8218    4.2497   25.1294 C.3     1  UNL1        0.0967
     38 N          -2.2662    4.1368   25.5183 N.3     1  UNL1       -0.2710
     39 C          -3.3651    3.5662   24.6717 C.3     1  UNL1        0.0722
     40 C          -4.6433    3.6515   25.4522 C.3     1  UNL1        0.0188
     41 C          -4.3342    4.2749   26.7811 C.3     1  UNL1        0.0188
     42 C          -2.8651    4.5748   26.8219 C.3     1  UNL1        0.0722
@<TRIPOS>BOND
     1    35    36    1
     2    36    34    1
     3    34    33    1
     4    33    24    1
     5    24    23    1
     6    23    19    1
     7    19    20    2
     8    19    21   am
     9    21    22    1
    10    21     1    1
    11     1    37    1
    12    37    38    1
    13    38    39    1
    14    39    40    1
    15    40    41    1
    16    41    42    1
    17     1     2    1
    18     2     3   ar
    19     3     4   ar
    20     4     5   ar
    21     5     8    1
    22     8     9   ar
    23     9    10   ar
    24    10    11   ar
    25    11    14    1
    26    14    15   am
    27    14    16    2
    28    11    12   ar
    29    12    13   ar
    30     5     6   ar
    31     6     7   ar
    32    24    25    1
    33    25    26   ar
    34    26    27   ar
    35    27    28   ar
    36    28    29    1
    37    28    30   ar
    38    30    31    1
    39    30    32   ar
    40    42    38    1
    41     7     2   ar
    42    32    25   ar
    43    13     8   ar
    44    15    17    1
    45    15    18    1
@<TRIPOS>MOLECULE
*****
 42 45 0 0 0
SMALL
GASTEIGER

@<TRIPOS>ATOM
      1 C           4.9511   -1.2729   24.8325 C.3     1  UNL1        0.1139
      2 C           3.6964   -0.4684   25.0014 C.ar    1  UNL1       -0.0029
      3 C           3.3133    0.0480   26.3566 C.ar    1  UNL1       -0.0026
      4 C           2.0587    0.8525   26.5254 C.ar    1  UNL1       -0.0003
      5 C           1.1871    1.1407   25.3391 C.ar    1  UNL1       -0.0000
      6 C           1.5702    0.6243   23.9839 C.ar    1  UNL1       -0.0003
      7 C           2.8249   -0.1802   23.8151 C.ar    1  UNL1       -0.0026
      8 C          -0.0676    1.9452   25.5080 C.ar    1  UNL1        0.0000
      9 C          -0.7578    1.9877   26.8391 C.ar    1  UNL1        0.0001
     10 C          -2.0125    2.7922   27.0080 C.ar    1  UNL1        0.0045
     11 C          -2.5769    3.5544   25.8458 C.ar    1  UNL1        0.0531
     12 C          -1.8866    3.5119   24.5147 C.ar    1  UNL1        0.0045
     13 C          -0.6320    2.7073   24.3458 C.ar    1  UNL1        0.0001
     14 C          -3.8316    4.3589   26.0147 C.2     1  UNL1        0.2427
     15 N          -4.4271    5.0752   24.8390 N.am    1  UNL1       -0.3253
     16 O          -4.4907    4.4472   27.3592 O.2     1  UNL1       -0.2704
     17 H          -3.9945    5.0172   23.9565 H       1  UNL1        0.1453
     18 H          -5.2506    5.6032   24.9498 H       1  UNL1        0.1453
     19 C           5.2988   -2.4750   22.5556 C.2     1  UNL1        0.2461
     20 O           4.3100   -3.5278   22.9604 O.2     1  UNL1       -0.2730
     21 N           5.6194   -1.3475   23.4916 N.am    1  UNL1       -0.2729
     22 C           6.6082   -0.2948   23.0868 C.3     1  UNL1        0.1152
     23 C           5.9671   -2.5496   21.2147 C.3     1  UNL1        0.1773
     24 N           5.2182   -2.1442   19.9799 N.pl3   1  UNL1       -0.2973
     25 C           4.0540   -1.2041   20.0836 C.ar    1  UNL1        0.0492
     26 C           2.6529   -1.7383   20.0441 C.ar    1  UNL1        0.0154
     27 C           1.4886   -0.7982   20.1479 C.ar    1  UNL1        0.0135
     28 C           1.7255    0.6760   20.2911 C.ar    1  UNL1        0.0683
     29 CL          0.5611    1.6161   20.3948 Cl      1  UNL1       -0.0814
     30 C           3.1265    1.2102   20.3306 C.ar    1  UNL1        0.0694
     31 CL          3.3634    2.6845   20.4738 Cl      1  UNL1       -0.0813
     32 C           4.2909    0.2702   20.2269 C.ar    1  UNL1        0.0268
     33 C           5.6336   -2.6787   18.6414 C.3     1  UNL1        0.1234
     34 C           6.8352   -2.1099   17.9466 C.3     1  UNL1        0.1636
     35 C           7.1443    0.4362   17.5320 C.3     1  UNL1        0.1742
     36 O           6.6893   -0.9117   17.0562 O.3     1  UNL1       -0.3493
     37 C           5.5375   -2.0028   26.0043 C.3     1  UNL1        0.0967
     38 N           6.7539   -2.8613   25.8210 N.3     1  UNL1       -0.2710
     39 C           8.1789   -2.4014   25.9099 C.3     1  UNL1        0.0722
     40 C           9.0646   -3.5862   25.6605 C.3     1  UNL1        0.0188
     41 C           8.1869   -4.7781   25.4175 C.3     1  UNL1        0.0188
     42 C           6.7588   -4.3300   25.5167 C.3     1  UNL1        0.0722
@<TRIPOS>BOND
     1    35    36    1
     2    36    34    1
     3    34    33    1
     4    33    24    1
     5    24    23    1
     6    23    19    1
     7    19    20    2
     8    19    21   am
     9    21    22    1
    10    21     1    1
    11     1    37    1
    12    37    38    1
    13    38    39    1
    14    39    40    1
    15    40    41    1
    16    41    42    1
    17     1     2    1
    18     2     3   ar
    19     3     4   ar
    20     4     5   ar
    21     5     8    1
    22     8     9   ar
    23     9    10   ar
    24    10    11   ar
    25    11    14    1
    26    14    15   am
    27    14    16    2
    28    11    12   ar
    29    12    13   ar
    30     5     6   ar
    31     6     7   ar
    32    24    25    1
    33    25    26   ar
    34    26    27   ar
    35    27    28   ar
    36    28    29    1
    37    28    30   ar
    38    30    31    1
    39    30    32   ar
    40    42    38    1
    41     7     2   ar
    42    32    25   ar
    43    13     8   ar
    44    15    17    1
    45    15    18    1
@<TRIPOS>MOLECULE
*****
 42 45 0 0 0
SMALL
GASTEIGER

@<TRIPOS>ATOM
      1 C           2.4771    1.0482   28.2672 C.3     1  UNL1        0.1139
      2 C           2.7356    0.4418   26.9198 C.ar    1  UNL1       -0.0029
      3 C           2.0524    0.9953   25.7046 C.ar    1  UNL1       -0.0026
      4 C           2.3110    0.3889   24.3573 C.ar    1  UNL1       -0.0003
      5 C           3.2528   -0.7710   24.2251 C.ar    1  UNL1       -0.0000
      6 C           3.9361   -1.3246   25.4403 C.ar    1  UNL1       -0.0003
      7 C           3.6775   -0.7182   26.7877 C.ar    1  UNL1       -0.0026
      8 C           3.5114   -1.3774   22.8777 C.ar    1  UNL1        0.0000
      9 C           2.9714   -0.7191   21.6429 C.ar    1  UNL1        0.0001
     10 C           3.2299   -1.3255   20.2954 C.ar    1  UNL1        0.0045
     11 C           4.0286   -2.5902   20.1830 C.ar    1  UNL1        0.0531
     12 C           4.5687   -3.2485   21.4179 C.ar    1  UNL1        0.0045
     13 C           4.3101   -2.6421   22.7652 C.ar    1  UNL1        0.0001
     14 C           4.2872   -3.1966   18.8356 C.2     1  UNL1        0.2427
     15 N           4.0308   -4.6570   18.6088 N.am    1  UNL1       -0.3253
     16 O           4.8022   -2.3427   17.7151 O.2     1  UNL1       -0.2704
     17 H           3.6928   -5.2175   19.3442 H       1  UNL1        0.1453
     18 H           4.2006   -5.0551   17.7245 H       1  UNL1        0.1453
     19 C           3.7815    0.3320   30.3970 C.2     1  UNL1        0.2461
     20 O           2.8174   -0.7977   30.6076 O.2     1  UNL1       -0.2730
     21 N           3.6113    1.2549   29.2268 N.am    1  UNL1       -0.2729
     22 C           4.5754    2.3846   29.0162 C.3     1  UNL1        0.1152
     23 C           4.9157    0.5387   31.3565 C.3     1  UNL1        0.1773
     24 N           5.0630   -0.3598   32.5485 N.pl3   1  UNL1       -0.2973
     25 C           4.6587    0.1264   33.9087 C.ar    1  UNL1        0.0492
     26 C           5.1758   -0.5636   35.1361 C.ar    1  UNL1        0.0154
     27 C           4.7716   -0.0774   36.4963 C.ar    1  UNL1        0.0135
     28 C           3.8501    1.0988   36.6291 C.ar    1  UNL1        0.0683
     29 CL          3.4459    1.5850   37.9894 Cl      1  UNL1       -0.0814
     30 C           3.3330    1.7887   35.4018 C.ar    1  UNL1        0.0694
     31 CL          2.4116    2.9649   35.5346 Cl      1  UNL1       -0.0813
     32 C           3.7373    1.3025   34.0415 C.ar    1  UNL1        0.0268
     33 C           5.6145   -1.7446   32.3803 C.3     1  UNL1        0.1234
     34 C           7.0888   -1.9861   32.5147 C.3     1  UNL1        0.1636
     35 C           6.7921   -4.4543   31.7597 C.3     1  UNL1        0.1742
     36 O           7.6823   -3.2814   32.0459 O.3     1  UNL1       -0.3493
     37 C           1.0843    1.4478   28.6551 C.3     1  UNL1        0.0967
     38 N           0.8686    2.4384   29.7607 N.3     1  UNL1       -0.2710
     39 C           0.6242    2.1096   31.2036 C.3     1  UNL1        0.0722
     40 C           0.4640    3.3997   31.9522 C.3     1  UNL1        0.0188
     41 C           0.6094    4.5256   30.9718 C.3     1  UNL1        0.0188
     42 C           0.8595    3.9315   29.6174 C.3     1  UNL1        0.0722
@<TRIPOS>BOND
     1    35    36    1
     2    36    34    1
     3    34    33    1
     4    33    24    1
     5    24    23    1
     6    23    19    1
     7    19    20    2
     8    19    21   am
     9    21    22    1
    10    21     1    1
    11     1    37    1
    12    37    38    1
    13    38    39    1
    14    39    40    1
    15    40    41    1
    16    41    42    1
    17     1     2    1
    18     2     3   ar
    19     3     4   ar
    20     4     5   ar
    21     5     8    1
    22     8     9   ar
    23     9    10   ar
    24    10    11   ar
    25    11    14    1
    26    14    15   am
    27    14    16    2
    28    11    12   ar
    29    12    13   ar
    30     5     6   ar
    31     6     7   ar
    32    24    25    1
    33    25    26   ar
    34    26    27   ar
    35    27    28   ar
    36    28    29    1
    37    28    30   ar
    38    30    31    1
    39    30    32   ar
    40    42    38    1
    41     7     2   ar
    42    32    25   ar
    43    13     8   ar
    44    15    17    1
    45    15    18    1
@<TRIPOS>MOLECULE
*****
 42 45 0 0 0
SMALL
GASTEIGER

@<TRIPOS>ATOM
      1 C           1.0016    2.1130   26.8538 C.3     1  UNL1        0.1139
      2 C           1.5287    1.3191   25.6954 C.ar    1  UNL1       -0.0029
      3 C           0.8620    1.4149   24.3552 C.ar    1  UNL1       -0.0026
      4 C           1.3892    0.6210   23.1968 C.ar    1  UNL1       -0.0003
      5 C           2.5831   -0.2687   23.3787 C.ar    1  UNL1       -0.0000
      6 C           3.2498   -0.3645   24.7189 C.ar    1  UNL1       -0.0003
      7 C           2.7226    0.4294   25.8773 C.ar    1  UNL1       -0.0026
      8 C           3.1102   -1.0626   22.2203 C.ar    1  UNL1        0.0000
      9 C           2.5609   -0.8351   20.8432 C.ar    1  UNL1        0.0001
     10 C           3.0881   -1.6290   19.6848 C.ar    1  UNL1        0.0045
     11 C           4.1646   -2.6504   19.9035 C.ar    1  UNL1        0.0531
     12 C           4.7139   -2.8779   21.2807 C.ar    1  UNL1        0.0045
     13 C           4.1867   -2.0840   22.4390 C.ar    1  UNL1        0.0001
     14 C           4.6917   -3.4443   18.7452 C.2     1  UNL1        0.2427
     15 N           4.2616   -4.8686   18.5544 N.am    1  UNL1       -0.3253
     16 O           5.6490   -2.8140   17.7776 O.2     1  UNL1       -0.2704
     17 H           3.6332   -5.2823   19.1895 H       1  UNL1        0.1453
     18 H           4.6075   -5.3897   17.7942 H       1  UNL1        0.1453
     19 C           1.9170    1.6518   29.2412 C.2     1  UNL1        0.2461
     20 O           3.1291    2.4813   28.9366 O.2     1  UNL1       -0.2730
     21 N           0.8532    1.4676   28.1997 N.am    1  UNL1       -0.2729
     22 C          -0.3588    0.6381   28.5043 C.3     1  UNL1        0.1152
     23 C           1.7687    1.0064   30.5871 C.3     1  UNL1        0.1773
     24 N           2.3567    1.6613   31.8017 N.pl3   1  UNL1       -0.2973
     25 C           1.6425    2.8064   32.4562 C.ar    1  UNL1        0.0492
     26 C           0.5237    3.5014   31.7383 C.ar    1  UNL1        0.0154
     27 C          -0.1905    4.6466   32.3928 C.ar    1  UNL1        0.0135
     28 C           0.2140    5.0969   33.7652 C.ar    1  UNL1        0.0683
     29 CL         -0.5002    6.2421   34.4197 Cl      1  UNL1       -0.0814
     30 C           1.3328    4.4020   34.4832 C.ar    1  UNL1        0.0694
     31 CL          1.7373    4.8522   35.8556 Cl      1  UNL1       -0.0813
     32 C           2.0470    3.2567   33.8287 C.ar    1  UNL1        0.0268
     33 C           3.6589    1.1709   32.3619 C.3     1  UNL1        0.1234
     34 C           3.6884   -0.0495   33.2335 C.3     1  UNL1        0.1636
     35 C           4.4524   -2.5327   33.2459 C.3     1  UNL1        0.1742
     36 O           3.6779   -1.4150   32.6127 O.3     1  UNL1       -0.3493
     37 C           0.6228    3.5522   26.6663 C.3     1  UNL1        0.0967
     38 N          -0.8211    3.9576   26.6952 N.3     1  UNL1       -0.2710
     39 C          -1.3668    5.2355   27.2602 C.3     1  UNL1        0.0722
     40 C          -2.8558    5.2241   27.0784 C.3     1  UNL1        0.0188
     41 C          -3.2302    3.9391   26.4009 C.3     1  UNL1        0.0188
     42 C          -1.9727    3.1565   26.1641 C.3     1  UNL1        0.0722
@<TRIPOS>BOND
     1    35    36    1
     2    36    34    1
     3    34    33    1
     4    33    24    1
     5    24    23    1
     6    23    19    1
     7    19    20    2
     8    19    21   am
     9    21    22    1
    10    21     1    1
    11     1    37    1
    12    37    38    1
    13    38    39    1
    14    39    40    1
    15    40    41    1
    16    41    42    1
    17     1     2    1
    18     2     3   ar
    19     3     4   ar
    20     4     5   ar
    21     5     8    1
    22     8     9   ar
    23     9    10   ar
    24    10    11   ar
    25    11    14    1
    26    14    15   am
    27    14    16    2
    28    11    12   ar
    29    12    13   ar
    30     5     6   ar
    31     6     7   ar
    32    24    25    1
    33    25    26   ar
    34    26    27   ar
    35    27    28   ar
    36    28    29    1
    37    28    30   ar
    38    30    31    1
    39    30    32   ar
    40    42    38    1
    41     7     2   ar
    42    32    25   ar
    43    13     8   ar
    44    15    17    1
    45    15    18    1
@<TRIPOS>MOLECULE
*****
 42 45 0 0 0
SMALL
GASTEIGER

@<TRIPOS>ATOM
      1 C           0.3256    3.3745   26.0294 C.3     1  UNL1        0.1139
      2 C           0.9158    2.3747   25.0796 C.ar    1  UNL1       -0.0029
      3 C           0.2172    2.0626   23.7896 C.ar    1  UNL1       -0.0026
      4 C           0.8074    1.0628   22.8398 C.ar    1  UNL1       -0.0003
      5 C           2.0964    0.3753   23.1802 C.ar    1  UNL1       -0.0000
      6 C           2.7951    0.6875   24.4702 C.ar    1  UNL1       -0.0003
      7 C           2.2048    1.6872   25.4200 C.ar    1  UNL1       -0.0026
      8 C           2.6867   -0.6245   22.2303 C.ar    1  UNL1        0.0000
      9 C           2.2366   -0.6566   20.7999 C.ar    1  UNL1        0.0001
     10 C           2.8269   -1.6564   19.8501 C.ar    1  UNL1        0.0045
     11 C           3.8673   -2.6241   20.3308 C.ar    1  UNL1        0.0531
     12 C           4.3174   -2.5919   21.7614 C.ar    1  UNL1        0.0045
     13 C           3.7271   -1.5922   22.7111 C.ar    1  UNL1        0.0001
     14 C           4.4576   -3.6238   19.3811 C.2     1  UNL1        0.2427
     15 N           4.8964   -3.1909   18.0137 N.am    1  UNL1       -0.3253
     16 O           4.6089   -5.0565   19.7988 O.2     1  UNL1       -0.2704
     17 H           4.7971   -2.2505   17.7395 H       1  UNL1        0.1453
     18 H           5.2839   -3.8470   17.3903 H       1  UNL1        0.1453
     19 C           0.2106    2.2030   28.3456 C.2     1  UNL1        0.2461
     20 O          -0.6336    1.1140   27.7528 O.2     1  UNL1       -0.2730
     21 N           0.6902    3.3333   27.4839 N.am    1  UNL1       -0.2729
     22 C           1.5344    4.4223   28.0766 C.3     1  UNL1        0.1152
     23 C           0.5752    2.1618   29.8000 C.3     1  UNL1        0.1773
     24 N           1.8123    1.4383   30.2429 N.pl3   1  UNL1       -0.2973
     25 C           2.7092    0.7953   29.2270 C.ar    1  UNL1        0.0492
     26 C           2.3888   -0.5731   28.7028 C.ar    1  UNL1        0.0154
     27 C           3.2857   -1.2161   27.6870 C.ar    1  UNL1        0.0135
     28 C           4.5031   -0.4908   27.1953 C.ar    1  UNL1        0.0683
     29 CL          5.4001   -1.1338   26.1794 Cl      1  UNL1       -0.0814
     30 C           4.8236    0.8776   27.7194 C.ar    1  UNL1        0.0694
     31 CL          6.0410    1.6030   27.2277 Cl      1  UNL1       -0.0813
     32 C           3.9266    1.5207   28.7353 C.ar    1  UNL1        0.0268
     33 C           2.1524    1.3578   31.7016 C.3     1  UNL1        0.1234
     34 C           1.5413    2.3278   32.6688 C.3     1  UNL1        0.1636
     35 C           3.2114    2.2153   34.6559 C.3     1  UNL1        0.1742
     36 O           1.8035    2.1868   34.1390 O.3     1  UNL1       -0.3493
     37 C          -0.6293    4.4155   25.5248 C.3     1  UNL1        0.0967
     38 N          -2.1026    4.2581   25.7586 N.3     1  UNL1       -0.2710
     39 C          -3.0868    3.6500   24.8038 C.3     1  UNL1        0.0722
     40 C          -4.4429    3.6973   25.4433 C.3     1  UNL1        0.0188
     41 C          -4.2967    4.3345   26.7934 C.3     1  UNL1        0.0188
     42 C          -2.8504    4.6811   26.9882 C.3     1  UNL1        0.0722
@<TRIPOS>BOND
     1    35    36    1
     2    36    34    1
     3    34    33    1
     4    33    24    1
     5    24    23    1
     6    23    19    1
     7    19    20    2
     8    19    21   am
     9    21    22    1
    10    21     1    1
    11     1    37    1
    12    37    38    1
    13    38    39    1
    14    39    40    1
    15    40    41    1
    16    41    42    1
    17     1     2    1
    18     2     3   ar
    19     3     4   ar
    20     4     5   ar
    21     5     8    1
    22     8     9   ar
    23     9    10   ar
    24    10    11   ar
    25    11    14    1
    26    14    15   am
    27    14    16    2
    28    11    12   ar
    29    12    13   ar
    30     5     6   ar
    31     6     7   ar
    32    24    25    1
    33    25    26   ar
    34    26    27   ar
    35    27    28   ar
    36    28    29    1
    37    28    30   ar
    38    30    31    1
    39    30    32   ar
    40    42    38    1
    41     7     2   ar
    42    32    25   ar
    43    13     8   ar
    44    15    17    1
    45    15    18    1
