@<TRIPOS>MOLECULE
*****
 45 50 0 0 0
SMALL
GASTEIGER

@<TRIPOS>ATOM
      1 N           1.3572    1.8764   29.9620 N.am    1  UNL1       -0.1907
      2 C           2.3628    0.7717   30.0977 C.2     1  UNL1        0.3219
      3 O           2.7506   -0.2041   29.0266 O.2     1  UNL1       -0.2512
      4 N           2.9127    0.8141   31.4927 N.am    1  UNL1       -0.2222
      5 C           2.2468    1.9450   32.2192 C.3     1  UNL1        0.1391
      6 C           1.5016    3.1035   32.8130 C.3     1  UNL1        0.0449
      7 C           1.7530    3.5070   34.2357 C.3     1  UNL1        0.0746
      8 N           2.7496    2.7521   35.0645 N.3     1  UNL1       -0.2676
      9 C           3.4948    1.5937   34.4707 C.3     1  UNL1        0.0746
     10 C           3.2434    1.1901   33.0480 C.3     1  UNL1        0.0449
     11 C           1.2855    2.6015   31.2732 C.2     1  UNL1        0.2529
     12 O           0.4067    3.7768   31.5838 O.2     1  UNL1       -0.2724
     13 C          -1.0262    2.8448   26.2700 C.ar    1  UNL1        0.0001
     14 C          -0.9841    1.4376   26.7878 C.ar    1  UNL1        0.0013
     15 C          -0.1896    1.1148   28.0185 C.ar    1  UNL1        0.0154
     16 C           0.5627    2.1992   28.7314 C.ar    1  UNL1        0.0622
     17 C           0.5206    3.6063   28.2136 C.ar    1  UNL1        0.0154
     18 C          -0.2739    3.9291   26.9829 C.ar    1  UNL1        0.0013
     19 C          -3.4096    3.8133   22.5779 C.ar    1  UNL1        0.0534
     20 C          -4.1004    3.6777   23.9025 C.ar    1  UNL1        0.0045
     21 C          -3.3060    3.3549   25.1331 C.ar    1  UNL1        0.0001
     22 C          -1.8206    3.1676   25.0393 C.ar    1  UNL1        0.0000
     23 C          -1.1298    3.3032   23.7148 C.ar    1  UNL1        0.0001
     24 C          -1.9242    3.6260   22.4840 C.ar    1  UNL1        0.0045
     25 C          -5.5471    3.3518   19.2661 C.3     1  UNL1        0.1109
     26 N          -4.7527    3.0289   20.4968 N.am    1  UNL1       -0.2992
     27 C          -4.2040    4.1361   21.3472 C.2     1  UNL1        0.2459
     28 O          -4.4498    5.5661   20.9669 O.2     1  UNL1       -0.2701
     29 H          -4.5914    2.0904   20.7464 H       1  UNL1        0.1498
     30 C           3.9467   -0.1117   32.0614 C.ar    1  UNL1        0.1453
     31 C           5.4020    0.2386   31.9640 C.ar    1  UNL1        0.0924
     32 C           6.4360   -0.6873   32.5327 C.ar    1  UNL1        0.2293
     33 N           6.0149   -1.9636   33.1988 N.ar    1  UNL1       -0.1892
     34 C           4.5596   -2.3140   33.2962 C.ar    1  UNL1        0.2027
     35 N           3.5256   -1.3881   32.7275 N.ar    1  UNL1       -0.2084
     36 O           7.8912   -0.3369   32.4354 O.3     1  UNL1       -0.4560
     37 C           8.8853   -1.0029   33.3400 C.3     1  UNL1        0.2542
     38 C           3.0009    3.1557   36.4872 C.3     1  UNL1        0.1183
     39 C           2.2415    2.4953   37.5994 C.ar    1  UNL1        0.0712
     40 N           0.9644    3.1028   38.0996 N.ar    1  UNL1       -0.2471
     41 C           0.2050    2.4424   39.2119 C.ar    1  UNL1        0.0985
     42 C           0.7226    1.1746   39.8240 C.ar    1  UNL1        0.0203
     43 C           1.9996    0.5671   39.3239 C.ar    1  UNL1       -0.0015
     44 C           2.7590    1.2275   38.2116 C.ar    1  UNL1       -0.0069
     45 C           4.0361    0.6200   37.7114 C.3     1  UNL1        0.0323
@<TRIPOS>BOND
     1    25    26    1
     2    26    27   am
     3    27    28    2
     4    27    19    1
     5    19    20   ar
     6    20    21   ar
     7    21    22   ar
     8    22    13    1
     9    13    14   ar
    10    14    15   ar
    11    15    16   ar
    12    16     1    1
    13     1     2   am
    14     2     3    2
    15     2     4   am
    16     4    30    1
    17    30    31   ar
    18    31    32   ar
    19    32    36    1
    20    36    37    1
    21    32    33   ar
    22    33    34   ar
    23    34    35   ar
    24     4     5    1
    25     5     6    1
    26     6     7    1
    27     7     8    1
    28     8    38    1
    29    38    39    1
    30    39    40   ar
    31    40    41   ar
    32    41    42   ar
    33    42    43   ar
    34    43    44   ar
    35    44    45    1
    36     8     9    1
    37     9    10    1
    38     5    11    1
    39    11    12    2
    40    16    17   ar
    41    17    18   ar
    42    22    23   ar
    43    23    24   ar
    44    24    19   ar
    45    18    13   ar
    46    11     1   am
    47    35    30   ar
    48    10     5    1
    49    44    39   ar
    50    26    29    1
@<TRIPOS>MOLECULE
*****
 45 50 0 0 0
SMALL
GASTEIGER

@<TRIPOS>ATOM
      1 N           2.4157    0.9665   30.5064 N.am    1  UNL1       -0.1907
      2 C           3.5724    0.0585   30.2103 C.2     1  UNL1        0.3219
      3 O           3.9140   -0.5264   28.8720 O.2     1  UNL1       -0.2512
      4 N           4.3275   -0.1619   31.4875 N.am    1  UNL1       -0.2222
      5 C           3.6375    0.6100   32.5731 C.3     1  UNL1        0.1391
      6 C           2.8449    1.4279   33.5491 C.3     1  UNL1        0.0449
      7 C           3.2630    1.4912   34.9882 C.3     1  UNL1        0.0746
      8 N           4.4738    0.7366   35.4513 N.3     1  UNL1       -0.2676
      9 C           5.2665   -0.0814   34.4753 C.3     1  UNL1        0.0746
     10 C           4.8483   -0.1447   33.0362 C.3     1  UNL1        0.0449
     11 C           2.4559    1.3073   31.9667 C.2     1  UNL1        0.2529
     12 O           1.4851    2.1904   32.6931 O.2     1  UNL1       -0.2724
     13 C          -0.6388    2.4138   27.5357 C.ar    1  UNL1        0.0001
     14 C           0.2661    3.3954   28.2197 C.ar    1  UNL1        0.0013
     15 C           1.2842    2.9129   29.2099 C.ar    1  UNL1        0.0154
     16 C           1.3975    1.4489   29.5162 C.ar    1  UNL1        0.0622
     17 C           0.4927    0.4674   28.8323 C.ar    1  UNL1        0.0154
     18 C          -0.5255    0.9499   27.8421 C.ar    1  UNL1        0.0013
     19 C          -3.6933    3.8611   24.5650 C.ar    1  UNL1        0.0534
     20 C          -3.9821    3.9370   26.0350 C.ar    1  UNL1        0.0045
     21 C          -2.9639    3.4546   27.0253 C.ar    1  UNL1        0.0001
     22 C          -1.6570    2.8962   26.5455 C.ar    1  UNL1        0.0000
     23 C          -1.3682    2.8203   25.0756 C.ar    1  UNL1        0.0001
     24 C          -2.3864    3.3028   24.0852 C.ar    1  UNL1        0.0045
     25 C          -7.1334    4.2996   22.6353 C.3     1  UNL1        0.1109
     26 N          -6.1152    3.8172   23.6255 N.am    1  UNL1       -0.2992
     27 C          -4.7115    4.3436   23.5748 C.2     1  UNL1        0.2459
     28 O          -4.3259    5.3524   22.5338 O.2     1  UNL1       -0.2701
     29 H          -6.3682    3.1551   24.3087 H       1  UNL1        0.1498
     30 C           5.5568   -1.0058   31.6507 C.ar    1  UNL1        0.1453
     31 C           5.4272   -2.4761   31.9179 C.ar    1  UNL1        0.0924
     32 C           6.6565   -3.3199   32.0810 C.ar    1  UNL1        0.2293
     33 N           8.0155   -2.6935   31.9769 N.ar    1  UNL1       -0.1892
     34 C           8.1451   -1.2233   31.7097 C.ar    1  UNL1        0.2027
     35 N           6.9158   -0.3794   31.5466 N.ar    1  UNL1       -0.2084
     36 O           6.5269   -4.7902   32.3482 O.3     1  UNL1       -0.4560
     37 C           7.1060   -5.7819   31.3832 C.3     1  UNL1        0.2542
     38 C           4.8920    0.7999   36.8905 C.3     1  UNL1        0.1183
     39 C           4.6557    2.0496   37.6858 C.ar    1  UNL1        0.0712
     40 N           5.6347    3.1835   37.6094 N.ar    1  UNL1       -0.2471
     41 C           5.3984    4.4332   38.4048 C.ar    1  UNL1        0.0985
     42 C           4.1832    4.5489   39.2765 C.ar    1  UNL1        0.0203
     43 C           3.2043    3.4149   39.3529 C.ar    1  UNL1       -0.0015
     44 C           3.4405    2.1653   38.5576 C.ar    1  UNL1       -0.0069
     45 C           2.4616    1.0313   38.6340 C.3     1  UNL1        0.0323
@<TRIPOS>BOND
     1    25    26    1
     2    26    27   am
     3    27    28    2
     4    27    19    1
     5    19    20   ar
     6    20    21   ar
     7    21    22   ar
     8    22    13    1
     9    13    14   ar
    10    14    15   ar
    11    15    16   ar
    12    16     1    1
    13     1     2   am
    14     2     3    2
    15     2     4   am
    16     4    30    1
    17    30    31   ar
    18    31    32   ar
    19    32    36    1
    20    36    37    1
    21    32    33   ar
    22    33    34   ar
    23    34    35   ar
    24     4     5    1
    25     5     6    1
    26     6     7    1
    27     7     8    1
    28     8    38    1
    29    38    39    1
    30    39    40   ar
    31    40    41   ar
    32    41    42   ar
    33    42    43   ar
    34    43    44   ar
    35    44    45    1
    36     8     9    1
    37     9    10    1
    38     5    11    1
    39    11    12    2
    40    16    17   ar
    41    17    18   ar
    42    22    23   ar
    43    23    24   ar
    44    24    19   ar
    45    18    13   ar
    46    11     1   am
    47    35    30   ar
    48    10     5    1
    49    44    39   ar
    50    26    29    1
@<TRIPOS>MOLECULE
*****
 45 50 0 0 0
SMALL
GASTEIGER

@<TRIPOS>ATOM
      1 N           1.9781    0.7192   28.8311 N.am    1  UNL1       -0.1907
      2 C           2.2073    0.6687   30.3127 C.2     1  UNL1        0.3219
      3 O           1.3338    1.2906   31.3615 O.2     1  UNL1       -0.2512
      4 N           3.4633   -0.1128   30.5611 N.am    1  UNL1       -0.2222
      5 C           4.0105   -0.5454   29.2331 C.3     1  UNL1        0.1391
      6 C           4.4351   -0.9043   27.8400 C.3     1  UNL1        0.0449
      7 C           5.6812   -1.7096   27.6198 C.3     1  UNL1        0.0746
      8 N           6.5028   -2.1560   28.7928 N.3     1  UNL1       -0.2676
      9 C           6.0781   -1.7970   30.1859 C.3     1  UNL1        0.0746
     10 C           4.8320   -0.9917   30.4060 C.3     1  UNL1        0.0449
     11 C           3.0926   -0.0312   28.1639 C.2     1  UNL1        0.2529
     12 O           3.2597   -0.2321   26.6868 O.2     1  UNL1       -0.2724
     13 C          -1.4504    2.7627   26.7529 C.ar    1  UNL1        0.0001
     14 C          -1.7138    1.6183   27.6863 C.ar    1  UNL1        0.0013
     15 C          -0.5710    0.9372   28.3790 C.ar    1  UNL1        0.0154
     16 C           0.8353    1.4004   28.1384 C.ar    1  UNL1        0.0622
     17 C           1.0986    2.5446   27.2050 C.ar    1  UNL1        0.0154
     18 C          -0.0442    3.2258   26.5123 C.ar    1  UNL1        0.0013
     19 C          -4.8790    4.8062   24.6747 C.ar    1  UNL1        0.0534
     20 C          -4.9026    4.6297   26.1642 C.ar    1  UNL1        0.0045
     21 C          -3.7597    3.9485   26.8569 C.ar    1  UNL1        0.0001
     22 C          -2.5933    3.4438   26.0602 C.ar    1  UNL1        0.0000
     23 C          -2.5697    3.6203   24.5708 C.ar    1  UNL1        0.0001
     24 C          -3.7126    4.3015   23.8780 C.ar    1  UNL1        0.0045
     25 C          -8.4439    6.4263   24.0291 C.3     1  UNL1        0.1109
     26 N          -7.3010    5.7452   24.7218 N.am    1  UNL1       -0.2992
     27 C          -6.0219    5.4874   23.9820 C.2     1  UNL1        0.2459
     28 O          -5.8856    5.9107   22.5494 O.2     1  UNL1       -0.2701
     29 H          -7.3905    5.4673   25.6620 H       1  UNL1        0.1498
     30 C           4.0663   -0.4096   31.9020 C.ar    1  UNL1        0.1453
     31 C           4.9998    0.5764   32.5395 C.ar    1  UNL1        0.0924
     32 C           5.6028    0.2795   33.8805 C.ar    1  UNL1        0.2293
     33 N           5.2724   -1.0035   34.5840 N.ar    1  UNL1       -0.1892
     34 C           4.3389   -1.9895   33.9466 C.ar    1  UNL1        0.2027
     35 N           3.7359   -1.6925   32.6056 N.ar    1  UNL1       -0.2084
     36 O           6.5362    1.2655   34.5180 O.3     1  UNL1       -0.4560
     37 C           5.9862    2.4349   35.2797 C.3     1  UNL1        0.2542
     38 C           7.7490   -2.9613   28.5726 C.3     1  UNL1        0.1183
     39 C           7.7374   -4.1137   27.6125 C.ar    1  UNL1        0.0712
     40 N           8.1398   -3.9029   26.1829 N.ar    1  UNL1       -0.2471
     41 C           8.1282   -5.0553   25.2228 C.ar    1  UNL1        0.0985
     42 C           7.7142   -6.4185   25.6922 C.ar    1  UNL1        0.0203
     43 C           7.3119   -6.6293   27.1218 C.ar    1  UNL1       -0.0015
     44 C           7.3235   -5.4769   28.0819 C.ar    1  UNL1       -0.0069
     45 C           6.9211   -5.6877   29.5115 C.3     1  UNL1        0.0323
@<TRIPOS>BOND
     1    25    26    1
     2    26    27   am
     3    27    28    2
     4    27    19    1
     5    19    20   ar
     6    20    21   ar
     7    21    22   ar
     8    22    13    1
     9    13    14   ar
    10    14    15   ar
    11    15    16   ar
    12    16     1    1
    13     1     2   am
    14     2     3    2
    15     2     4   am
    16     4    30    1
    17    30    31   ar
    18    31    32   ar
    19    32    36    1
    20    36    37    1
    21    32    33   ar
    22    33    34   ar
    23    34    35   ar
    24     4     5    1
    25     5     6    1
    26     6     7    1
    27     7     8    1
    28     8    38    1
    29    38    39    1
    30    39    40   ar
    31    40    41   ar
    32    41    42   ar
    33    42    43   ar
    34    43    44   ar
    35    44    45    1
    36     8     9    1
    37     9    10    1
    38     5    11    1
    39    11    12    2
    40    16    17   ar
    41    17    18   ar
    42    22    23   ar
    43    23    24   ar
    44    24    19   ar
    45    18    13   ar
    46    11     1   am
    47    35    30   ar
    48    10     5    1
    49    44    39   ar
    50    26    29    1
@<TRIPOS>MOLECULE
*****
 45 50 0 0 0
SMALL
GASTEIGER

@<TRIPOS>ATOM
      1 N           4.9858   -1.1204   27.9088 N.am    1  UNL1       -0.1907
      2 C           6.1477   -1.9973   27.5467 C.2     1  UNL1        0.3219
      3 O           7.2013   -2.4987   28.4892 O.2     1  UNL1       -0.2512
      4 N           6.0709   -2.2848   26.0765 N.am    1  UNL1       -0.2222
      5 C           4.8616   -1.5856   25.5299 C.3     1  UNL1        0.1391
      6 C           3.6263   -0.8349   25.1294 C.3     1  UNL1        0.0449
      7 C           3.1681   -0.8523   23.7013 C.3     1  UNL1        0.0746
      8 N           3.9452   -1.6204   22.6736 N.3     1  UNL1       -0.2676
      9 C           5.1805   -2.3711   23.0741 C.3     1  UNL1        0.0746
     10 C           5.6387   -2.3537   24.5022 C.3     1  UNL1        0.0449
     11 C           4.1909   -0.8660   26.6623 C.2     1  UNL1        0.2529
     12 O           2.9444   -0.0373   26.5654 O.2     1  UNL1       -0.2724
     13 C           4.0491    0.4680   32.0136 C.ar    1  UNL1        0.0001
     14 C           5.3783    0.7589   31.3821 C.ar    1  UNL1        0.0013
     15 C           5.6905    0.2294   30.0139 C.ar    1  UNL1        0.0154
     16 C           4.6736   -0.5909   29.2771 C.ar    1  UNL1        0.0622
     17 C           3.3445   -0.8818   29.9085 C.ar    1  UNL1        0.0154
     18 C           3.0323   -0.3523   31.2768 C.ar    1  UNL1        0.0013
     19 C           3.1125    2.0564   36.1184 C.ar    1  UNL1        0.0534
     20 C           2.4383    2.6450   34.9146 C.ar    1  UNL1        0.0045
     21 C           2.7505    2.1155   33.5463 C.ar    1  UNL1        0.0001
     22 C           3.7369    0.9975   33.3818 C.ar    1  UNL1        0.0000
     23 C           4.4111    0.4089   34.5856 C.ar    1  UNL1        0.0001
     24 C           4.0989    0.9384   35.9539 C.ar    1  UNL1        0.0045
     25 C           3.4752    3.9966   39.5614 C.3     1  UNL1        0.1109
     26 N           3.7874    3.4672   38.1931 N.am    1  UNL1       -0.2992
     27 C           2.8003    2.5859   37.4867 C.2     1  UNL1        0.2459
     28 O           1.5009    2.2342   38.1485 O.2     1  UNL1       -0.2701
     29 H           4.6402    3.6980   37.7588 H       1  UNL1        0.1498
     30 C           7.0343   -3.1242   25.2908 C.ar    1  UNL1        0.1453
     31 C           6.8859   -4.6167   25.2712 C.ar    1  UNL1        0.0924
     32 C           7.8493   -5.4559   24.4854 C.ar    1  UNL1        0.2293
     33 N           8.9612   -4.8027   23.7191 N.ar    1  UNL1       -0.1892
     34 C           9.1096   -3.3102   23.7387 C.ar    1  UNL1        0.2027
     35 N           8.1462   -2.4710   24.5245 N.ar    1  UNL1       -0.2084
     36 O           7.7009   -6.9484   24.4659 O.3     1  UNL1       -0.4560
     37 C           7.6206   -7.7112   25.7551 C.3     1  UNL1        0.2542
     38 C           3.4870   -1.6377   21.2453 C.3     1  UNL1        0.1183
     39 C           4.4926   -1.7281   20.1361 C.ar    1  UNL1        0.0712
     40 N           5.4132   -0.5758   19.8626 N.ar    1  UNL1       -0.2471
     41 C           6.4189   -0.6662   18.7533 C.ar    1  UNL1        0.0985
     42 C           6.5039   -1.9087   17.9175 C.ar    1  UNL1        0.0203
     43 C           5.5833   -3.0610   18.1909 C.ar    1  UNL1       -0.0015
     44 C           4.5777   -2.9707   19.3001 C.ar    1  UNL1       -0.0069
     45 C           3.6571   -4.1230   19.5736 C.3     1  UNL1        0.0323
@<TRIPOS>BOND
     1    25    26    1
     2    26    27   am
     3    27    28    2
     4    27    19    1
     5    19    20   ar
     6    20    21   ar
     7    21    22   ar
     8    22    13    1
     9    13    14   ar
    10    14    15   ar
    11    15    16   ar
    12    16     1    1
    13     1     2   am
    14     2     3    2
    15     2     4   am
    16     4    30    1
    17    30    31   ar
    18    31    32   ar
    19    32    36    1
    20    36    37    1
    21    32    33   ar
    22    33    34   ar
    23    34    35   ar
    24     4     5    1
    25     5     6    1
    26     6     7    1
    27     7     8    1
    28     8    38    1
    29    38    39    1
    30    39    40   ar
    31    40    41   ar
    32    41    42   ar
    33    42    43   ar
    34    43    44   ar
    35    44    45    1
    36     8     9    1
    37     9    10    1
    38     5    11    1
    39    11    12    2
    40    16    17   ar
    41    17    18   ar
    42    22    23   ar
    43    23    24   ar
    44    24    19   ar
    45    18    13   ar
    46    11     1   am
    47    35    30   ar
    48    10     5    1
    49    44    39   ar
    50    26    29    1
@<TRIPOS>MOLECULE
*****
 45 50 0 0 0
SMALL
GASTEIGER

@<TRIPOS>ATOM
      1 N           3.6802   -0.4663   25.8841 N.am    1  UNL1       -0.1907
      2 C           4.6047   -1.2060   24.9631 C.2     1  UNL1        0.3219
      3 O           5.8279   -1.9725   25.3707 O.2     1  UNL1       -0.2512
      4 N           4.0911   -1.0447   23.5631 N.am    1  UNL1       -0.2222
      5 C           2.8492   -0.2052   23.6187 C.3     1  UNL1        0.1391
      6 C           1.6285    0.6405   23.8298 C.3     1  UNL1        0.0449
      7 C           0.7882    1.0505   22.6569 C.3     1  UNL1        0.0746
      8 N           1.1686    0.6148   21.2729 N.3     1  UNL1       -0.2676
      9 C           2.3894   -0.2308   21.0618 C.3     1  UNL1        0.0746
     10 C           3.2297   -0.6408   22.2347 C.3     1  UNL1        0.0449
     11 C           2.5953    0.1523   25.0532 C.2     1  UNL1        0.2529
     12 O           1.4564    0.9826   25.5666 O.2     1  UNL1       -0.2724
     13 C           4.0896   -0.1569   30.3547 C.ar    1  UNL1        0.0001
     14 C           5.2492    0.1920   29.4694 C.ar    1  UNL1        0.0013
     15 C           5.1127    0.0889   27.9792 C.ar    1  UNL1        0.0154
     16 C           3.8167   -0.3631   27.3743 C.ar    1  UNL1        0.0622
     17 C           2.6572   -0.7120   28.2596 C.ar    1  UNL1        0.0154
     18 C           2.7937   -0.6089   29.7497 C.ar    1  UNL1        0.0013
     19 C           4.4990    0.1525   34.8254 C.ar    1  UNL1        0.0534
     20 C           4.5638   -1.1891   34.1573 C.ar    1  UNL1        0.0045
     21 C           4.4273   -1.2922   32.6671 C.ar    1  UNL1        0.0001
     22 C           4.2261   -0.0538   31.8449 C.ar    1  UNL1        0.0000
     23 C           4.1613    1.2877   32.5129 C.ar    1  UNL1        0.0001
     24 C           4.2978    1.3908   34.0032 C.ar    1  UNL1        0.0045
     25 C           3.7702    1.1453   38.5980 C.3     1  UNL1        0.1109
     26 N           3.6337    1.0422   37.1079 N.am    1  UNL1       -0.2992
     27 C           4.6355    0.2556   36.3156 C.2     1  UNL1        0.2459
     28 O           5.7738   -0.4279   37.0135 O.2     1  UNL1       -0.2701
     29 H           2.8866    1.4908   36.6497 H       1  UNL1        0.1498
     30 C           4.7106   -1.6215   22.3247 C.ar    1  UNL1        0.1453
     31 C           4.3564   -3.0117   21.8866 C.ar    1  UNL1        0.0924
     32 C           4.9760   -3.5884   20.6482 C.ar    1  UNL1        0.2293
     33 N           5.9497   -2.7750   19.8480 N.ar    1  UNL1       -0.1892
     34 C           6.3039   -1.3849   20.2862 C.ar    1  UNL1        0.2027
     35 N           5.6844   -0.8081   21.5245 N.ar    1  UNL1       -0.2084
     36 O           4.6218   -4.9785   20.2100 O.3     1  UNL1       -0.4560
     37 C           4.4237   -5.2784   18.7536 C.3     1  UNL1        0.2542
     38 C           0.3282    1.0249   20.0999 C.3     1  UNL1        0.1183
     39 C          -0.2848    2.3932   20.0584 C.ar    1  UNL1        0.0712
     40 N          -1.6491    2.6218   20.6386 N.ar    1  UNL1       -0.2471
     41 C          -2.2621    3.9902   20.5970 C.ar    1  UNL1        0.0985
     42 C          -1.5109    5.1299   19.9752 C.ar    1  UNL1        0.0203
     43 C          -0.1467    4.9014   19.3950 C.ar    1  UNL1       -0.0015
     44 C           0.4663    3.5330   19.4366 C.ar    1  UNL1       -0.0069
     45 C           1.8305    3.3044   18.8563 C.3     1  UNL1        0.0323
@<TRIPOS>BOND
     1    25    26    1
     2    26    27   am
     3    27    28    2
     4    27    19    1
     5    19    20   ar
     6    20    21   ar
     7    21    22   ar
     8    22    13    1
     9    13    14   ar
    10    14    15   ar
    11    15    16   ar
    12    16     1    1
    13     1     2   am
    14     2     3    2
    15     2     4   am
    16     4    30    1
    17    30    31   ar
    18    31    32   ar
    19    32    36    1
    20    36    37    1
    21    32    33   ar
    22    33    34   ar
    23    34    35   ar
    24     4     5    1
    25     5     6    1
    26     6     7    1
    27     7     8    1
    28     8    38    1
    29    38    39    1
    30    39    40   ar
    31    40    41   ar
    32    41    42   ar
    33    42    43   ar
    34    43    44   ar
    35    44    45    1
    36     8     9    1
    37     9    10    1
    38     5    11    1
    39    11    12    2
    40    16    17   ar
    41    17    18   ar
    42    22    23   ar
    43    23    24   ar
    44    24    19   ar
    45    18    13   ar
    46    11     1   am
    47    35    30   ar
    48    10     5    1
    49    44    39   ar
    50    26    29    1
@<TRIPOS>MOLECULE
*****
 45 50 0 0 0
SMALL
GASTEIGER

@<TRIPOS>ATOM
      1 N           3.0255    0.0704   27.8981 N.am    1  UNL1       -0.1907
      2 C           3.5472    0.0914   29.3043 C.2     1  UNL1        0.3219
      3 O           2.9364    0.8264   30.4604 O.2     1  UNL1       -0.2512
      4 N           4.7870   -0.7516   29.3514 N.am    1  UNL1       -0.2222
      5 C           5.0316   -1.2937   27.9743 C.3     1  UNL1        0.1391
      6 C           5.1468   -1.7585   26.5528 C.3     1  UNL1        0.0449
      7 C           6.2809   -2.6518   26.1455 C.3     1  UNL1        0.0746
      8 N           7.2997   -3.0802   27.1596 N.3     1  UNL1       -0.2676
      9 C           7.1845   -2.6154   28.5811 C.3     1  UNL1        0.0746
     10 C           6.0504   -1.7221   28.9884 C.3     1  UNL1        0.0449
     11 C           3.9429   -0.7857   27.0761 C.2     1  UNL1        0.2529
     12 O           3.7972   -1.0817   25.6128 O.2     1  UNL1       -0.2724
     13 C          -0.6468    2.2013   26.4071 C.ar    1  UNL1        0.0001
     14 C           0.6645    2.3841   25.7022 C.ar    1  UNL1        0.0013
     15 C           1.8886    1.6739   26.1992 C.ar    1  UNL1        0.0154
     16 C           1.8014    0.7807   27.4011 C.ar    1  UNL1        0.0622
     17 C           0.4901    0.5979   28.1060 C.ar    1  UNL1        0.0154
     18 C          -0.7340    1.3081   27.6090 C.ar    1  UNL1        0.0013
     19 C          -4.3192    4.3322   24.9161 C.ar    1  UNL1        0.0534
     20 C          -4.1721    4.0238   26.3768 C.ar    1  UNL1        0.0045
     21 C          -2.9479    3.3135   26.8738 C.ar    1  UNL1        0.0001
     22 C          -1.8709    2.9116   25.9102 C.ar    1  UNL1        0.0000
     23 C          -2.0180    3.2199   24.4496 C.ar    1  UNL1        0.0001
     24 C          -3.2422    3.9302   23.9525 C.ar    1  UNL1        0.0045
     25 C          -8.0773    5.0258   23.8457 C.3     1  UNL1        0.1109
     26 N          -6.8531    4.3155   24.3426 N.am    1  UNL1       -0.2992
     27 C          -5.5433    5.0425   24.4192 C.2     1  UNL1        0.2459
     28 O          -5.4576    6.4798   23.9987 O.2     1  UNL1       -0.2701
     29 H          -6.9094    3.3721   24.6186 H       1  UNL1        0.1498
     30 C           5.6336   -1.0077   30.5628 C.ar    1  UNL1        0.1453
     31 C           6.7298   -0.0510   30.9277 C.ar    1  UNL1        0.0924
     32 C           7.5764   -0.3071   32.1392 C.ar    1  UNL1        0.2293
     33 N           7.3268   -1.5200   32.9859 N.ar    1  UNL1       -0.1892
     34 C           6.2306   -2.4766   32.6210 C.ar    1  UNL1        0.2027
     35 N           5.3841   -2.2205   31.4096 N.ar    1  UNL1       -0.2084
     36 O           8.6726    0.6495   32.5040 O.3     1  UNL1       -0.4560
     37 C           8.3345    2.0298   32.9843 C.3     1  UNL1        0.2542
     38 C           8.4338   -3.9735   26.7522 C.3     1  UNL1        0.1183
     39 C           8.2771   -5.4636   26.8216 C.ar    1  UNL1        0.0712
     40 N           8.4917   -6.1806   28.1216 N.ar    1  UNL1       -0.2471
     41 C           8.3348   -7.6708   28.1909 C.ar    1  UNL1        0.0985
     42 C           7.9635   -8.4440   26.9604 C.ar    1  UNL1        0.0203
     43 C           7.7489   -7.7270   25.6604 C.ar    1  UNL1       -0.0015
     44 C           7.9057   -6.2368   25.5910 C.ar    1  UNL1       -0.0069
     45 C           7.6911   -5.5198   24.2911 C.3     1  UNL1        0.0323
@<TRIPOS>BOND
     1    25    26    1
     2    26    27   am
     3    27    28    2
     4    27    19    1
     5    19    20   ar
     6    20    21   ar
     7    21    22   ar
     8    22    13    1
     9    13    14   ar
    10    14    15   ar
    11    15    16   ar
    12    16     1    1
    13     1     2   am
    14     2     3    2
    15     2     4   am
    16     4    30    1
    17    30    31   ar
    18    31    32   ar
    19    32    36    1
    20    36    37    1
    21    32    33   ar
    22    33    34   ar
    23    34    35   ar
    24     4     5    1
    25     5     6    1
    26     6     7    1
    27     7     8    1
    28     8    38    1
    29    38    39    1
    30    39    40   ar
    31    40    41   ar
    32    41    42   ar
    33    42    43   ar
    34    43    44   ar
    35    44    45    1
    36     8     9    1
    37     9    10    1
    38     5    11    1
    39    11    12    2
    40    16    17   ar
    41    17    18   ar
    42    22    23   ar
    43    23    24   ar
    44    24    19   ar
    45    18    13   ar
    46    11     1   am
    47    35    30   ar
    48    10     5    1
    49    44    39   ar
    50    26    29    1
@<TRIPOS>MOLECULE
*****
 45 50 0 0 0
SMALL
GASTEIGER

@<TRIPOS>ATOM
      1 N           3.1566    0.0756   26.0804 N.am    1  UNL1       -0.1907
      2 C           4.1501   -0.7871   25.3600 C.2     1  UNL1        0.3219
      3 O           5.2942   -1.5266   25.9877 O.2     1  UNL1       -0.2512
      4 N           3.7985   -0.7803   23.9019 N.am    1  UNL1       -0.2222
      5 C           2.5877    0.0865   23.7209 C.3     1  UNL1        0.1391
      6 C           1.3811    0.9773   23.6952 C.3     1  UNL1        0.0449
      7 C           0.6886    1.2646   22.3960 C.3     1  UNL1        0.0746
      8 N           1.2027    0.6612   21.1226 N.3     1  UNL1       -0.2676
      9 C           2.4093   -0.2296   21.1484 C.3     1  UNL1        0.0746
     10 C           3.1018   -0.5169   22.4475 C.3     1  UNL1        0.0449
     11 C           2.1910    0.6155   25.0674 C.2     1  UNL1        0.2529
     12 O           1.0322    1.5248   25.3510 O.2     1  UNL1       -0.2724
     13 C           3.0855    0.8994   30.5038 C.ar    1  UNL1        0.0001
     14 C           2.3972   -0.3156   29.9560 C.ar    1  UNL1        0.0013
     15 C           2.4209   -0.5902   28.4815 C.ar    1  UNL1        0.0154
     16 C           3.1329    0.3502   27.5549 C.ar    1  UNL1        0.0622
     17 C           3.8212    1.5651   28.1026 C.ar    1  UNL1        0.0154
     18 C           3.7975    1.8397   29.5771 C.ar    1  UNL1        0.0013
     19 C           3.0145    1.7231   34.9272 C.ar    1  UNL1        0.0534
     20 C           2.0345    2.4076   34.0209 C.ar    1  UNL1        0.0045
     21 C           2.0582    2.1330   32.5465 C.ar    1  UNL1        0.0001
     22 C           3.0618    1.1740   31.9782 C.ar    1  UNL1        0.0000
     23 C           4.0418    0.4895   32.8844 C.ar    1  UNL1        0.0001
     24 C           4.0181    0.7641   34.3589 C.ar    1  UNL1        0.0045
     25 C           3.9624    1.6061   38.7791 C.3     1  UNL1        0.1109
     26 N           3.9861    1.3315   37.3047 N.am    1  UNL1       -0.2992
     27 C           2.9908    1.9977   36.4016 C.2     1  UNL1        0.2459
     28 O           1.9717    2.9385   36.9730 O.2     1  UNL1       -0.2701
     29 H           4.6549    0.7140   36.9297 H       1  UNL1        0.1498
     30 C           4.5292   -1.5120   22.8153 C.ar    1  UNL1        0.1453
     31 C           4.0478   -2.8586   22.3628 C.ar    1  UNL1        0.0924
     32 C           4.7786   -3.5901   21.2762 C.ar    1  UNL1        0.2293
     33 N           5.9910   -2.9751   20.6421 N.ar    1  UNL1       -0.1892
     34 C           6.4724   -1.6285   21.0946 C.ar    1  UNL1        0.2027
     35 N           5.7416   -0.8970   22.1812 N.ar    1  UNL1       -0.2084
     36 O           4.2971   -4.9367   20.8236 O.3     1  UNL1       -0.4560
     37 C           3.6595   -5.0909   19.4746 C.3     1  UNL1        0.2542
     38 C           0.5102    0.9486   19.8234 C.3     1  UNL1        0.1183
     39 C           0.4346    2.3555   19.3090 C.ar    1  UNL1        0.0712
     40 N          -0.8124    3.1634   19.5147 N.ar    1  UNL1       -0.2471
     41 C          -0.8880    4.5704   19.0003 C.ar    1  UNL1        0.0985
     42 C           0.2834    5.1696   18.2801 C.ar    1  UNL1        0.0203
     43 C           1.5305    4.3618   18.0743 C.ar    1  UNL1       -0.0015
     44 C           1.6061    2.9548   18.5888 C.ar    1  UNL1       -0.0069
     45 C           2.8531    2.1470   18.3830 C.3     1  UNL1        0.0323
@<TRIPOS>BOND
     1    25    26    1
     2    26    27   am
     3    27    28    2
     4    27    19    1
     5    19    20   ar
     6    20    21   ar
     7    21    22   ar
     8    22    13    1
     9    13    14   ar
    10    14    15   ar
    11    15    16   ar
    12    16     1    1
    13     1     2   am
    14     2     3    2
    15     2     4   am
    16     4    30    1
    17    30    31   ar
    18    31    32   ar
    19    32    36    1
    20    36    37    1
    21    32    33   ar
    22    33    34   ar
    23    34    35   ar
    24     4     5    1
    25     5     6    1
    26     6     7    1
    27     7     8    1
    28     8    38    1
    29    38    39    1
    30    39    40   ar
    31    40    41   ar
    32    41    42   ar
    33    42    43   ar
    34    43    44   ar
    35    44    45    1
    36     8     9    1
    37     9    10    1
    38     5    11    1
    39    11    12    2
    40    16    17   ar
    41    17    18   ar
    42    22    23   ar
    43    23    24   ar
    44    24    19   ar
    45    18    13   ar
    46    11     1   am
    47    35    30   ar
    48    10     5    1
    49    44    39   ar
    50    26    29    1
@<TRIPOS>MOLECULE
*****
 45 50 0 0 0
SMALL
GASTEIGER

@<TRIPOS>ATOM
      1 N           1.2032    2.2021   29.7855 N.am    1  UNL1       -0.1907
      2 C           1.4455    3.1585   30.9154 C.2     1  UNL1        0.3219
      3 O           0.9149    4.5579   31.0149 O.2     1  UNL1       -0.2512
      4 N           2.3114    2.4698   31.9281 N.am    1  UNL1       -0.2222
      5 C           2.6044    1.0876   31.4242 C.3     1  UNL1        0.1391
      6 C           2.8105   -0.2582   30.7947 C.3     1  UNL1        0.0449
      7 C           3.6423   -1.2932   31.4925 C.3     1  UNL1        0.0746
      8 N           4.2680   -0.9823   32.8198 N.3     1  UNL1       -0.2676
      9 C           4.0619    0.3634   33.4494 C.3     1  UNL1        0.0746
     10 C           3.2301    1.3984   32.7516 C.3     1  UNL1        0.0449
     11 C           1.9195    0.9221   30.1000 C.2     1  UNL1        0.2529
     12 O           1.9461   -0.3073   29.2411 O.2     1  UNL1       -0.2724
     13 C          -1.2428    3.0275   26.0996 C.ar    1  UNL1        0.0001
     14 C          -1.3844    1.7171   26.8158 C.ar    1  UNL1        0.0013
     15 C          -0.5691    1.4420   28.0445 C.ar    1  UNL1        0.0154
     16 C           0.3879    2.4772   28.5569 C.ar    1  UNL1        0.0622
     17 C           0.5295    3.7875   27.8407 C.ar    1  UNL1        0.0154
     18 C          -0.2859    4.0626   26.6121 C.ar    1  UNL1        0.0013
     19 C          -3.6888    3.8529   22.4137 C.ar    1  UNL1        0.0534
     20 C          -4.3551    3.7821   23.7558 C.ar    1  UNL1        0.0045
     21 C          -3.5398    3.5070   24.9844 C.ar    1  UNL1        0.0001
     22 C          -2.0581    3.3026   24.8710 C.ar    1  UNL1        0.0000
     23 C          -1.3917    3.3734   23.5290 C.ar    1  UNL1        0.0001
     24 C          -2.2071    3.6485   22.3003 C.ar    1  UNL1        0.0045
     25 C          -5.7956    3.2659   19.1021 C.3     1  UNL1        0.1109
     26 N          -4.9803    2.9907   20.3307 N.am    1  UNL1       -0.2992
     27 C          -4.5041    4.1280   21.1851 C.2     1  UNL1        0.2459
     28 O          -4.8432    5.5404   20.8108 O.2     1  UNL1       -0.2701
     29 H          -4.7577    2.0637   20.5764 H       1  UNL1        0.1498
     30 C           2.7989    3.0595   33.2183 C.ar    1  UNL1        0.1453
     31 C           1.9879    2.8992   34.4700 C.ar    1  UNL1        0.0924
     32 C           2.4755    3.4890   35.7601 C.ar    1  UNL1        0.2293
     33 N           3.7739    4.2391   35.7986 N.ar    1  UNL1       -0.1892
     34 C           4.5848    4.3994   34.5470 C.ar    1  UNL1        0.2027
     35 N           4.0973    3.8096   33.2568 N.ar    1  UNL1       -0.2084
     36 O           1.6646    3.3287   37.0118 O.3     1  UNL1       -0.4560
     37 C           2.2498    2.6239   38.1996 C.3     1  UNL1        0.2542
     38 C           5.0998   -2.0174   33.5176 C.3     1  UNL1        0.1183
     39 C           6.2978   -2.6039   32.8317 C.ar    1  UNL1        0.0712
     40 N           6.1746   -3.8977   32.0828 N.ar    1  UNL1       -0.2471
     41 C           7.3728   -4.4843   31.3968 C.ar    1  UNL1        0.0985
     42 C           8.6940   -3.7770   31.4598 C.ar    1  UNL1        0.0203
     43 C           8.8172   -2.4832   32.2087 C.ar    1  UNL1       -0.0015
     44 C           7.6192   -1.8967   32.8946 C.ar    1  UNL1       -0.0069
     45 C           7.7424   -0.6028   33.6435 C.3     1  UNL1        0.0323
@<TRIPOS>BOND
     1    25    26    1
     2    26    27   am
     3    27    28    2
     4    27    19    1
     5    19    20   ar
     6    20    21   ar
     7    21    22   ar
     8    22    13    1
     9    13    14   ar
    10    14    15   ar
    11    15    16   ar
    12    16     1    1
    13     1     2   am
    14     2     3    2
    15     2     4   am
    16     4    30    1
    17    30    31   ar
    18    31    32   ar
    19    32    36    1
    20    36    37    1
    21    32    33   ar
    22    33    34   ar
    23    34    35   ar
    24     4     5    1
    25     5     6    1
    26     6     7    1
    27     7     8    1
    28     8    38    1
    29    38    39    1
    30    39    40   ar
    31    40    41   ar
    32    41    42   ar
    33    42    43   ar
    34    43    44   ar
    35    44    45    1
    36     8     9    1
    37     9    10    1
    38     5    11    1
    39    11    12    2
    40    16    17   ar
    41    17    18   ar
    42    22    23   ar
    43    23    24   ar
    44    24    19   ar
    45    18    13   ar
    46    11     1   am
    47    35    30   ar
    48    10     5    1
    49    44    39   ar
    50    26    29    1
@<TRIPOS>MOLECULE
*****
 45 50 0 0 0
SMALL
GASTEIGER

@<TRIPOS>ATOM
      1 N           4.4532   -1.0058   26.6320 N.am    1  UNL1       -0.1907
      2 C           5.5938   -1.9469   26.8845 C.2     1  UNL1        0.3219
      3 O           6.2873   -2.1593   28.1974 O.2     1  UNL1       -0.2512
      4 N           5.9189   -2.6381   25.5936 N.am    1  UNL1       -0.2222
      5 C           4.9793   -2.1244   24.5432 C.3     1  UNL1        0.1391
      6 C           3.9773   -1.5201   23.6048 C.3     1  UNL1        0.0449
      7 C           3.9486   -1.9412   22.1654 C.3     1  UNL1        0.0746
      8 N           4.9220   -2.9666   21.6645 N.3     1  UNL1       -0.2676
      9 C           5.9241   -3.5710   22.6029 C.3     1  UNL1        0.0746
     10 C           5.9527   -3.1499   24.0422 C.3     1  UNL1        0.0449
     11 C           4.0735   -1.1156   25.1849 C.2     1  UNL1        0.2529
     12 O           2.9800   -0.3508   24.4999 O.2     1  UNL1       -0.2724
     13 C           2.5117    1.6755   29.6800 C.ar    1  UNL1        0.0001
     14 C           2.2765    0.1947   29.7255 C.ar    1  UNL1        0.0013
     15 C           2.9237   -0.6991   28.7095 C.ar    1  UNL1        0.0154
     16 C           3.8061   -0.1121   27.6480 C.ar    1  UNL1        0.0622
     17 C           4.0413    1.3686   27.6025 C.ar    1  UNL1        0.0154
     18 C           3.3941    2.2624   28.6185 C.ar    1  UNL1        0.0013
     19 C           0.5702    4.3568   32.7282 C.ar    1  UNL1        0.0534
     20 C           0.4166    4.6500   31.2651 C.ar    1  UNL1        0.0045
     21 C           1.0638    3.7563   30.2491 C.ar    1  UNL1        0.0001
     22 C           1.8646    2.5693   30.6961 C.ar    1  UNL1        0.0000
     23 C           2.0182    2.2760   32.1591 C.ar    1  UNL1        0.0001
     24 C           1.3710    3.1698   33.1752 C.ar    1  UNL1        0.0045
     25 C           0.0167    6.5195   36.0094 C.3     1  UNL1        0.1109
     26 N           0.6639    5.6257   34.9934 N.am    1  UNL1       -0.2992
     27 C          -0.0769    5.2506   33.7442 C.2     1  UNL1        0.2459
     28 O          -1.4650    5.7693   33.5110 O.2     1  UNL1       -0.2701
     29 H           1.5749    5.2853   35.1464 H       1  UNL1        0.1498
     30 C           6.9947   -3.6632   25.3890 C.ar    1  UNL1        0.1453
     31 C           6.7014   -5.1154   25.6233 C.ar    1  UNL1        0.0924
     32 C           7.7772   -6.1404   25.4187 C.ar    1  UNL1        0.2293
     33 N           9.1465   -5.7132   24.9797 N.ar    1  UNL1       -0.1892
     34 C           9.4399   -4.2610   24.7454 C.ar    1  UNL1        0.2027
     35 N           8.3640   -3.2360   24.9500 N.ar    1  UNL1       -0.2084
     36 O           7.4839   -7.5926   25.6530 O.3     1  UNL1       -0.4560
     37 C           8.1366   -8.3151   26.7941 C.3     1  UNL1        0.2542
     38 C           4.8933   -3.3878   20.2250 C.3     1  UNL1        0.1183
     39 C           4.9638   -2.3547   19.1398 C.ar    1  UNL1        0.0712
     40 N           3.7022   -1.8279   18.5227 N.ar    1  UNL1       -0.2471
     41 C           3.7728   -0.7947   17.4374 C.ar    1  UNL1        0.0985
     42 C           5.1049   -0.2885   16.9693 C.ar    1  UNL1        0.0203
     43 C           6.3665   -0.8153   17.5865 C.ar    1  UNL1       -0.0015
     44 C           6.2960   -1.8484   18.6717 C.ar    1  UNL1       -0.0069
     45 C           7.5576   -2.3752   19.2888 C.3     1  UNL1        0.0323
@<TRIPOS>BOND
     1    25    26    1
     2    26    27   am
     3    27    28    2
     4    27    19    1
     5    19    20   ar
     6    20    21   ar
     7    21    22   ar
     8    22    13    1
     9    13    14   ar
    10    14    15   ar
    11    15    16   ar
    12    16     1    1
    13     1     2   am
    14     2     3    2
    15     2     4   am
    16     4    30    1
    17    30    31   ar
    18    31    32   ar
    19    32    36    1
    20    36    37    1
    21    32    33   ar
    22    33    34   ar
    23    34    35   ar
    24     4     5    1
    25     5     6    1
    26     6     7    1
    27     7     8    1
    28     8    38    1
    29    38    39    1
    30    39    40   ar
    31    40    41   ar
    32    41    42   ar
    33    42    43   ar
    34    43    44   ar
    35    44    45    1
    36     8     9    1
    37     9    10    1
    38     5    11    1
    39    11    12    2
    40    16    17   ar
    41    17    18   ar
    42    22    23   ar
    43    23    24   ar
    44    24    19   ar
    45    18    13   ar
    46    11     1   am
    47    35    30   ar
    48    10     5    1
    49    44    39   ar
    50    26    29    1
