@<TRIPOS>MOLECULE
*****
 27 29 0 0 0
SMALL
GASTEIGER

@<TRIPOS>ATOM
      1 C          -6.5349  -18.2791   22.3052 C.ar    1  UNL1        0.1386
      2 C          -7.4639  -19.3076   21.7316 C.ar    1  UNL1        0.0369
      3 C          -8.9282  -19.2584   22.0536 C.ar    1  UNL1        0.0031
      4 C          -9.4633  -18.1806   22.9491 C.ar    1  UNL1        0.0002
      5 C          -8.5343  -17.1521   23.5228 C.ar    1  UNL1        0.0029
      6 C          -9.0695  -16.0744   24.4183 C.ar    1  UNL1        0.0001
      7 C          -8.1405  -15.0459   24.9919 C.ar    1  UNL1        0.0000
      8 C          -6.6763  -15.0951   24.6700 C.ar    1  UNL1        0.0001
      9 C          -6.1411  -16.1728   23.7744 C.ar    1  UNL1        0.0030
     10 C          -7.0701  -17.2013   23.2008 C.ar    1  UNL1        0.0340
     11 C         -10.9276  -18.1314   23.2710 C.ar    1  UNL1        0.0000
     12 C         -11.8734  -17.4143   22.3540 C.ar    1  UNL1        0.0000
     13 C         -13.3376  -17.3651   22.6759 C.ar    1  UNL1        0.0000
     14 C         -13.8560  -18.0330   23.9149 C.ar    1  UNL1        0.0000
     15 C         -12.9101  -18.7501   24.8321 C.ar    1  UNL1        0.0000
     16 C         -11.4459  -18.7993   24.5102 C.ar    1  UNL1        0.0000
     17 O          -5.0707  -18.3283   21.9833 O.3     1  UNL1       -0.4728
     18 C          -4.4199  -19.6378   21.6491 C.3     1  UNL1        0.2358
     19 C          -3.1673  -19.6638   20.8243 C.3     1  UNL1        0.1697
     20 O          -1.9613  -20.4085   21.3152 O.3     1  UNL1       -0.3793
     21 H          -1.2441  -20.3253   20.6676 H       1  UNL1        0.2106
     22 C          -3.1207  -18.9451   19.5084 C.3     1  UNL1        0.1020
     23 N          -2.6677  -17.5164   19.4499 N.3     1  UNL1       -0.2964
     24 H          -2.3161  -17.3574   18.5056 H       1  UNL1        0.1233
     25 C          -1.9979  -16.2351   21.6085 C.3     1  UNL1        0.0171
     26 C          -1.6105  -17.0255   20.3939 C.3     1  UNL1        0.0541
     27 C          -0.1658  -17.3249   20.1233 C.3     1  UNL1        0.0171
@<TRIPOS>BOND
     1    25    26    1
     2    26    27    1
     3    26    23    1
     4    23    22    1
     5    22    19    1
     6    19    20    1
     7    19    18    1
     8    18    17    1
     9    17     1    1
    10     1     2   ar
    11     2     3   ar
    12     3     4   ar
    13     4    11    1
    14    11    12   ar
    15    12    13   ar
    16    13    14   ar
    17    14    15   ar
    18    15    16   ar
    19     4     5   ar
    20     5     6   ar
    21     6     7   ar
    22     7     8   ar
    23     8     9   ar
    24     9    10   ar
    25    10     1   ar
    26    16    11   ar
    27    10     5   ar
    28    23    24    1
    29    20    21    1
@<TRIPOS>MOLECULE
*****
 27 29 0 0 0
SMALL
GASTEIGER

@<TRIPOS>ATOM
      1 C          -6.7145  -18.1275   21.9620 C.ar    1  UNL1        0.1386
      2 C          -7.0864  -17.4739   23.2598 C.ar    1  UNL1        0.0369
      3 C          -8.5222  -17.4259   23.6911 C.ar    1  UNL1        0.0031
      4 C          -9.5862  -18.0317   22.8246 C.ar    1  UNL1        0.0002
      5 C          -9.2144  -18.6855   21.5267 C.ar    1  UNL1        0.0029
      6 C         -10.2784  -19.2912   20.6602 C.ar    1  UNL1        0.0001
      7 C          -9.9065  -19.9449   19.3624 C.ar    1  UNL1        0.0000
      8 C          -8.4706  -19.9928   18.9311 C.ar    1  UNL1        0.0001
      9 C          -7.4067  -19.3871   19.7976 C.ar    1  UNL1        0.0030
     10 C          -7.7785  -18.7334   21.0954 C.ar    1  UNL1        0.0340
     11 C         -11.0221  -17.9838   23.2559 C.ar    1  UNL1        0.0000
     12 C         -11.9773  -17.0455   22.5799 C.ar    1  UNL1        0.0000
     13 C         -13.4132  -16.9975   23.0112 C.ar    1  UNL1        0.0000
     14 C         -13.8938  -17.8880   24.1184 C.ar    1  UNL1        0.0000
     15 C         -12.9386  -18.8264   24.7945 C.ar    1  UNL1        0.0000
     16 C         -11.5027  -18.8743   24.3632 C.ar    1  UNL1        0.0000
     17 O          -5.2787  -18.1755   21.5307 O.3     1  UNL1       -0.4728
     18 C          -4.4630  -19.4104   21.7748 C.3     1  UNL1        0.2358
     19 C          -3.1918  -19.6329   21.0103 C.3     1  UNL1        0.1697
     20 O          -2.0808  -20.4355   21.6197 O.3     1  UNL1       -0.3793
     21 H          -1.3375  -20.4827   20.9983 H       1  UNL1        0.2106
     22 C          -3.0317  -19.0528   19.6362 C.3     1  UNL1        0.1020
     23 N          -2.6377  -17.6150   19.4705 N.3     1  UNL1       -0.2964
     24 H          -2.2854  -17.5141   18.5186 H       1  UNL1        0.1233
     25 C          -0.1497  -17.1797   20.0787 C.3     1  UNL1        0.0171
     26 C          -1.6094  -17.0095   20.3792 C.3     1  UNL1        0.0541
     27 C          -2.0407  -16.2339   21.5884 C.3     1  UNL1        0.0171
@<TRIPOS>BOND
     1    25    26    1
     2    26    27    1
     3    26    23    1
     4    23    22    1
     5    22    19    1
     6    19    20    1
     7    19    18    1
     8    18    17    1
     9    17     1    1
    10     1     2   ar
    11     2     3   ar
    12     3     4   ar
    13     4    11    1
    14    11    12   ar
    15    12    13   ar
    16    13    14   ar
    17    14    15   ar
    18    15    16   ar
    19     4     5   ar
    20     5     6   ar
    21     6     7   ar
    22     7     8   ar
    23     8     9   ar
    24     9    10   ar
    25    10     1   ar
    26    16    11   ar
    27    10     5   ar
    28    23    24    1
    29    20    21    1
@<TRIPOS>MOLECULE
*****
 27 29 0 0 0
SMALL
GASTEIGER

@<TRIPOS>ATOM
      1 C          -6.3971  -19.1683   21.2192 C.ar    1  UNL1        0.1386
      2 C          -6.5754  -18.3432   22.4591 C.ar    1  UNL1        0.0369
      3 C          -7.9453  -17.8878   22.8665 C.ar    1  UNL1        0.0031
      4 C          -9.1370  -18.2575   22.0340 C.ar    1  UNL1        0.0002
      5 C          -8.9588  -19.0827   20.7941 C.ar    1  UNL1        0.0029
      6 C         -10.1505  -19.4524   19.9616 C.ar    1  UNL1        0.0001
      7 C          -9.9722  -20.2775   18.7217 C.ar    1  UNL1        0.0000
      8 C          -8.6023  -20.7329   18.3143 C.ar    1  UNL1        0.0001
      9 C          -7.4106  -20.3631   19.1468 C.ar    1  UNL1        0.0030
     10 C          -7.5889  -19.5380   20.3867 C.ar    1  UNL1        0.0340
     11 C         -10.5069  -17.8022   22.4414 C.ar    1  UNL1        0.0000
     12 C         -11.3543  -18.6703   23.3235 C.ar    1  UNL1        0.0000
     13 C         -12.7243  -18.2149   23.7309 C.ar    1  UNL1        0.0000
     14 C         -13.2467  -16.8914   23.2562 C.ar    1  UNL1        0.0000
     15 C         -12.3992  -16.0232   22.3741 C.ar    1  UNL1        0.0000
     16 C         -11.0293  -16.4786   21.9667 C.ar    1  UNL1        0.0000
     17 O          -5.0272  -19.6236   20.8119 O.3     1  UNL1       -0.4728
     18 C          -4.4820  -19.2494   19.4655 C.3     1  UNL1        0.2358
     19 C          -3.2922  -18.3415   19.3641 C.3     1  UNL1        0.1697
     20 O          -3.4079  -17.0312   18.6434 O.3     1  UNL1       -0.3793
     21 H          -2.5545  -16.5709   18.6703 H       1  UNL1        0.2106
     22 C          -1.9867  -18.7441   19.9835 C.3     1  UNL1        0.1020
     23 N          -1.8307  -18.7375   21.4754 N.3     1  UNL1       -0.2964
     24 H          -2.2504  -19.6012   21.8191 H       1  UNL1        0.1233
     25 C          -2.1592  -16.1944   21.8933 C.3     1  UNL1        0.0171
     26 C          -2.4161  -17.6192   22.2857 C.3     1  UNL1        0.0541
     27 C          -3.2584  -17.9257   23.4884 C.3     1  UNL1        0.0171
@<TRIPOS>BOND
     1    25    26    1
     2    26    27    1
     3    26    23    1
     4    23    22    1
     5    22    19    1
     6    19    20    1
     7    19    18    1
     8    18    17    1
     9    17     1    1
    10     1     2   ar
    11     2     3   ar
    12     3     4   ar
    13     4    11    1
    14    11    12   ar
    15    12    13   ar
    16    13    14   ar
    17    14    15   ar
    18    15    16   ar
    19     4     5   ar
    20     5     6   ar
    21     6     7   ar
    22     7     8   ar
    23     8     9   ar
    24     9    10   ar
    25    10     1   ar
    26    16    11   ar
    27    10     5   ar
    28    23    24    1
    29    20    21    1
@<TRIPOS>MOLECULE
*****
 27 29 0 0 0
SMALL
GASTEIGER

@<TRIPOS>ATOM
      1 C          -5.7935  -18.0832   22.6742 C.ar    1  UNL1        0.1386
      2 C          -6.4896  -17.0331   23.4882 C.ar    1  UNL1        0.0369
      3 C          -7.9414  -16.7400   23.2505 C.ar    1  UNL1        0.0031
      4 C          -8.6969  -17.4969   22.1988 C.ar    1  UNL1        0.0002
      5 C          -8.0008  -18.5470   21.3847 C.ar    1  UNL1        0.0029
      6 C          -8.7564  -19.3039   20.3330 C.ar    1  UNL1        0.0001
      7 C          -8.0602  -20.3540   19.5190 C.ar    1  UNL1        0.0000
      8 C          -6.6085  -20.6472   19.7567 C.ar    1  UNL1        0.0001
      9 C          -5.8529  -19.8902   20.8084 C.ar    1  UNL1        0.0030
     10 C          -6.5490  -18.8402   21.6224 C.ar    1  UNL1        0.0340
     11 C         -10.1487  -17.2037   21.9611 C.ar    1  UNL1        0.0000
     12 C         -10.5694  -16.4381   20.7418 C.ar    1  UNL1        0.0000
     13 C         -12.0211  -16.1449   20.5041 C.ar    1  UNL1        0.0000
     14 C         -13.0522  -16.6174   21.4857 C.ar    1  UNL1        0.0000
     15 C         -12.6315  -17.3831   22.7051 C.ar    1  UNL1        0.0000
     16 C         -11.1798  -17.6763   22.9428 C.ar    1  UNL1        0.0000
     17 O          -4.3417  -18.3763   22.9119 O.3     1  UNL1       -0.4728
     18 C          -3.4282  -17.2925   23.4025 C.3     1  UNL1        0.2358
     19 C          -3.0825  -16.1403   22.5065 C.3     1  UNL1        0.1697
     20 O          -3.9017  -14.8845   22.5497 O.3     1  UNL1       -0.3793
     21 H          -3.5465  -14.2447   21.9130 H       1  UNL1        0.2106
     22 C          -1.9175  -16.2439   21.5673 C.3     1  UNL1        0.1020
     23 N          -1.2668  -17.5732   21.3232 N.3     1  UNL1       -0.2964
     24 H          -0.3138  -17.3822   21.0138 H       1  UNL1        0.1233
     25 C          -1.9905  -18.1290   18.8907 C.3     1  UNL1        0.0171
     26 C          -1.8611  -18.5282   20.3308 C.3     1  UNL1        0.0541
     27 C          -2.3258  -19.8822   20.7785 C.3     1  UNL1        0.0171
@<TRIPOS>BOND
     1    25    26    1
     2    26    27    1
     3    26    23    1
     4    23    22    1
     5    22    19    1
     6    19    20    1
     7    19    18    1
     8    18    17    1
     9    17     1    1
    10     1     2   ar
    11     2     3   ar
    12     3     4   ar
    13     4    11    1
    14    11    12   ar
    15    12    13   ar
    16    13    14   ar
    17    14    15   ar
    18    15    16   ar
    19     4     5   ar
    20     5     6   ar
    21     6     7   ar
    22     7     8   ar
    23     8     9   ar
    24     9    10   ar
    25    10     1   ar
    26    16    11   ar
    27    10     5   ar
    28    23    24    1
    29    20    21    1
@<TRIPOS>MOLECULE
*****
 27 29 0 0 0
SMALL
GASTEIGER

@<TRIPOS>ATOM
      1 C          -7.0239  -17.0124   22.9065 C.ar    1  UNL1        0.1386
      2 C          -7.7072  -16.3421   24.0614 C.ar    1  UNL1        0.0369
      3 C          -9.1670  -16.5806   24.3101 C.ar    1  UNL1        0.0031
      4 C          -9.9436  -17.4893   23.4040 C.ar    1  UNL1        0.0002
      5 C          -9.2603  -18.1596   22.2490 C.ar    1  UNL1        0.0029
      6 C         -10.0369  -19.0683   21.3429 C.ar    1  UNL1        0.0001
      7 C          -9.3536  -19.7385   20.1880 C.ar    1  UNL1        0.0000
      8 C          -7.8937  -19.5000   19.9392 C.ar    1  UNL1        0.0001
      9 C          -7.1172  -18.5913   20.8454 C.ar    1  UNL1        0.0030
     10 C          -7.8005  -17.9211   22.0003 C.ar    1  UNL1        0.0340
     11 C         -11.4035  -17.7277   23.6527 C.ar    1  UNL1        0.0000
     12 C         -12.4292  -17.1050   22.7527 C.ar    1  UNL1        0.0000
     13 C         -13.8891  -17.3434   23.0015 C.ar    1  UNL1        0.0000
     14 C         -14.3233  -18.2047   24.1503 C.ar    1  UNL1        0.0000
     15 C         -13.2976  -18.8275   25.0504 C.ar    1  UNL1        0.0000
     16 C         -11.8377  -18.5890   24.8016 C.ar    1  UNL1        0.0000
     17 O          -5.5640  -16.7739   22.6577 O.3     1  UNL1       -0.4728
     18 C          -4.6132  -16.6713   23.8133 C.3     1  UNL1        0.2358
     19 C          -3.5147  -17.6802   23.9727 C.3     1  UNL1        0.1697
     20 O          -3.0936  -18.1202   25.3434 O.3     1  UNL1       -0.3793
     21 H          -2.3777  -18.7704   25.2686 H       1  UNL1        0.2106
     22 C          -2.8373  -18.2491   22.7612 C.3     1  UNL1        0.1020
     23 N          -2.9016  -17.5177   21.4532 N.3     1  UNL1       -0.2964
     24 H          -3.8505  -17.1537   21.3657 H       1  UNL1        0.1233
     25 C          -3.6581  -19.0545   19.4998 C.3     1  UNL1        0.0171
     26 C          -2.5950  -18.2393   20.1745 C.3     1  UNL1        0.0541
     27 C          -1.2252  -18.1458   19.5705 C.3     1  UNL1        0.0171
@<TRIPOS>BOND
     1    25    26    1
     2    26    27    1
     3    26    23    1
     4    23    22    1
     5    22    19    1
     6    19    20    1
     7    19    18    1
     8    18    17    1
     9    17     1    1
    10     1     2   ar
    11     2     3   ar
    12     3     4   ar
    13     4    11    1
    14    11    12   ar
    15    12    13   ar
    16    13    14   ar
    17    14    15   ar
    18    15    16   ar
    19     4     5   ar
    20     5     6   ar
    21     6     7   ar
    22     7     8   ar
    23     8     9   ar
    24     9    10   ar
    25    10     1   ar
    26    16    11   ar
    27    10     5   ar
    28    23    24    1
    29    20    21    1
@<TRIPOS>MOLECULE
*****
 27 29 0 0 0
SMALL
GASTEIGER

@<TRIPOS>ATOM
      1 C         -13.1383   -6.5238   16.8414 C.ar    1  UNL1        0.1386
      2 C         -14.0743   -5.5640   16.1685 C.ar    1  UNL1        0.0369
      3 C         -13.8306   -4.0871   16.2642 C.ar    1  UNL1        0.0031
      4 C         -12.6509   -3.5698   17.0327 C.ar    1  UNL1        0.0002
      5 C         -11.7148   -4.5296   17.7056 C.ar    1  UNL1        0.0029
      6 C         -10.5351   -4.0124   18.4742 C.ar    1  UNL1        0.0001
      7 C          -9.5991   -4.9721   19.1470 C.ar    1  UNL1        0.0000
      8 C          -9.8428   -6.4491   19.0513 C.ar    1  UNL1        0.0001
      9 C         -11.0225   -6.9663   18.2828 C.ar    1  UNL1        0.0030
     10 C         -11.9585   -6.0066   17.6100 C.ar    1  UNL1        0.0340
     11 C         -12.4071   -2.0929   17.1284 C.ar    1  UNL1        0.0000
     12 C         -11.5400   -1.4085   16.1137 C.ar    1  UNL1        0.0000
     13 C         -11.2963    0.0684   16.2093 C.ar    1  UNL1        0.0000
     14 C         -11.9197    0.8611   17.3198 C.ar    1  UNL1        0.0000
     15 C         -12.7868    0.1767   18.3346 C.ar    1  UNL1        0.0000
     16 C         -13.0305   -1.3002   18.2389 C.ar    1  UNL1        0.0000
     17 O         -13.3820   -8.0008   16.7457 O.3     1  UNL1       -0.4728
     18 C         -14.7794   -8.5379   16.8392 C.3     1  UNL1        0.2358
     19 C         -15.2507   -9.1856   18.1074 C.3     1  UNL1        0.1697
     20 O         -15.3178  -10.6808   18.2059 O.3     1  UNL1       -0.3793
     21 H         -15.6404  -10.9328   19.0853 H       1  UNL1        0.2106
     22 C         -15.6549   -8.3380   19.2771 C.3     1  UNL1        0.1020
     23 N         -14.8600   -7.1152   19.6275 N.3     1  UNL1       -0.2964
     24 H         -14.5650   -7.2237   20.5979 H       1  UNL1        0.1233
     25 C         -16.8585   -5.6090   18.9295 C.3     1  UNL1        0.0171
     26 C         -15.4851   -5.7564   19.5144 C.3     1  UNL1        0.0541
     27 C         -14.7369   -4.5450   19.9862 C.3     1  UNL1        0.0171
@<TRIPOS>BOND
     1    25    26    1
     2    26    27    1
     3    26    23    1
     4    23    22    1
     5    22    19    1
     6    19    20    1
     7    19    18    1
     8    18    17    1
     9    17     1    1
    10     1     2   ar
    11     2     3   ar
    12     3     4   ar
    13     4    11    1
    14    11    12   ar
    15    12    13   ar
    16    13    14   ar
    17    14    15   ar
    18    15    16   ar
    19     4     5   ar
    20     5     6   ar
    21     6     7   ar
    22     7     8   ar
    23     8     9   ar
    24     9    10   ar
    25    10     1   ar
    26    16    11   ar
    27    10     5   ar
    28    23    24    1
    29    20    21    1
@<TRIPOS>MOLECULE
*****
 27 29 0 0 0
SMALL
GASTEIGER

@<TRIPOS>ATOM
      1 C         -11.7619   -5.3565   17.7420 C.ar    1  UNL1        0.1386
      2 C         -11.5464   -6.6027   18.5483 C.ar    1  UNL1        0.0369
      3 C         -12.7079   -7.4926   18.8786 C.ar    1  UNL1        0.0031
      4 C         -14.0849   -7.1362   18.4025 C.ar    1  UNL1        0.0002
      5 C         -14.3005   -5.8898   17.5960 C.ar    1  UNL1        0.0029
      6 C         -15.6775   -5.5334   17.1199 C.ar    1  UNL1        0.0001
      7 C         -15.8931   -4.2872   16.3135 C.ar    1  UNL1        0.0000
      8 C         -14.7316   -3.3973   15.9833 C.ar    1  UNL1        0.0001
      9 C         -13.3545   -3.7537   16.4594 C.ar    1  UNL1        0.0030
     10 C         -13.1390   -5.0000   17.2658 C.ar    1  UNL1        0.0340
     11 C         -15.2464   -8.0260   18.7328 C.ar    1  UNL1        0.0000
     12 C         -16.2385   -7.6077   19.7771 C.ar    1  UNL1        0.0000
     13 C         -17.4000   -8.4976   20.1074 C.ar    1  UNL1        0.0000
     14 C         -17.5694   -9.8057   19.3933 C.ar    1  UNL1        0.0000
     15 C         -16.5773  -10.2241   18.3489 C.ar    1  UNL1        0.0000
     16 C         -15.4158   -9.3342   18.0186 C.ar    1  UNL1        0.0000
     17 O         -10.6004   -4.4666   17.4117 O.3     1  UNL1       -0.4728
     18 C         -10.1602   -3.4152   18.3866 C.3     1  UNL1        0.2358
     19 C         -10.7869   -2.0528   18.3542 C.3     1  UNL1        0.1697
     20 O         -10.2372   -0.9958   17.4429 O.3     1  UNL1       -0.3793
     21 H         -10.7534   -0.1809   17.5445 H       1  UNL1        0.2106
     22 C         -11.9634   -1.7473   19.2332 C.3     1  UNL1        0.1020
     23 N         -12.6084   -2.8422   20.0302 N.3     1  UNL1       -0.2964
     24 H         -12.2718   -3.7246   19.6447 H       1  UNL1        0.1233
     25 C         -14.9540   -1.8817   19.4597 C.3     1  UNL1        0.0171
     26 C         -14.1037   -2.9410   20.0960 C.3     1  UNL1        0.0541
     27 C         -14.7486   -4.0990   20.7981 C.3     1  UNL1        0.0171
@<TRIPOS>BOND
     1    25    26    1
     2    26    27    1
     3    26    23    1
     4    23    22    1
     5    22    19    1
     6    19    20    1
     7    19    18    1
     8    18    17    1
     9    17     1    1
    10     1     2   ar
    11     2     3   ar
    12     3     4   ar
    13     4    11    1
    14    11    12   ar
    15    12    13   ar
    16    13    14   ar
    17    14    15   ar
    18    15    16   ar
    19     4     5   ar
    20     5     6   ar
    21     6     7   ar
    22     7     8   ar
    23     8     9   ar
    24     9    10   ar
    25    10     1   ar
    26    16    11   ar
    27    10     5   ar
    28    23    24    1
    29    20    21    1
@<TRIPOS>MOLECULE
*****
 27 29 0 0 0
SMALL
GASTEIGER

@<TRIPOS>ATOM
      1 C           2.9811   -0.2133   24.1751 C.ar    1  UNL1        0.1386
      2 C           4.1013   -1.2019   24.3091 C.ar    1  UNL1        0.0369
      3 C           4.4968   -2.0507   23.1373 C.ar    1  UNL1        0.0031
      4 C           3.7721   -1.9109   21.8315 C.ar    1  UNL1        0.0002
      5 C           2.6519   -0.9223   21.6974 C.ar    1  UNL1        0.0029
      6 C           1.9272   -0.7825   20.3916 C.ar    1  UNL1        0.0001
      7 C           0.8071    0.2060   20.2576 C.ar    1  UNL1        0.0000
      8 C           0.4116    1.0548   21.4294 C.ar    1  UNL1        0.0001
      9 C           1.1363    0.9150   22.7352 C.ar    1  UNL1        0.0030
     10 C           2.2564   -0.0735   22.8692 C.ar    1  UNL1        0.0340
     11 C           4.1676   -2.7597   20.6596 C.ar    1  UNL1        0.0000
     12 C           3.7100   -4.1858   20.5782 C.ar    1  UNL1        0.0000
     13 C           4.1055   -5.0346   19.4063 C.ar    1  UNL1        0.0000
     14 C           4.9585   -4.4572   18.3160 C.ar    1  UNL1        0.0000
     15 C           5.4161   -3.0310   18.3974 C.ar    1  UNL1        0.0000
     16 C           5.0206   -2.1822   19.5692 C.ar    1  UNL1        0.0000
     17 O           2.5857    0.6354   25.3470 O.3     1  UNL1       -0.4728
     18 C           3.3537    0.5443   26.6322 C.3     1  UNL1        0.2358
     19 C           2.9576   -0.4607   27.6729 C.3     1  UNL1        0.1697
     20 O           3.1607   -1.9247   27.4174 O.3     1  UNL1       -0.3793
     21 H           2.8542   -2.4325   28.1850 H       1  UNL1        0.2106
     22 C           2.3585   -0.0016   28.9692 C.3     1  UNL1        0.1020
     23 N           1.0042   -0.4941   29.3856 N.3     1  UNL1       -0.2964
     24 H           0.9786   -1.4931   29.1812 H       1  UNL1        0.1233
     25 C          -0.1474    1.4058   28.0389 C.3     1  UNL1        0.0171
     26 C          -0.2304    0.1038   28.7790 C.3     1  UNL1        0.0541
     27 C          -1.5481   -0.6003   28.9126 C.3     1  UNL1        0.0171
@<TRIPOS>BOND
     1    25    26    1
     2    26    27    1
     3    26    23    1
     4    23    22    1
     5    22    19    1
     6    19    20    1
     7    19    18    1
     8    18    17    1
     9    17     1    1
    10     1     2   ar
    11     2     3   ar
    12     3     4   ar
    13     4    11    1
    14    11    12   ar
    15    12    13   ar
    16    13    14   ar
    17    14    15   ar
    18    15    16   ar
    19     4     5   ar
    20     5     6   ar
    21     6     7   ar
    22     7     8   ar
    23     8     9   ar
    24     9    10   ar
    25    10     1   ar
    26    16    11   ar
    27    10     5   ar
    28    23    24    1
    29    20    21    1
@<TRIPOS>MOLECULE
*****
 27 29 0 0 0
SMALL
GASTEIGER

@<TRIPOS>ATOM
      1 C         -13.6204   -4.0389   19.8858 C.ar    1  UNL1        0.1386
      2 C         -15.0934   -3.9993   20.1663 C.ar    1  UNL1        0.0369
      3 C         -15.9498   -5.1888   19.8476 C.ar    1  UNL1        0.0031
      4 C         -15.3333   -6.4179   19.2483 C.ar    1  UNL1        0.0002
      5 C         -13.8602   -6.4575   18.9678 C.ar    1  UNL1        0.0029
      6 C         -13.2437   -7.6867   18.3686 C.ar    1  UNL1        0.0001
      7 C         -11.7707   -7.7263   18.0881 C.ar    1  UNL1        0.0000
      8 C         -10.9142   -6.5368   18.4068 C.ar    1  UNL1        0.0001
      9 C         -11.5308   -5.3077   19.0061 C.ar    1  UNL1        0.0030
     10 C         -13.0038   -5.2680   19.2866 C.ar    1  UNL1        0.0340
     11 C         -16.1897   -7.6074   18.9296 C.ar    1  UNL1        0.0000
     12 C         -16.3261   -8.7216   19.9245 C.ar    1  UNL1        0.0000
     13 C         -17.1825   -9.9111   19.6057 C.ar    1  UNL1        0.0000
     14 C         -17.9026   -9.9864   18.2920 C.ar    1  UNL1        0.0000
     15 C         -17.7663   -8.8721   17.2971 C.ar    1  UNL1        0.0000
     16 C         -16.9098   -7.6826   17.6158 C.ar    1  UNL1        0.0000
     17 O         -12.7639   -2.8494   20.2046 O.3     1  UNL1       -0.4728
     18 C         -12.7351   -1.6746   19.2724 C.3     1  UNL1        0.2358
     19 C         -11.8533   -1.7012   18.0593 C.3     1  UNL1        0.1697
     20 O         -10.3626   -1.7534   18.2167 O.3     1  UNL1       -0.3793
     21 H          -9.9452   -1.7650   17.3411 H       1  UNL1        0.2106
     22 C         -12.4624   -1.6756   16.6887 C.3     1  UNL1        0.1020
     23 N         -13.9267   -1.9498   16.5135 N.3     1  UNL1       -0.2964
     24 H         -14.3960   -1.5838   17.3418 H       1  UNL1        0.1233
     25 C         -13.4354   -4.4452   15.9832 C.3     1  UNL1        0.0171
     26 C         -14.4092   -3.3580   16.3291 C.3     1  UNL1        0.0541
     27 C         -15.8655   -3.6790   16.4908 C.3     1  UNL1        0.0171
@<TRIPOS>BOND
     1    25    26    1
     2    26    27    1
     3    26    23    1
     4    23    22    1
     5    22    19    1
     6    19    20    1
     7    19    18    1
     8    18    17    1
     9    17     1    1
    10     1     2   ar
    11     2     3   ar
    12     3     4   ar
    13     4    11    1
    14    11    12   ar
    15    12    13   ar
    16    13    14   ar
    17    14    15   ar
    18    15    16   ar
    19     4     5   ar
    20     5     6   ar
    21     6     7   ar
    22     7     8   ar
    23     8     9   ar
    24     9    10   ar
    25    10     1   ar
    26    16    11   ar
    27    10     5   ar
    28    23    24    1
    29    20    21    1
