@<TRIPOS>MOLECULE
*****
 26 29 0 0 0
SMALL
GASTEIGER

@<TRIPOS>ATOM
      1 N          -9.9366  -18.2194   19.5801 N.3     1  UNL1       -0.2892
      2 H         -10.5365  -18.3992   18.7750 H       1  UNL1        0.1239
      3 C          -9.2887  -19.5242   19.9374 C.3     1  UNL1        0.1024
      4 C          -5.5263  -19.3519   20.8754 C.ar    1  UNL1        0.0307
      5 C          -6.1323  -19.7670   22.1832 C.ar    1  UNL1        0.0067
      6 C          -7.6155  -19.8821   21.9910 C.ar    1  UNL1        0.0040
      7 C          -7.9261  -19.5381   20.5644 C.ar    1  UNL1        0.0232
      8 S          -6.6349  -19.2104   19.8749 S.2     1  UNL1       -0.0899
      9 C          -2.1698  -18.2484   19.0679 C.ar    1  UNL1        0.0207
     10 C          -1.1505  -18.6535   20.0910 C.ar    1  UNL1        0.0989
     11 N          -1.5898  -19.2914   21.3756 N.ar    1  UNL1       -0.2423
     12 C          -3.0483  -19.5242   21.6370 C.ar    1  UNL1        0.0993
     13 C          -4.0676  -19.1191   20.6139 C.ar    1  UNL1        0.0252
     14 C          -3.6284  -18.4811   19.3294 C.ar    1  UNL1        0.0036
     15 C         -10.7752  -17.4964   20.5921 C.3     1  UNL1        0.1024
     16 C         -10.3069  -17.3859   22.0128 C.ar    1  UNL1        0.0232
     17 C         -10.9254  -18.0621   23.2002 C.ar    1  UNL1        0.0040
     18 C         -10.1386  -17.6738   24.4169 C.ar    1  UNL1        0.0067
     19 C          -9.0338  -16.7575   23.9813 C.ar    1  UNL1        0.0307
     20 S          -9.1378  -16.5796   22.4955 S.2     1  UNL1       -0.0899
     21 C          -8.0054  -16.1295   24.8747 C.ar    1  UNL1        0.0252
     22 C          -8.2008  -16.1338   26.3619 C.ar    1  UNL1        0.0036
     23 C          -7.1725  -15.5058   27.2553 C.ar    1  UNL1        0.0207
     24 C          -5.9488  -14.8733   26.6613 C.ar    1  UNL1        0.0989
     25 N          -5.7535  -14.8690   25.1742 N.ar    1  UNL1       -0.2423
     26 C          -6.7818  -15.4970   24.2808 C.ar    1  UNL1        0.0993
@<TRIPOS>BOND
     1     9    10   ar
     2    10    11   ar
     3    11    12   ar
     4    12    13   ar
     5    13     4    1
     6     4     5   ar
     7     5     6   ar
     8     6     7   ar
     9     7     3    1
    10     3     1    1
    11     1    15    1
    12    15    16    1
    13    16    17   ar
    14    17    18   ar
    15    18    19   ar
    16    19    21    1
    17    21    22   ar
    18    22    23   ar
    19    23    24   ar
    20    24    25   ar
    21    25    26   ar
    22    19    20   ar
    23     7     8   ar
    24    13    14   ar
    25    14     9   ar
    26     8     4   ar
    27    20    16   ar
    28    26    21   ar
    29     1     2    1
@<TRIPOS>MOLECULE
*****
 26 29 0 0 0
SMALL
GASTEIGER

@<TRIPOS>ATOM
      1 N          -9.9468  -18.3072   19.5399 N.3     1  UNL1       -0.2892
      2 H          -9.2021  -17.6836   19.2285 H       1  UNL1        0.1239
      3 C         -10.7705  -17.5378   20.5296 C.3     1  UNL1        0.1024
      4 C          -9.0604  -16.7851   23.9317 C.ar    1  UNL1        0.0307
      5 C         -10.1704  -17.6982   24.3610 C.ar    1  UNL1        0.0067
      6 C         -10.9461  -18.0914   23.1388 C.ar    1  UNL1        0.0040
      7 C         -10.3155  -17.4212   21.9542 C.ar    1  UNL1        0.0232
      8 S          -9.1501  -16.6139   22.4443 S.2     1  UNL1       -0.0899
      9 C          -7.2575  -15.4665   27.2121 C.ar    1  UNL1        0.0207
     10 C          -5.9991  -14.8918   26.6325 C.ar    1  UNL1        0.0989
     11 N          -5.7611  -14.9482   25.1525 N.ar    1  UNL1       -0.2423
     12 C          -6.7815  -15.5793   24.2523 C.ar    1  UNL1        0.0993
     13 C          -8.0399  -16.1540   24.8320 C.ar    1  UNL1        0.0252
     14 C          -8.2779  -16.0976   26.3119 C.ar    1  UNL1        0.0036
     15 C          -9.2920  -19.5935   19.9481 C.3     1  UNL1        0.1024
     16 C          -7.9281  -19.5758   20.5723 C.ar    1  UNL1        0.0232
     17 C          -7.6112  -19.8770   22.0071 C.ar    1  UNL1        0.0040
     18 C          -6.1289  -19.7410   22.1928 C.ar    1  UNL1        0.0067
     19 C          -5.5298  -19.3557   20.8728 C.ar    1  UNL1        0.0307
     20 S          -6.6418  -19.2536   19.8712 S.2     1  UNL1       -0.0899
     21 C          -4.0743  -19.1148   20.6019 C.ar    1  UNL1        0.0252
     22 C          -3.6474  -18.4697   19.3167 C.ar    1  UNL1        0.0036
     23 C          -2.1918  -18.2288   19.0458 C.ar    1  UNL1        0.0207
     24 C          -1.1633  -18.6331   20.0600 C.ar    1  UNL1        0.0989
     25 N          -1.5902  -19.2782   21.3451 N.ar    1  UNL1       -0.2423
     26 C          -3.0457  -19.5190   21.6160 C.ar    1  UNL1        0.0993
@<TRIPOS>BOND
     1     9    10   ar
     2    10    11   ar
     3    11    12   ar
     4    12    13   ar
     5    13     4    1
     6     4     5   ar
     7     5     6   ar
     8     6     7   ar
     9     7     3    1
    10     3     1    1
    11     1    15    1
    12    15    16    1
    13    16    17   ar
    14    17    18   ar
    15    18    19   ar
    16    19    21    1
    17    21    22   ar
    18    22    23   ar
    19    23    24   ar
    20    24    25   ar
    21    25    26   ar
    22    19    20   ar
    23     7     8   ar
    24    13    14   ar
    25    14     9   ar
    26     8     4   ar
    27    20    16   ar
    28    26    21   ar
    29     1     2    1
@<TRIPOS>MOLECULE
*****
 26 29 0 0 0
SMALL
GASTEIGER

@<TRIPOS>ATOM
      1 N         -12.0268  -17.9566   20.7946 N.3     1  UNL1       -0.2892
      2 H         -11.4493  -17.3436   20.2192 H       1  UNL1        0.1239
      3 C         -12.2437  -17.2484   22.0990 C.3     1  UNL1        0.1024
      4 C          -9.3096  -16.8788   24.6129 C.ar    1  UNL1        0.0307
      5 C          -9.9621  -18.1341   25.1116 C.ar    1  UNL1        0.0067
      6 C         -11.1407  -18.4253   24.2306 C.ar    1  UNL1        0.0040
      7 C         -11.2165  -17.3501   23.1874 C.ar    1  UNL1        0.0232
      8 S         -10.0848  -16.3943   23.4237 S.2     1  UNL1       -0.0899
      9 C          -6.7498  -15.4270   27.2755 C.ar    1  UNL1        0.0207
     10 C          -5.6660  -14.9122   26.3754 C.ar    1  UNL1        0.0989
     11 N          -5.7967  -15.0530   24.8877 N.ar    1  UNL1       -0.2423
     12 C          -7.0112  -15.7085   24.3002 C.ar    1  UNL1        0.0993
     13 C          -8.0950  -16.2233   25.2004 C.ar    1  UNL1        0.0252
     14 C          -7.9643  -16.0825   26.6881 C.ar    1  UNL1        0.0036
     15 C         -11.3772  -19.3085   20.7741 C.3     1  UNL1        0.1024
     16 C          -9.9414  -19.4445   20.3620 C.ar    1  UNL1        0.0232
     17 C          -9.4457  -19.7436   18.9783 C.ar    1  UNL1        0.0040
     18 C          -7.9470  -19.7891   19.0224 C.ar    1  UNL1        0.0067
     19 C          -7.5164  -19.5182   20.4335 C.ar    1  UNL1        0.0307
     20 S          -8.7491  -19.3052   21.2614 S.2     1  UNL1       -0.0899
     21 C          -6.1017  -19.4690   20.9296 C.ar    1  UNL1        0.0252
     22 C          -5.0073  -20.1256   20.1415 C.ar    1  UNL1        0.0036
     23 C          -3.5926  -20.0763   20.6376 C.ar    1  UNL1        0.0207
     24 C          -3.2724  -19.3705   21.9219 C.ar    1  UNL1        0.0989
     25 N          -4.3667  -18.7139   22.7100 N.ar    1  UNL1       -0.2423
     26 C          -5.7815  -18.7632   22.2139 C.ar    1  UNL1        0.0993
@<TRIPOS>BOND
     1     9    10   ar
     2    10    11   ar
     3    11    12   ar
     4    12    13   ar
     5    13     4    1
     6     4     5   ar
     7     5     6   ar
     8     6     7   ar
     9     7     3    1
    10     3     1    1
    11     1    15    1
    12    15    16    1
    13    16    17   ar
    14    17    18   ar
    15    18    19   ar
    16    19    21    1
    17    21    22   ar
    18    22    23   ar
    19    23    24   ar
    20    24    25   ar
    21    25    26   ar
    22    19    20   ar
    23     7     8   ar
    24    13    14   ar
    25    14     9   ar
    26     8     4   ar
    27    20    16   ar
    28    26    21   ar
    29     1     2    1
@<TRIPOS>MOLECULE
*****
 26 29 0 0 0
SMALL
GASTEIGER

@<TRIPOS>ATOM
      1 N         -11.8328  -17.7122   20.2997 N.3     1  UNL1       -0.2892
      2 H         -11.2091  -17.4160   19.5489 H       1  UNL1        0.1239
      3 C         -11.7841  -16.6428   21.3504 C.3     1  UNL1        0.1024
      4 C          -8.7117  -15.8594   23.5891 C.ar    1  UNL1        0.0307
      5 C          -8.1957  -15.4597   22.2386 C.ar    1  UNL1        0.0067
      6 C          -9.2838  -15.7045   21.2355 C.ar    1  UNL1        0.0040
      7 C         -10.4723  -16.2555   21.9662 C.ar    1  UNL1        0.0232
      8 S         -10.1187  -16.3512   23.4208 S.2     1  UNL1       -0.0899
      9 C          -7.8470  -16.1384   27.4524 C.ar    1  UNL1        0.0207
     10 C          -6.4379  -15.6244   27.4653 C.ar    1  UNL1        0.0989
     11 N          -5.7867  -15.1886   26.1861 N.ar    1  UNL1       -0.2423
     12 C          -6.5446  -15.2670   24.8941 C.ar    1  UNL1        0.0993
     13 C          -7.9537  -15.7810   24.8812 C.ar    1  UNL1        0.0252
     14 C          -8.6049  -16.2168   26.1603 C.ar    1  UNL1        0.0036
     15 C         -11.4543  -19.1218   20.6462 C.3     1  UNL1        0.1024
     16 C         -10.1353  -19.4045   21.3022 C.ar    1  UNL1        0.0232
     17 C          -9.9330  -19.8447   22.7218 C.ar    1  UNL1        0.0040
     18 C          -8.4596  -20.0090   22.9507 C.ar    1  UNL1        0.0067
     19 C          -7.7514  -19.6703   21.6725 C.ar    1  UNL1        0.0307
     20 S          -8.7871  -19.2967   20.6537 S.2     1  UNL1       -0.0899
     21 C          -6.2680  -19.7000   21.4518 C.ar    1  UNL1        0.0252
     22 C          -5.3662  -18.8554   22.3023 C.ar    1  UNL1        0.0036
     23 C          -3.8828  -18.8851   22.0817 C.ar    1  UNL1        0.0207
     24 C          -3.3013  -19.7595   21.0105 C.ar    1  UNL1        0.0989
     25 N          -4.2031  -20.6040   20.1601 N.ar    1  UNL1       -0.2423
     26 C          -5.6865  -20.5743   20.3807 C.ar    1  UNL1        0.0993
@<TRIPOS>BOND
     1     9    10   ar
     2    10    11   ar
     3    11    12   ar
     4    12    13   ar
     5    13     4    1
     6     4     5   ar
     7     5     6   ar
     8     6     7   ar
     9     7     3    1
    10     3     1    1
    11     1    15    1
    12    15    16    1
    13    16    17   ar
    14    17    18   ar
    15    18    19   ar
    16    19    21    1
    17    21    22   ar
    18    22    23   ar
    19    23    24   ar
    20    24    25   ar
    21    25    26   ar
    22    19    20   ar
    23     7     8   ar
    24    13    14   ar
    25    14     9   ar
    26     8     4   ar
    27    20    16   ar
    28    26    21   ar
    29     1     2    1
@<TRIPOS>MOLECULE
*****
 26 29 0 0 0
SMALL
GASTEIGER

@<TRIPOS>ATOM
      1 N          -1.6027  -19.1028   20.5133 N.3     1  UNL1       -0.2892
      2 H          -0.8457  -18.4870   20.2163 H       1  UNL1        0.1239
      3 C          -2.7357  -18.8902   19.5537 C.3     1  UNL1        0.1024
      4 C          -6.4599  -19.7414   20.2402 C.ar    1  UNL1        0.0307
      5 C          -5.8364  -21.1047   20.2935 C.ar    1  UNL1        0.0067
      6 C          -4.3654  -20.9518   20.0428 C.ar    1  UNL1        0.0040
      7 C          -4.0798  -19.4939   19.8346 C.ar    1  UNL1        0.0232
      8 S          -5.3743  -18.7460   19.9565 S.2     1  UNL1       -0.0899
      9 C         -10.3431  -19.3552   19.5178 C.ar    1  UNL1        0.0207
     10 C         -10.8215  -18.8030   20.8278 C.ar    1  UNL1        0.0989
     11 N          -9.8461  -18.5636   21.9419 N.ar    1  UNL1       -0.2423
     12 C          -8.3923  -18.8764   21.7461 C.ar    1  UNL1        0.0993
     13 C          -7.9138  -19.4286   20.4361 C.ar    1  UNL1        0.0252
     14 C          -8.8892  -19.6680   19.3219 C.ar    1  UNL1        0.0036
     15 C          -1.8066  -18.8620   21.9798 C.3     1  UNL1        0.1024
     16 C          -2.6677  -17.7234   22.4402 C.ar    1  UNL1        0.0232
     17 C          -2.5403  -16.2918   22.0109 C.ar    1  UNL1        0.0040
     18 C          -3.6014  -15.5001   22.7162 C.ar    1  UNL1        0.0067
     19 C          -4.3846  -16.4424   23.5814 C.ar    1  UNL1        0.0307
     20 S          -3.8076  -17.8165   23.4108 S.2     1  UNL1       -0.0899
     21 C          -5.5417  -16.0752   24.4624 C.ar    1  UNL1        0.0252
     22 C          -5.3138  -15.7790   25.9151 C.ar    1  UNL1        0.0036
     23 C          -6.4709  -15.4118   26.7962 C.ar    1  UNL1        0.0207
     24 C          -7.8559  -15.3408   26.2245 C.ar    1  UNL1        0.0989
     25 N          -8.0838  -15.6370   24.7718 N.ar    1  UNL1       -0.2423
     26 C          -6.9267  -16.0042   23.8908 C.ar    1  UNL1        0.0993
@<TRIPOS>BOND
     1     9    10   ar
     2    10    11   ar
     3    11    12   ar
     4    12    13   ar
     5    13     4    1
     6     4     5   ar
     7     5     6   ar
     8     6     7   ar
     9     7     3    1
    10     3     1    1
    11     1    15    1
    12    15    16    1
    13    16    17   ar
    14    17    18   ar
    15    18    19   ar
    16    19    21    1
    17    21    22   ar
    18    22    23   ar
    19    23    24   ar
    20    24    25   ar
    21    25    26   ar
    22    19    20   ar
    23     7     8   ar
    24    13    14   ar
    25    14     9   ar
    26     8     4   ar
    27    20    16   ar
    28    26    21   ar
    29     1     2    1
@<TRIPOS>MOLECULE
*****
 26 29 0 0 0
SMALL
GASTEIGER

@<TRIPOS>ATOM
      1 N          -7.4104  -14.7901   25.4029 N.3     1  UNL1       -0.2892
      2 H          -7.3929  -14.8224   24.3836 H       1  UNL1        0.1239
      3 C          -5.9927  -14.9510   25.8657 C.3     1  UNL1        0.1024
      4 C          -3.8446  -17.1482   23.4942 C.ar    1  UNL1        0.0307
      5 C          -3.5682  -17.7955   24.8188 C.ar    1  UNL1        0.0067
      6 C          -4.3392  -17.0513   25.8684 C.ar    1  UNL1        0.0040
      7 C          -5.0921  -15.9439   25.1925 C.ar    1  UNL1        0.0232
      8 S          -4.7864  -16.0038   23.7252 S.2     1  UNL1       -0.0899
      9 C          -3.2194  -19.2364   20.1778 C.ar    1  UNL1        0.0207
     10 C          -2.1464  -18.4166   19.5247 C.ar    1  UNL1        0.0989
     11 N          -1.6395  -17.1740   20.1947 N.ar    1  UNL1       -0.2423
     12 C          -2.2055  -16.7512   21.5179 C.ar    1  UNL1        0.0993
     13 C          -3.2785  -17.5710   22.1710 C.ar    1  UNL1        0.0252
     14 C          -3.7854  -18.8136   21.5010 C.ar    1  UNL1        0.0036
     15 C          -8.4601  -15.7642   25.8491 C.3     1  UNL1        0.1024
     16 C          -8.8746  -16.8867   24.9445 C.ar    1  UNL1        0.0232
     17 C          -9.7022  -18.0749   25.3360 C.ar    1  UNL1        0.0040
     18 C          -9.8732  -18.9407   24.1231 C.ar    1  UNL1        0.0067
     19 C          -9.1513  -18.2876   22.9819 C.ar    1  UNL1        0.0307
     20 S          -8.5341  -17.0182   23.4896 S.2     1  UNL1       -0.0899
     21 C          -9.0622  -18.8119   21.5794 C.ar    1  UNL1        0.0252
     22 C         -10.3065  -19.2352   20.8565 C.ar    1  UNL1        0.0036
     23 C         -10.2174  -19.7595   19.4539 C.ar    1  UNL1        0.0207
     24 C          -8.8839  -19.8603   18.7742 C.ar    1  UNL1        0.0989
     25 N          -7.6397  -19.4370   19.4971 N.ar    1  UNL1       -0.2423
     26 C          -7.7288  -18.9127   20.8997 C.ar    1  UNL1        0.0993
@<TRIPOS>BOND
     1     9    10   ar
     2    10    11   ar
     3    11    12   ar
     4    12    13   ar
     5    13     4    1
     6     4     5   ar
     7     5     6   ar
     8     6     7   ar
     9     7     3    1
    10     3     1    1
    11     1    15    1
    12    15    16    1
    13    16    17   ar
    14    17    18   ar
    15    18    19   ar
    16    19    21    1
    17    21    22   ar
    18    22    23   ar
    19    23    24   ar
    20    24    25   ar
    21    25    26   ar
    22    19    20   ar
    23     7     8   ar
    24    13    14   ar
    25    14     9   ar
    26     8     4   ar
    27    20    16   ar
    28    26    21   ar
    29     1     2    1
@<TRIPOS>MOLECULE
*****
 26 29 0 0 0
SMALL
GASTEIGER

@<TRIPOS>ATOM
      1 N          -7.4155  -14.7968   25.3840 N.3     1  UNL1       -0.2892
      2 H          -7.7269  -13.8740   25.6869 H       1  UNL1        0.1239
      3 C          -8.4554  -15.7763   25.8413 C.3     1  UNL1        0.1024
      4 C          -9.1745  -18.2897   22.9723 C.ar    1  UNL1        0.0307
      5 C          -9.9190  -18.9260   24.1084 C.ar    1  UNL1        0.0067
      6 C          -9.7403  -18.0620   25.3215 C.ar    1  UNL1        0.0040
      7 C          -8.8853  -16.8916   24.9350 C.ar    1  UNL1        0.0232
      8 S          -8.5356  -17.0324   23.4831 S.2     1  UNL1       -0.0899
      9 C         -10.2371  -19.7855   19.4532 C.ar    1  UNL1        0.0207
     10 C          -8.9051  -19.8746   18.7693 C.ar    1  UNL1        0.0989
     11 N          -7.6629  -19.4355   19.4863 N.ar    1  UNL1       -0.2423
     12 C          -7.7527  -18.9072   20.8872 C.ar    1  UNL1        0.0993
     13 C          -9.0847  -18.8180   21.5712 C.ar    1  UNL1        0.0252
     14 C         -10.3269  -19.2572   20.8542 C.ar    1  UNL1        0.0036
     15 C          -5.9939  -14.9452   25.8389 C.3     1  UNL1        0.1024
     16 C          -5.0916  -15.9382   25.1683 C.ar    1  UNL1        0.0232
     17 C          -4.3411  -17.0459   25.8463 C.ar    1  UNL1        0.0040
     18 C          -3.5670  -17.7903   24.7990 C.ar    1  UNL1        0.0067
     19 C          -3.8391  -17.1426   23.4737 C.ar    1  UNL1        0.0307
     20 S          -4.7814  -15.9979   23.7020 S.2     1  UNL1       -0.0899
     21 C          -3.2691  -17.5652   22.1522 C.ar    1  UNL1        0.0252
     22 C          -3.7710  -18.8101   21.4826 C.ar    1  UNL1        0.0036
     23 C          -3.2010  -19.2328   20.1611 C.ar    1  UNL1        0.0207
     24 C          -2.1290  -18.4105   19.5092 C.ar    1  UNL1        0.0989
     25 N          -1.6272  -17.1657   20.1788 N.ar    1  UNL1       -0.2423
     26 C          -2.1972  -16.7430   21.5003 C.ar    1  UNL1        0.0993
@<TRIPOS>BOND
     1     9    10   ar
     2    10    11   ar
     3    11    12   ar
     4    12    13   ar
     5    13     4    1
     6     4     5   ar
     7     5     6   ar
     8     6     7   ar
     9     7     3    1
    10     3     1    1
    11     1    15    1
    12    15    16    1
    13    16    17   ar
    14    17    18   ar
    15    18    19   ar
    16    19    21    1
    17    21    22   ar
    18    22    23   ar
    19    23    24   ar
    20    24    25   ar
    21    25    26   ar
    22    19    20   ar
    23     7     8   ar
    24    13    14   ar
    25    14     9   ar
    26     8     4   ar
    27    20    16   ar
    28    26    21   ar
    29     1     2    1
@<TRIPOS>MOLECULE
*****
 26 29 0 0 0
SMALL
GASTEIGER

@<TRIPOS>ATOM
      1 N         -10.6417   -7.6324   18.8497 N.3     1  UNL1       -0.2892
      2 H         -10.1212   -8.4534   18.5406 H       1  UNL1        0.1239
      3 C         -11.7876   -7.4622   17.8969 C.3     1  UNL1        0.1024
      4 C         -15.5262   -7.6905   18.9151 C.ar    1  UNL1        0.0307
      5 C         -15.1312   -6.3910   19.5517 C.ar    1  UNL1        0.0067
      6 C         -13.6827   -6.1473   19.2478 C.ar    1  UNL1        0.0040
      7 C         -13.1824   -7.2962   18.4233 C.ar    1  UNL1        0.0232
      8 S         -14.3217   -8.2500   18.2177 S.2     1  UNL1       -0.0899
      9 C         -19.1889   -8.6098   20.1355 C.ar    1  UNL1        0.0207
     10 C         -19.6077   -9.5791   19.0702 C.ar    1  UNL1        0.0989
     11 N         -18.6661   -9.9189   17.9531 N.ar    1  UNL1       -0.2423
     12 C         -17.3056   -9.2894   17.9014 C.ar    1  UNL1        0.0993
     13 C         -16.8867   -8.3201   18.9667 C.ar    1  UNL1        0.0252
     14 C         -17.8284   -7.9803   20.0838 C.ar    1  UNL1        0.0036
     15 C          -9.6427   -6.5275   19.0263 C.3     1  UNL1        0.1024
     16 C          -9.8292   -5.2254   18.3053 C.ar    1  UNL1        0.0232
     17 C          -9.1334   -4.8087   17.0435 C.ar    1  UNL1        0.0040
     18 C          -9.6184   -3.4372   16.6780 C.ar    1  UNL1        0.0067
     19 C         -10.6140   -3.0062   17.7138 C.ar    1  UNL1        0.0307
     20 S         -10.7443   -4.1115   18.7196 S.2     1  UNL1       -0.0899
     21 C         -11.3501   -1.6995   17.7395 C.ar    1  UNL1        0.0252
     22 C         -12.6572   -1.5891   18.4672 C.ar    1  UNL1        0.0036
     23 C         -13.3933   -0.2824   18.4928 C.ar    1  UNL1        0.0207
     24 C         -12.8223    0.9139   17.7907 C.ar    1  UNL1        0.0989
     25 N         -11.5153    0.8035   17.0631 N.ar    1  UNL1       -0.2423
     26 C         -10.7792   -0.5032   17.0375 C.ar    1  UNL1        0.0993
@<TRIPOS>BOND
     1     9    10   ar
     2    10    11   ar
     3    11    12   ar
     4    12    13   ar
     5    13     4    1
     6     4     5   ar
     7     5     6   ar
     8     6     7   ar
     9     7     3    1
    10     3     1    1
    11     1    15    1
    12    15    16    1
    13    16    17   ar
    14    17    18   ar
    15    18    19   ar
    16    19    21    1
    17    21    22   ar
    18    22    23   ar
    19    23    24   ar
    20    24    25   ar
    21    25    26   ar
    22    19    20   ar
    23     7     8   ar
    24    13    14   ar
    25    14     9   ar
    26     8     4   ar
    27    20    16   ar
    28    26    21   ar
    29     1     2    1
@<TRIPOS>MOLECULE
*****
 26 29 0 0 0
SMALL
GASTEIGER

@<TRIPOS>ATOM
      1 N          -4.2573  -17.1089   24.4603 N.3     1  UNL1       -0.2892
      2 H          -4.8902  -17.8009   24.8615 H       1  UNL1        0.1239
      3 C          -5.0671  -15.8694   24.2199 C.3     1  UNL1        0.1024
      4 C          -8.9238  -16.2843   24.0826 C.ar    1  UNL1        0.0307
      5 C          -8.7552  -15.5742   25.3931 C.ar    1  UNL1        0.0067
      6 C          -7.2899  -15.3324   25.6041 C.ar    1  UNL1        0.0040
      7 C          -6.5530  -15.8930   24.4239 C.ar    1  UNL1        0.0232
      8 S          -7.5628  -16.4813   23.4836 S.2     1  UNL1       -0.0899
      9 C         -12.2838  -18.3056   23.4701 C.ar    1  UNL1        0.0207
     10 C         -12.8275  -17.5938   22.2670 C.ar    1  UNL1        0.0989
     11 N         -12.0701  -16.4454   21.6691 N.ar    1  UNL1       -0.2423
     12 C         -10.7689  -16.0089   22.2742 C.ar    1  UNL1        0.0993
     13 C         -10.2251  -16.7208   23.4774 C.ar    1  UNL1        0.0252
     14 C         -10.9826  -17.8691   24.0753 C.ar    1  UNL1        0.0036
     15 C          -3.5526  -17.7777   23.3174 C.3     1  UNL1        0.1024
     16 C          -4.3383  -18.5565   22.3044 C.ar    1  UNL1        0.0232
     17 C          -3.7896  -19.5959   21.3724 C.ar    1  UNL1        0.0040
     18 C          -4.9228  -20.1144   20.5375 C.ar    1  UNL1        0.0067
     19 C          -6.1718  -19.3955   20.9535 C.ar    1  UNL1        0.0307
     20 S          -5.8105  -18.4326   22.0455 S.2     1  UNL1       -0.0899
     21 C          -7.5416  -19.6029   20.3785 C.ar    1  UNL1        0.0252
     22 C          -8.7533  -19.1849   21.1576 C.ar    1  UNL1        0.0036
     23 C         -10.1230  -19.3924   20.5826 C.ar    1  UNL1        0.0207
     24 C         -10.2811  -20.0178   19.2283 C.ar    1  UNL1        0.0989
     25 N          -9.0694  -20.4358   18.4492 N.ar    1  UNL1       -0.2423
     26 C          -7.6997  -20.2283   19.0243 C.ar    1  UNL1        0.0993
@<TRIPOS>BOND
     1     9    10   ar
     2    10    11   ar
     3    11    12   ar
     4    12    13   ar
     5    13     4    1
     6     4     5   ar
     7     5     6   ar
     8     6     7   ar
     9     7     3    1
    10     3     1    1
    11     1    15    1
    12    15    16    1
    13    16    17   ar
    14    17    18   ar
    15    18    19   ar
    16    19    21    1
    17    21    22   ar
    18    22    23   ar
    19    23    24   ar
    20    24    25   ar
    21    25    26   ar
    22    19    20   ar
    23     7     8   ar
    24    13    14   ar
    25    14     9   ar
    26     8     4   ar
    27    20    16   ar
    28    26    21   ar
    29     1     2    1
