@<TRIPOS>MOLECULE
*****
 37 40 0 0 0
SMALL
GASTEIGER

@<TRIPOS>ATOM
      1 C          -9.0608  -19.2874   21.1361 C.3     1  UNL1        0.0705
      2 C          -9.4887  -19.8582   19.8166 C.3     1  UNL1        0.0082
      3 C         -10.6908  -19.3013   19.1129 C.3     1  UNL1        0.0005
      4 C         -11.4648  -18.1737   19.7288 C.3     1  UNL1        0.0005
      5 C         -11.0369  -17.6029   21.0483 C.3     1  UNL1        0.0095
      6 C          -9.8350  -18.1597   21.7519 C.3     1  UNL1        0.0840
      7 C          -9.4070  -17.5890   23.0714 C.2     1  UNL1        0.2262
      8 O         -10.0366  -18.0809   24.3410 O.2     1  UNL1       -0.2748
      9 N          -8.3497  -16.5263   23.1214 N.am    1  UNL1       -0.2804
     10 H          -7.9365  -16.2034   22.2882 H       1  UNL1        0.1550
     11 C          -7.9218  -15.9555   24.4410 C.ar    1  UNL1        0.1083
     12 C          -8.8141  -15.6862   25.6162 C.ar    1  UNL1        0.1377
     13 N          -7.9702  -15.1181   26.7185 N.ar    1  UNL1       -0.1651
     14 N          -6.5563  -15.0362   26.2245 N.ar    1  UNL1       -0.2302
     15 C          -5.3790  -14.5263   27.0016 C.3     1  UNL1        0.1553
     16 C          -6.5263  -15.5537   24.8169 C.ar    1  UNL1        0.2147
     17 S          -5.3138  -15.6522   23.9394 S.O2    1  UNL1        0.0748
     18 N          -4.1013  -15.7506   23.0618 N.3     1  UNL1       -0.2021
     19 O          -5.9187  -14.6589   22.9921 O.2     1  UNL1       -0.1517
     20 O          -4.7089  -16.6454   24.8867 O.2     1  UNL1       -0.1517
     21 H          -4.2143  -15.1360   22.2556 H       1  UNL1        0.1443
     22 H          -3.9896  -16.7129   22.7428 H       1  UNL1        0.1443
     23 C          -7.8588  -19.8442   21.8397 C.2     1  UNL1        0.1731
     24 O          -8.0349  -20.7632   23.0120 O.2     1  UNL1       -0.2913
     25 C          -3.7246  -18.7575   20.4337 C.ar    1  UNL1        0.0194
     26 C          -4.8283  -18.9534   19.4371 C.ar    1  UNL1        0.0016
     27 C          -6.2064  -19.3156   19.9058 C.ar    1  UNL1        0.0029
     28 C          -6.4807  -19.4819   21.3711 C.ar    1  UNL1        0.0347
     29 C          -5.3769  -19.2860   22.3677 C.ar    1  UNL1        0.0029
     30 C          -3.9989  -18.9237   21.8990 C.ar    1  UNL1        0.0016
     31 C           1.3973  -17.4739   20.4138 C.3     1  UNL1        0.0515
     32 C           0.0078  -17.8052   19.9560 C.ar    1  UNL1        0.0535
     33 C          -1.1585  -18.1296   20.8416 C.ar    1  UNL1        0.0349
     34 C          -2.3464  -18.3952   19.9651 C.ar    1  UNL1        0.1018
     35 N          -1.9143  -18.2349   18.5377 N.ar    1  UNL1       -0.1730
     36 N          -0.4593  -17.8703   18.5320 N.ar    1  UNL1       -0.2798
     37 H           0.0923  -17.7031   17.7338 H       1  UNL1        0.1886
@<TRIPOS>BOND
     1    31    32    1
     2    32    33   ar
     3    33    34   ar
     4    34    25    1
     5    25    26   ar
     6    26    27   ar
     7    27    28   ar
     8    28    23    1
     9    23    24    2
    10     1    23    1
    11     1     2    1
    12     2     3    1
    13     3     4    1
    14     4     5    1
    15     5     6    1
    16     6     7    1
    17     7     8    2
    18     7     9   am
    19     9    11    1
    20    11    12   ar
    21    12    13   ar
    22    13    14   ar
    23    14    15    1
    24    14    16   ar
    25    16    17    1
    26    17    18    1
    27    17    19    2
    28    17    20    2
    29    28    29   ar
    30    29    30   ar
    31    34    35   ar
    32    35    36   ar
    33    36    32   ar
    34    30    25   ar
    35     6     1    1
    36    16    11   ar
    37     9    10    1
    38    18    21    1
    39    18    22    1
    40    36    37    1
@<TRIPOS>MOLECULE
*****
 37 40 0 0 0
SMALL
GASTEIGER

@<TRIPOS>ATOM
      1 C          -9.5357  -19.0559   21.7049 C.3     1  UNL1        0.0705
      2 C         -10.6500  -19.9010   21.1624 C.3     1  UNL1        0.0082
      3 C         -11.8750  -19.2503   20.5912 C.3     1  UNL1        0.0005
      4 C         -11.9856  -17.7547   20.5624 C.3     1  UNL1        0.0005
      5 C         -10.8713  -16.9097   21.1049 C.3     1  UNL1        0.0095
      6 C          -9.6464  -17.5602   21.6761 C.3     1  UNL1        0.0840
      7 C          -8.5321  -16.7152   22.2185 C.2     1  UNL1        0.2262
      8 O          -7.8971  -15.6664   21.3542 O.2     1  UNL1       -0.2748
      9 N          -8.0528  -16.9189   23.6252 N.am    1  UNL1       -0.2804
     10 H          -8.4695  -17.6072   24.1924 H       1  UNL1        0.1550
     11 C          -6.9384  -16.0738   24.1676 C.ar    1  UNL1        0.1083
     12 C          -5.7471  -15.5856   23.3979 C.ar    1  UNL1        0.1377
     13 N          -4.8922  -14.7787   24.3296 N.ar    1  UNL1       -0.1651
     14 N          -5.5551  -14.7682   25.6751 N.ar    1  UNL1       -0.2302
     15 C          -5.0433  -14.0784   26.9048 C.3     1  UNL1        0.1553
     16 C          -6.8198  -15.5687   25.5750 C.ar    1  UNL1        0.2147
     17 S          -7.7946  -15.8198   26.6870 S.O2    1  UNL1        0.0748
     18 N          -8.7693  -16.0710   27.7992 N.3     1  UNL1       -0.2021
     19 O          -6.7101  -16.4756   27.4895 O.2     1  UNL1       -0.1517
     20 O          -8.8790  -15.1641   25.8846 O.2     1  UNL1       -0.1517
     21 H          -8.2950  -16.5484   28.5657 H       1  UNL1        0.1443
     22 H          -9.5332  -16.6537   27.4566 H       1  UNL1        0.1443
     23 C          -8.3108  -19.7065   22.2761 C.2     1  UNL1        0.1731
     24 O          -8.4364  -20.6657   23.4224 O.2     1  UNL1       -0.2913
     25 C          -4.2593  -18.7808   20.5504 C.ar    1  UNL1        0.0194
     26 C          -5.4313  -18.9953   19.6393 C.ar    1  UNL1        0.0016
     27 C          -6.7818  -19.3039   20.2145 C.ar    1  UNL1        0.0029
     28 C          -6.9602  -19.3979   21.7009 C.ar    1  UNL1        0.0347
     29 C          -5.7882  -19.1834   22.6120 C.ar    1  UNL1        0.0029
     30 C          -4.4377  -18.8748   22.0368 C.ar    1  UNL1        0.0016
     31 C           0.8618  -17.5642   20.1313 C.3     1  UNL1        0.0515
     32 C          -0.5548  -17.9130   19.7827 C.ar    1  UNL1        0.0535
     33 C          -1.6689  -18.1544   20.7575 C.ar    1  UNL1        0.0349
     34 C          -2.9087  -18.4722   19.9753 C.ar    1  UNL1        0.1018
     35 N          -2.5608  -18.4272   18.5169 N.ar    1  UNL1       -0.1730
     36 N          -1.1060  -18.0816   18.3978 N.ar    1  UNL1       -0.2798
     37 H          -0.6015  -17.9828   17.5582 H       1  UNL1        0.1886
@<TRIPOS>BOND
     1    31    32    1
     2    32    33   ar
     3    33    34   ar
     4    34    25    1
     5    25    26   ar
     6    26    27   ar
     7    27    28   ar
     8    28    23    1
     9    23    24    2
    10     1    23    1
    11     1     2    1
    12     2     3    1
    13     3     4    1
    14     4     5    1
    15     5     6    1
    16     6     7    1
    17     7     8    2
    18     7     9   am
    19     9    11    1
    20    11    12   ar
    21    12    13   ar
    22    13    14   ar
    23    14    15    1
    24    14    16   ar
    25    16    17    1
    26    17    18    1
    27    17    19    2
    28    17    20    2
    29    28    29   ar
    30    29    30   ar
    31    34    35   ar
    32    35    36   ar
    33    36    32   ar
    34    30    25   ar
    35     6     1    1
    36    16    11   ar
    37     9    10    1
    38    18    21    1
    39    18    22    1
    40    36    37    1
@<TRIPOS>MOLECULE
*****
 37 40 0 0 0
SMALL
GASTEIGER

@<TRIPOS>ATOM
      1 C           4.4032    1.6510   36.2831 C.3     1  UNL1        0.0705
      2 C           4.7981    1.1308   37.6335 C.3     1  UNL1        0.0082
      3 C           3.8138    1.1581   38.7650 C.3     1  UNL1        0.0005
      4 C           2.4345    1.7055   38.5462 C.3     1  UNL1        0.0005
      5 C           2.0396    2.2257   37.1959 C.3     1  UNL1        0.0095
      6 C           3.0238    2.1985   36.0644 C.3     1  UNL1        0.0840
      7 C           2.6289    2.7187   34.7140 C.2     1  UNL1        0.2262
      8 O           3.0858    4.0769   34.2705 O.2     1  UNL1       -0.2748
      9 N           1.7770    1.8808   33.8073 N.am    1  UNL1       -0.2804
     10 H           1.4771    0.9894   34.0984 H       1  UNL1        0.1550
     11 C           1.3820    2.4010   32.4570 C.ar    1  UNL1        0.1083
     12 C           0.5422    3.6150   32.1909 C.ar    1  UNL1        0.1377
     13 N           0.3987    3.7629   30.7051 N.ar    1  UNL1       -0.1651
     14 N           1.1498    2.6402   30.0529 N.ar    1  UNL1       -0.2302
     15 C           1.2718    2.4012   28.5771 C.3     1  UNL1        0.1553
     16 C           1.7576    1.7986   31.1356 C.ar    1  UNL1        0.2147
     17 S           2.5941    0.5701   30.9325 S.O2    1  UNL1        0.0748
     18 N           3.4306   -0.6583   30.7295 N.3     1  UNL1       -0.2021
     19 O           3.7884    1.2926   31.4818 O.2     1  UNL1       -0.1517
     20 O           1.3998   -0.1523   30.3833 O.2     1  UNL1       -0.1517
     21 H           4.3859   -0.4735   31.0356 H       1  UNL1        0.1443
     22 H           3.4328   -0.9086   29.7407 H       1  UNL1        0.1443
     23 C           5.3875    1.6238   35.1516 C.2     1  UNL1        0.1731
     24 O           6.1365    2.8688   34.7790 O.2     1  UNL1       -0.2913
     25 C           6.0934   -2.1929   32.8748 C.ar    1  UNL1        0.0194
     26 C           7.1498   -1.1284   32.8999 C.ar    1  UNL1        0.0016
     27 C           6.9144    0.1439   33.6589 C.ar    1  UNL1        0.0029
     28 C           5.6227    0.3515   34.3926 C.ar    1  UNL1        0.0347
     29 C           4.5664   -0.7131   34.3675 C.ar    1  UNL1        0.0029
     30 C           4.8017   -1.9853   33.6085 C.ar    1  UNL1        0.0016
     31 C           7.1222   -5.5929   28.9679 C.3     1  UNL1        0.0515
     32 C           6.8016   -5.0280   30.3200 C.ar    1  UNL1        0.0535
     33 C           6.6463   -3.5739   30.6538 C.ar    1  UNL1        0.0349
     34 C           6.3287   -3.4652   32.1158 C.ar    1  UNL1        0.1018
     35 N           6.2876   -4.8522   32.6855 N.ar    1  UNL1       -0.1730
     36 N           6.5799   -5.8181   31.5757 N.ar    1  UNL1       -0.2798
     37 H           6.6193   -6.7984   31.6571 H       1  UNL1        0.1886
@<TRIPOS>BOND
     1    31    32    1
     2    32    33   ar
     3    33    34   ar
     4    34    25    1
     5    25    26   ar
     6    26    27   ar
     7    27    28   ar
     8    28    23    1
     9    23    24    2
    10     1    23    1
    11     1     2    1
    12     2     3    1
    13     3     4    1
    14     4     5    1
    15     5     6    1
    16     6     7    1
    17     7     8    2
    18     7     9   am
    19     9    11    1
    20    11    12   ar
    21    12    13   ar
    22    13    14   ar
    23    14    15    1
    24    14    16   ar
    25    16    17    1
    26    17    18    1
    27    17    19    2
    28    17    20    2
    29    28    29   ar
    30    29    30   ar
    31    34    35   ar
    32    35    36   ar
    33    36    32   ar
    34    30    25   ar
    35     6     1    1
    36    16    11   ar
    37     9    10    1
    38    18    21    1
    39    18    22    1
    40    36    37    1
@<TRIPOS>MOLECULE
*****
 37 40 0 0 0
SMALL
GASTEIGER

@<TRIPOS>ATOM
      1 C          -1.1157    3.8911   18.3934 C.3     1  UNL1        0.0705
      2 C          -1.1546    3.9897   16.8972 C.3     1  UNL1        0.0082
      3 C          -2.4718    4.0871   16.1860 C.3     1  UNL1        0.0005
      4 C          -3.7499    4.0860   16.9710 C.3     1  UNL1        0.0005
      5 C          -3.7109    3.9874   18.4673 C.3     1  UNL1        0.0095
      6 C          -2.3939    3.8900   19.1785 C.3     1  UNL1        0.0840
      7 C          -2.3550    3.7914   20.6747 C.2     1  UNL1        0.2262
      8 O          -1.8227    2.5521   21.3311 O.2     1  UNL1       -0.2748
      9 N          -2.8482    4.9322   21.5146 N.am    1  UNL1       -0.2804
     10 H          -3.1975    5.7456   21.0838 H       1  UNL1        0.1550
     11 C          -2.8093    4.8336   23.0108 C.ar    1  UNL1        0.1083
     12 C          -1.6112    5.0779   23.8797 C.ar    1  UNL1        0.1377
     13 N          -2.0231    4.8687   25.3068 N.ar    1  UNL1       -0.1651
     14 N          -3.4758    4.4951   25.3199 N.ar    1  UNL1       -0.2302
     15 C          -4.2981    4.1958   26.5382 C.3     1  UNL1        0.1553
     16 C          -3.9616    4.4734   23.9010 C.ar    1  UNL1        0.2147
     17 S          -5.3553    4.1485   23.4512 S.O2    1  UNL1        0.0748
     18 N          -6.7489    3.8237   23.0014 N.3     1  UNL1       -0.2021
     19 O          -5.8134    5.5082   23.8888 O.2     1  UNL1       -0.1517
     20 O          -4.8971    2.7890   23.0136 O.2     1  UNL1       -0.1517
     21 H          -7.3585    4.6218   23.1800 H       1  UNL1        0.1443
     22 H          -7.0917    3.0123   23.5156 H       1  UNL1        0.1443
     23 C           0.2014    3.7937   19.1046 C.2     1  UNL1        0.1731
     24 O           0.6747    4.9274   19.9653 O.2     1  UNL1       -0.2913
     25 C           2.7326    0.1002   18.6563 C.ar    1  UNL1        0.0194
     26 C           1.3253   -0.0120   19.1632 C.ar    1  UNL1        0.0016
     27 C           0.4816    1.2191   19.3126 C.ar    1  UNL1        0.0029
     28 C           1.0452    2.5625   18.9552 C.ar    1  UNL1        0.0347
     29 C           2.4524    2.6747   18.4483 C.ar    1  UNL1        0.0029
     30 C           3.2962    1.4436   18.2989 C.ar    1  UNL1        0.0016
     31 C           4.6488   -4.7805   19.2789 C.3     1  UNL1        0.0515
     32 C           4.4572   -3.3744   18.7931 C.ar    1  UNL1        0.0535
     33 C           3.3966   -2.4191   19.2542 C.ar    1  UNL1        0.0349
     34 C           3.5764   -1.1310   18.5069 C.ar    1  UNL1        0.1018
     35 N           4.7482   -1.2901   17.5840 N.ar    1  UNL1       -0.1730
     36 N           5.2925   -2.6766   17.7609 N.ar    1  UNL1       -0.2798
     37 H           6.0628   -3.0612   17.2833 H       1  UNL1        0.1886
@<TRIPOS>BOND
     1    31    32    1
     2    32    33   ar
     3    33    34   ar
     4    34    25    1
     5    25    26   ar
     6    26    27   ar
     7    27    28   ar
     8    28    23    1
     9    23    24    2
    10     1    23    1
    11     1     2    1
    12     2     3    1
    13     3     4    1
    14     4     5    1
    15     5     6    1
    16     6     7    1
    17     7     8    2
    18     7     9   am
    19     9    11    1
    20    11    12   ar
    21    12    13   ar
    22    13    14   ar
    23    14    15    1
    24    14    16   ar
    25    16    17    1
    26    17    18    1
    27    17    19    2
    28    17    20    2
    29    28    29   ar
    30    29    30   ar
    31    34    35   ar
    32    35    36   ar
    33    36    32   ar
    34    30    25   ar
    35     6     1    1
    36    16    11   ar
    37     9    10    1
    38    18    21    1
    39    18    22    1
    40    36    37    1
@<TRIPOS>MOLECULE
*****
 37 40 0 0 0
SMALL
GASTEIGER

@<TRIPOS>ATOM
      1 C         -16.8109   -6.6298   18.6850 C.3     1  UNL1        0.0705
      2 C         -18.1977   -6.8647   19.2062 C.3     1  UNL1        0.0082
      3 C         -18.4733   -8.0340   20.1045 C.3     1  UNL1        0.0005
      4 C         -17.3620   -8.9683   20.4817 C.3     1  UNL1        0.0005
      5 C         -15.9753   -8.7334   19.9605 C.3     1  UNL1        0.0095
      6 C         -15.6997   -7.5642   19.0622 C.3     1  UNL1        0.0840
      7 C         -14.3129   -7.3293   18.5410 C.2     1  UNL1        0.2262
      8 O         -13.9077   -7.8874   17.2089 O.2     1  UNL1       -0.2748
      9 N         -13.3312   -6.5364   19.3519 N.am    1  UNL1       -0.2804
     10 H         -13.5971   -6.1701   20.2262 H       1  UNL1        0.1550
     11 C         -11.9444   -6.3015   18.8307 C.ar    1  UNL1        0.1083
     12 C         -10.7767   -7.2309   18.9813 C.ar    1  UNL1        0.1377
     13 N          -9.5924   -6.5997   18.3111 N.ar    1  UNL1       -0.1651
     14 N         -10.0282   -5.2803   17.7463 N.ar    1  UNL1       -0.2302
     15 C          -9.1625   -4.3146   16.9926 C.3     1  UNL1        0.1553
     16 C         -11.4818   -5.0959   18.0674 C.ar    1  UNL1        0.2147
     17 S         -12.3248   -3.9136   17.6912 S.O2    1  UNL1        0.0748
     18 N         -13.1677   -2.7312   17.3151 N.3     1  UNL1       -0.2021
     19 O         -11.7415   -3.1346   18.8327 O.2     1  UNL1       -0.1517
     20 O         -12.9081   -4.6926   16.5499 O.2     1  UNL1       -0.1517
     21 H         -12.9848   -1.9638   17.9617 H       1  UNL1        0.1443
     22 H         -14.1538   -2.9878   17.3623 H       1  UNL1        0.1443
     23 C         -16.5353   -5.4607   17.7867 C.2     1  UNL1        0.1731
     24 O         -16.2411   -5.6847   16.3330 O.2     1  UNL1       -0.2913
     25 C         -16.5911   -1.2809   19.4529 C.ar    1  UNL1        0.0194
     26 C         -15.7156   -2.3260   20.0784 C.ar    1  UNL1        0.0016
     27 C         -15.6970   -3.7192   19.5230 C.ar    1  UNL1        0.0029
     28 C         -16.5539   -4.0673   18.3421 C.ar    1  UNL1        0.0347
     29 C         -17.4294   -3.0222   17.7166 C.ar    1  UNL1        0.0029
     30 C         -17.4479   -1.6290   18.2720 C.ar    1  UNL1        0.0016
     31 C         -15.6718    3.8776   20.1058 C.3     1  UNL1        0.0515
     32 C         -16.1871    2.4836   20.3084 C.ar    1  UNL1        0.0535
     33 C         -15.8906    1.2988   19.4376 C.ar    1  UNL1        0.0349
     34 C         -16.6097    0.1125   20.0083 C.ar    1  UNL1        0.1018
     35 N         -17.3505    0.5641   21.2318 N.ar    1  UNL1       -0.1730
     36 N         -17.0894    2.0295   21.4173 N.ar    1  UNL1       -0.2798
     37 H         -17.4474    2.5941   22.1400 H       1  UNL1        0.1886
@<TRIPOS>BOND
     1    31    32    1
     2    32    33   ar
     3    33    34   ar
     4    34    25    1
     5    25    26   ar
     6    26    27   ar
     7    27    28   ar
     8    28    23    1
     9    23    24    2
    10     1    23    1
    11     1     2    1
    12     2     3    1
    13     3     4    1
    14     4     5    1
    15     5     6    1
    16     6     7    1
    17     7     8    2
    18     7     9   am
    19     9    11    1
    20    11    12   ar
    21    12    13   ar
    22    13    14   ar
    23    14    15    1
    24    14    16   ar
    25    16    17    1
    26    17    18    1
    27    17    19    2
    28    17    20    2
    29    28    29   ar
    30    29    30   ar
    31    34    35   ar
    32    35    36   ar
    33    36    32   ar
    34    30    25   ar
    35     6     1    1
    36    16    11   ar
    37     9    10    1
    38    18    21    1
    39    18    22    1
    40    36    37    1
@<TRIPOS>MOLECULE
*****
 37 40 0 0 0
SMALL
GASTEIGER

@<TRIPOS>ATOM
      1 C           1.5440    1.0745   26.7261 C.3     1  UNL1        0.0705
      2 C           0.2970    1.7933   26.3037 C.3     1  UNL1        0.0082
      3 C          -0.9651    1.6362   27.0990 C.3     1  UNL1        0.0005
      4 C          -0.9802    0.7604   28.3167 C.3     1  UNL1        0.0005
      5 C           0.2668    0.0417   28.7391 C.3     1  UNL1        0.0095
      6 C           1.5289    0.1987   27.9438 C.3     1  UNL1        0.0840
      7 C           2.7759   -0.5200   28.3662 C.2     1  UNL1        0.2262
      8 O           3.1389   -1.8292   27.7302 O.2     1  UNL1       -0.2748
      9 N           3.6598    0.0703   29.4246 N.am    1  UNL1       -0.2804
     10 H           3.4215    0.9295   29.8419 H       1  UNL1        0.1550
     11 C           4.9068   -0.6485   29.8469 C.ar    1  UNL1        0.1083
     12 C           6.0265   -1.0760   28.9450 C.ar    1  UNL1        0.1377
     13 N           7.0648   -1.7576   29.7861 N.ar    1  UNL1       -0.1651
     14 N           6.5867   -1.7514   31.2078 N.ar    1  UNL1       -0.2302
     15 C           7.3146   -2.3292   32.3853 C.3     1  UNL1        0.1553
     16 C           5.2531   -1.0659   31.2454 C.ar    1  UNL1        0.2147
     17 S           4.4131   -0.8379   32.4671 S.O2    1  UNL1        0.0748
     18 N           3.5731   -0.6100   33.6888 N.3     1  UNL1       -0.2021
     19 O           3.9396   -2.2600   32.4070 O.2     1  UNL1       -0.1517
     20 O           4.8865    0.5840   32.5273 O.2     1  UNL1       -0.1517
     21 H           3.0792   -1.4700   33.9271 H       1  UNL1        0.1443
     22 H           2.8965    0.1303   33.5030 H       1  UNL1        0.1443
     23 C           2.8060    1.2315   25.9308 C.2     1  UNL1        0.1731
     24 O           3.8720    2.1793   26.3950 O.2     1  UNL1       -0.2913
     25 C           3.3945   -1.1407   22.1525 C.ar    1  UNL1        0.0194
     26 C           2.5923    0.1264   22.1251 C.ar    1  UNL1        0.0016
     27 C           2.3962    0.9172   23.3846 C.ar    1  UNL1        0.0029
     28 C           3.0022    0.4407   24.6713 C.ar    1  UNL1        0.0347
     29 C           3.8044   -0.8265   24.6987 C.ar    1  UNL1        0.0029
     30 C           4.0005   -1.6172   23.4392 C.ar    1  UNL1        0.0016
     31 C           4.6476   -5.0309   18.8092 C.3     1  UNL1        0.0515
     32 C           4.1667   -3.7197   19.3563 C.ar    1  UNL1        0.0535
     33 C           4.1495   -3.3206   20.8021 C.ar    1  UNL1        0.0349
     34 C           3.5906   -1.9315   20.8930 C.ar    1  UNL1        0.1018
     35 N           3.2624   -1.4722   19.5033 N.ar    1  UNL1       -0.1730
     36 N           3.6184   -2.5773   18.5536 N.ar    1  UNL1       -0.2798
     37 H           3.5110   -2.5564   17.5752 H       1  UNL1        0.1886
@<TRIPOS>BOND
     1    31    32    1
     2    32    33   ar
     3    33    34   ar
     4    34    25    1
     5    25    26   ar
     6    26    27   ar
     7    27    28   ar
     8    28    23    1
     9    23    24    2
    10     1    23    1
    11     1     2    1
    12     2     3    1
    13     3     4    1
    14     4     5    1
    15     5     6    1
    16     6     7    1
    17     7     8    2
    18     7     9   am
    19     9    11    1
    20    11    12   ar
    21    12    13   ar
    22    13    14   ar
    23    14    15    1
    24    14    16   ar
    25    16    17    1
    26    17    18    1
    27    17    19    2
    28    17    20    2
    29    28    29   ar
    30    29    30   ar
    31    34    35   ar
    32    35    36   ar
    33    36    32   ar
    34    30    25   ar
    35     6     1    1
    36    16    11   ar
    37     9    10    1
    38    18    21    1
    39    18    22    1
    40    36    37    1
@<TRIPOS>MOLECULE
*****
 37 40 0 0 0
SMALL
GASTEIGER

@<TRIPOS>ATOM
      1 C           8.0881   -5.0795   24.8330 C.3     1  UNL1        0.0705
      2 C           8.3263   -6.2393   23.9122 C.3     1  UNL1        0.0082
      3 C           8.2047   -7.6430   24.4270 C.3     1  UNL1        0.0005
      4 C           7.8449   -7.8868   25.8626 C.3     1  UNL1        0.0005
      5 C           7.6067   -6.7270   26.7835 C.3     1  UNL1        0.0095
      6 C           7.7283   -5.3233   26.2687 C.3     1  UNL1        0.0840
      7 C           7.4900   -4.1635   27.1896 C.2     1  UNL1        0.2262
      8 O           8.6534   -3.4123   27.7662 O.2     1  UNL1       -0.2748
      9 N           6.0885   -3.7548   27.5339 N.am    1  UNL1       -0.2804
     10 H           5.3250   -4.2478   27.1555 H       1  UNL1        0.1550
     11 C           5.8503   -2.5949   28.4548 C.ar    1  UNL1        0.1083
     12 C           6.4525   -2.4119   29.8163 C.ar    1  UNL1        0.1377
     13 N           5.9424   -1.1183   30.3788 N.ar    1  UNL1       -0.1651
     14 N           5.0249   -0.5018   29.3650 N.ar    1  UNL1       -0.2302
     15 C           4.2928    0.7989   29.5140 C.3     1  UNL1        0.1553
     16 C           4.9679   -1.4144   28.1759 C.ar    1  UNL1        0.2147
     17 S           4.1689   -1.1864   26.9270 S.O2    1  UNL1        0.0748
     18 N           3.3699   -0.9585   25.6781 N.3     1  UNL1       -0.2021
     19 O           5.4328   -0.9062   26.1695 O.2     1  UNL1       -0.1517
     20 O           2.9050   -1.4667   27.6845 O.2     1  UNL1       -0.1517
     21 H           3.9991   -0.7271   24.9094 H       1  UNL1        0.1443
     22 H           2.7180   -0.1883   25.8274 H       1  UNL1        0.1443
     23 C           8.2096   -3.6759   24.3183 C.2     1  UNL1        0.1731
     24 O           9.4294   -2.8631   24.6371 O.2     1  UNL1       -0.2913
     25 C           4.9151   -1.9031   21.8176 C.ar    1  UNL1        0.0194
     26 C           6.3361   -1.4756   21.5982 C.ar    1  UNL1        0.0016
     27 C           7.4342   -2.0666   22.4318 C.ar    1  UNL1        0.0029
     28 C           7.1114   -3.0849   23.4847 C.ar    1  UNL1        0.0347
     29 C           5.6905   -3.5124   23.7041 C.ar    1  UNL1        0.0029
     30 C           4.5923   -2.9214   22.8706 C.ar    1  UNL1        0.0016
     31 C           0.3176    0.2482   20.3630 C.3     1  UNL1        0.0515
     32 C           1.7036   -0.3233   20.3155 C.ar    1  UNL1        0.0535
     33 C           2.4865   -0.8362   21.4877 C.ar    1  UNL1        0.0349
     34 C           3.8169   -1.3121   20.9841 C.ar    1  UNL1        0.1018
     35 N           3.8562   -1.0934   19.5006 N.ar    1  UNL1       -0.1730
     36 N           2.5502   -0.4823   19.0874 N.ar    1  UNL1       -0.2798
     37 H           2.2937   -0.2298   18.1711 H       1  UNL1        0.1886
@<TRIPOS>BOND
     1    31    32    1
     2    32    33   ar
     3    33    34   ar
     4    34    25    1
     5    25    26   ar
     6    26    27   ar
     7    27    28   ar
     8    28    23    1
     9    23    24    2
    10     1    23    1
    11     1     2    1
    12     2     3    1
    13     3     4    1
    14     4     5    1
    15     5     6    1
    16     6     7    1
    17     7     8    2
    18     7     9   am
    19     9    11    1
    20    11    12   ar
    21    12    13   ar
    22    13    14   ar
    23    14    15    1
    24    14    16   ar
    25    16    17    1
    26    17    18    1
    27    17    19    2
    28    17    20    2
    29    28    29   ar
    30    29    30   ar
    31    34    35   ar
    32    35    36   ar
    33    36    32   ar
    34    30    25   ar
    35     6     1    1
    36    16    11   ar
    37     9    10    1
    38    18    21    1
    39    18    22    1
    40    36    37    1
@<TRIPOS>MOLECULE
*****
 37 40 0 0 0
SMALL
GASTEIGER

@<TRIPOS>ATOM
      1 C         -17.2355   -6.0824   18.5413 C.3     1  UNL1        0.0705
      2 C         -18.3596   -6.7407   19.2851 C.3     1  UNL1        0.0082
      3 C         -18.1036   -7.9843   20.0839 C.3     1  UNL1        0.0005
      4 C         -16.7237   -8.5697   20.1388 C.3     1  UNL1        0.0005
      5 C         -15.5996   -7.9114   19.3950 C.3     1  UNL1        0.0095
      6 C         -15.8555   -6.6678   18.5963 C.3     1  UNL1        0.0840
      7 C         -14.7314   -6.0096   17.8525 C.2     1  UNL1        0.2262
      8 O         -14.5842   -6.2216   16.3749 O.2     1  UNL1       -0.2748
      9 N         -13.7546   -5.1394   18.5863 N.am    1  UNL1       -0.2804
     10 H         -13.8513   -5.0002   19.5562 H       1  UNL1        0.1550
     11 C         -12.6306   -4.4811   17.8426 C.ar    1  UNL1        0.1083
     12 C         -12.7005   -3.1680   17.1209 C.ar    1  UNL1        0.1377
     13 N         -11.3523   -2.8957   16.5222 N.ar    1  UNL1       -0.1651
     14 N         -10.4492   -4.0406   16.8738 N.ar    1  UNL1       -0.2302
     15 C          -9.0090   -4.1811   16.4788 C.3     1  UNL1        0.1553
     16 C         -11.2392   -5.0204   17.6898 C.ar    1  UNL1        0.2147
     17 S         -10.7277   -6.3127   18.2541 S.O2    1  UNL1        0.0748
     18 N         -10.2161   -7.6050   18.8183 N.3     1  UNL1       -0.2021
     19 O         -11.4415   -7.0677   17.1722 O.2     1  UNL1       -0.1517
     20 O         -10.0139   -5.5578   19.3359 O.2     1  UNL1       -0.1517
     21 H         -10.5579   -8.3819   18.2525 H       1  UNL1        0.1443
     22 H         -10.5465   -7.7117   19.7774 H       1  UNL1        0.1443
     23 C         -17.4914   -4.8389   17.7426 C.2     1  UNL1        0.1731
     24 O         -17.8526   -4.9413   16.2903 O.2     1  UNL1       -0.2913
     25 C         -17.1755   -0.8007   19.7031 C.ar    1  UNL1        0.0194
     26 C         -16.1455   -1.2305   18.7009 C.ar    1  UNL1        0.0016
     27 C         -16.2508   -2.5765   18.0474 C.ar    1  UNL1        0.0029
     28 C         -17.3861   -3.4928   18.3961 C.ar    1  UNL1        0.0347
     29 C         -18.4161   -3.0630   19.3983 C.ar    1  UNL1        0.0029
     30 C         -18.3107   -1.7170   20.0518 C.ar    1  UNL1        0.0016
     31 C         -15.7221    4.1610   20.7758 C.3     1  UNL1        0.0515
     32 C         -16.4021    2.8260   20.8496 C.ar    1  UNL1        0.0535
     33 C         -16.1896    1.6751   19.9114 C.ar    1  UNL1        0.0349
     34 C         -17.0702    0.5454   20.3566 C.ar    1  UNL1        0.1018
     35 N         -17.8270    0.9980   21.5700 N.ar    1  UNL1       -0.1730
     36 N         -17.4141    2.4075   21.8747 N.ar    1  UNL1       -0.2798
     37 H         -17.7486    2.9608   22.6172 H       1  UNL1        0.1886
@<TRIPOS>BOND
     1    31    32    1
     2    32    33   ar
     3    33    34   ar
     4    34    25    1
     5    25    26   ar
     6    26    27   ar
     7    27    28   ar
     8    28    23    1
     9    23    24    2
    10     1    23    1
    11     1     2    1
    12     2     3    1
    13     3     4    1
    14     4     5    1
    15     5     6    1
    16     6     7    1
    17     7     8    2
    18     7     9   am
    19     9    11    1
    20    11    12   ar
    21    12    13   ar
    22    13    14   ar
    23    14    15    1
    24    14    16   ar
    25    16    17    1
    26    17    18    1
    27    17    19    2
    28    17    20    2
    29    28    29   ar
    30    29    30   ar
    31    34    35   ar
    32    35    36   ar
    33    36    32   ar
    34    30    25   ar
    35     6     1    1
    36    16    11   ar
    37     9    10    1
    38    18    21    1
    39    18    22    1
    40    36    37    1
@<TRIPOS>MOLECULE
*****
 37 40 0 0 0
SMALL
GASTEIGER

@<TRIPOS>ATOM
      1 C           8.5427   -5.7413   25.9686 C.3     1  UNL1        0.0705
      2 C           9.2931   -6.5847   24.9809 C.3     1  UNL1        0.0082
      3 C           9.5360   -8.0371   25.2666 C.3     1  UNL1        0.0005
      4 C           9.0285   -8.6461   26.5400 C.3     1  UNL1        0.0005
      5 C           8.2780   -7.8027   27.5277 C.3     1  UNL1        0.0095
      6 C           8.0351   -6.3504   27.2421 C.3     1  UNL1        0.0840
      7 C           7.2847   -5.5070   28.2298 C.2     1  UNL1        0.2262
      8 O           5.7902   -5.4069   28.1478 O.2     1  UNL1       -0.2748
      9 N           8.0286   -4.7638   29.2994 N.am    1  UNL1       -0.2804
     10 H           9.0095   -4.8295   29.3532 H       1  UNL1        0.1550
     11 C           7.2782   -3.9204   30.2871 C.ar    1  UNL1        0.1083
     12 C           6.9037   -4.3207   31.6833 C.ar    1  UNL1        0.1377
     13 N           6.1645   -3.1764   32.3112 N.ar    1  UNL1       -0.1651
     14 N           6.0822   -2.0688   31.3029 N.ar    1  UNL1       -0.2302
     15 C           5.4267   -0.7355   31.5094 C.3     1  UNL1        0.1553
     16 C           6.7705   -2.5287   30.0520 C.ar    1  UNL1        0.2147
     17 S           6.9241   -1.7359   28.7879 S.O2    1  UNL1        0.0748
     18 N           7.0776   -0.9432   27.5238 N.3     1  UNL1       -0.2021
     19 O           5.5165   -2.0806   28.4007 O.2     1  UNL1       -0.1517
     20 O           8.3316   -1.3912   29.1751 O.2     1  UNL1       -0.1517
     21 H           6.2100   -0.9845   26.9890 H       1  UNL1        0.1443
     22 H           7.8385   -1.3336   26.9679 H       1  UNL1        0.1443
     23 C           8.2998   -4.2890   25.6830 C.2     1  UNL1        0.1731
     24 O           9.0249   -3.2382   26.4705 O.2     1  UNL1       -0.2913
     25 C           5.3957   -3.0841   22.4636 C.ar    1  UNL1        0.0194
     26 C           5.0534   -2.8559   23.9061 C.ar    1  UNL1        0.0016
     27 C           6.0214   -3.2576   24.9792 C.ar    1  UNL1        0.0029
     28 C           7.3317   -3.8874   24.6098 C.ar    1  UNL1        0.0347
     29 C           7.6740   -4.1155   23.1673 C.ar    1  UNL1        0.0029
     30 C           6.7060   -3.7139   22.0943 C.ar    1  UNL1        0.0016
     31 C           1.6392   -0.5008   19.7996 C.3     1  UNL1        0.0515
     32 C           2.7009   -1.4950   20.1660 C.ar    1  UNL1        0.0535
     33 C           3.4751   -1.5252   21.4504 C.ar    1  UNL1        0.0349
     34 C           4.4276   -2.6824   21.3905 C.ar    1  UNL1        0.1018
     35 N           4.2421   -3.3675   20.0690 N.ar    1  UNL1       -0.1730
     36 N           3.1750   -2.6337   19.3122 N.ar    1  UNL1       -0.2798
     37 H           2.8438   -2.8597   18.4130 H       1  UNL1        0.1886
@<TRIPOS>BOND
     1    31    32    1
     2    32    33   ar
     3    33    34   ar
     4    34    25    1
     5    25    26   ar
     6    26    27   ar
     7    27    28   ar
     8    28    23    1
     9    23    24    2
    10     1    23    1
    11     1     2    1
    12     2     3    1
    13     3     4    1
    14     4     5    1
    15     5     6    1
    16     6     7    1
    17     7     8    2
    18     7     9   am
    19     9    11    1
    20    11    12   ar
    21    12    13   ar
    22    13    14   ar
    23    14    15    1
    24    14    16   ar
    25    16    17    1
    26    17    18    1
    27    17    19    2
    28    17    20    2
    29    28    29   ar
    30    29    30   ar
    31    34    35   ar
    32    35    36   ar
    33    36    32   ar
    34    30    25   ar
    35     6     1    1
    36    16    11   ar
    37     9    10    1
    38    18    21    1
    39    18    22    1
    40    36    37    1
