@<TRIPOS>MOLECULE
*****
 16 18 0 0 0
SMALL
GASTEIGER

@<TRIPOS>ATOM
      1 C          -5.9745  -16.4050   23.6469 C.ar    1  UNL1        0.1445
      2 C          -7.4441  -16.6563   23.4820 C.ar    1  UNL1        0.0718
      3 C          -8.6506  -15.8868   23.9317 C.ar    1  UNL1        0.0467
      4 C          -9.8709  -16.6296   23.4744 C.ar    1  UNL1        0.1797
      5 O          -9.4186  -17.8581   22.7421 O.2     1  UNL1       -0.4502
      6 C          -7.9187  -17.8746   22.7468 C.ar    1  UNL1        0.1514
      7 C          -6.9238  -18.8416   22.1766 C.ar    1  UNL1        0.0753
      8 C          -5.4543  -18.5902   22.3416 C.ar    1  UNL1        0.1546
      9 O          -4.4594  -19.5573   21.7713 O.2     1  UNL1       -0.4208
     10 C          -2.9898  -19.3059   21.9363 C.ar    1  UNL1        0.3459
     11 O          -1.9949  -20.2729   21.3661 O.2     1  UNL1       -0.2445
     12 C          -2.5151  -18.0876   22.6715 C.ar    1  UNL1        0.0825
     13 C          -3.5100  -17.1207   23.2416 C.ar    1  UNL1        0.0127
     14 C          -4.9796  -17.3720   23.0767 C.ar    1  UNL1        0.0690
     15 C          -5.4400  -15.1910   25.8809 C.3     1  UNL1        0.2525
     16 O          -5.4998  -15.1867   24.3821 O.3     1  UNL1       -0.4712
@<TRIPOS>BOND
     1    15    16    1
     2    16     1    1
     3     1     2   ar
     4     2     3   ar
     5     3     4   ar
     6     4     5   ar
     7     5     6   ar
     8     6     7   ar
     9     7     8   ar
    10     8     9   ar
    11     9    10   ar
    12    10    11    2
    13    10    12   ar
    14    12    13   ar
    15    13    14   ar
    16    14     1   ar
    17     6     2   ar
    18    14     8   ar
@<TRIPOS>MOLECULE
*****
 16 18 0 0 0
SMALL
GASTEIGER

@<TRIPOS>ATOM
      1 C          -7.3147  -17.9757   22.2896 C.ar    1  UNL1        0.1445
      2 C          -8.4582  -18.4155   21.4241 C.ar    1  UNL1        0.0718
      3 C          -9.9094  -18.0361   21.4092 C.ar    1  UNL1        0.0467
      4 C         -10.5785  -18.8065   20.3098 C.ar    1  UNL1        0.1797
      5 O          -9.5410  -19.6619   19.6452 O.2     1  UNL1       -0.4502
      6 C          -8.2305  -19.4203   20.3339 C.ar    1  UNL1        0.1514
      7 C          -6.8593  -19.9853   20.1091 C.ar    1  UNL1        0.0753
      8 C          -5.7158  -19.5456   20.9746 C.ar    1  UNL1        0.1546
      9 O          -4.3446  -20.1107   20.7498 O.2     1  UNL1       -0.4208
     10 C          -3.2011  -19.6709   21.6153 C.ar    1  UNL1        0.3459
     11 O          -1.8299  -20.2360   21.3905 O.2     1  UNL1       -0.2445
     12 C          -3.4287  -18.6661   22.7055 C.ar    1  UNL1        0.0825
     13 C          -4.7999  -18.1011   22.9303 C.ar    1  UNL1        0.0127
     14 C          -5.9435  -18.5408   22.0648 C.ar    1  UNL1        0.0690
     15 C          -7.6522  -15.5129   23.0450 C.3     1  UNL1        0.2525
     16 O          -7.5424  -16.9709   23.3798 O.3     1  UNL1       -0.4712
@<TRIPOS>BOND
     1    15    16    1
     2    16     1    1
     3     1     2   ar
     4     2     3   ar
     5     3     4   ar
     6     4     5   ar
     7     5     6   ar
     8     6     7   ar
     9     7     8   ar
    10     8     9   ar
    11     9    10   ar
    12    10    11    2
    13    10    12   ar
    14    12    13   ar
    15    13    14   ar
    16    14     1   ar
    17     6     2   ar
    18    14     8   ar
@<TRIPOS>MOLECULE
*****
 16 18 0 0 0
SMALL
GASTEIGER

@<TRIPOS>ATOM
      1 C         -10.1605  -17.5812   22.7856 C.ar    1  UNL1        0.1445
      2 C          -9.9869  -18.4569   21.5802 C.ar    1  UNL1        0.0718
      3 C         -10.9652  -19.2544   20.7697 C.ar    1  UNL1        0.0467
      4 C         -10.2075  -19.9386   19.6707 C.ar    1  UNL1        0.1797
      5 O          -8.7610  -19.5640   19.8020 O.2     1  UNL1       -0.4502
      6 C          -8.6246  -18.6482   20.9821 C.ar    1  UNL1        0.1514
      7 C          -7.4360  -17.9638   21.5894 C.ar    1  UNL1        0.0753
      8 C          -7.6097  -17.0881   22.7948 C.ar    1  UNL1        0.1546
      9 O          -6.4210  -16.4037   23.4021 O.2     1  UNL1       -0.4208
     10 C          -6.5946  -15.5280   24.6075 C.ar    1  UNL1        0.3459
     11 O          -5.4060  -14.8436   25.2148 O.2     1  UNL1       -0.2445
     12 C          -7.9569  -15.3366   25.2056 C.ar    1  UNL1        0.0825
     13 C          -9.1455  -16.0210   24.5983 C.ar    1  UNL1        0.0127
     14 C          -8.9718  -16.8968   23.3929 C.ar    1  UNL1        0.0690
     15 C         -12.1403  -18.4810   24.2071 C.3     1  UNL1        0.2525
     16 O         -11.5228  -17.3898   23.3837 O.3     1  UNL1       -0.4712
@<TRIPOS>BOND
     1    15    16    1
     2    16     1    1
     3     1     2   ar
     4     2     3   ar
     5     3     4   ar
     6     4     5   ar
     7     5     6   ar
     8     6     7   ar
     9     7     8   ar
    10     8     9   ar
    11     9    10   ar
    12    10    11    2
    13    10    12   ar
    14    12    13   ar
    15    13    14   ar
    16    14     1   ar
    17     6     2   ar
    18    14     8   ar
@<TRIPOS>MOLECULE
*****
 16 18 0 0 0
SMALL
GASTEIGER

@<TRIPOS>ATOM
      1 C          -7.1084  -17.9855   22.3712 C.ar    1  UNL1        0.1445
      2 C          -7.2526  -16.8214   23.3061 C.ar    1  UNL1        0.0718
      3 C          -8.4521  -16.0494   23.7700 C.ar    1  UNL1        0.0467
      4 C          -7.9802  -14.9821   24.7125 C.ar    1  UNL1        0.1797
      5 O          -6.4891  -15.0945   24.8310 O.2     1  UNL1       -0.4502
      6 C          -6.0395  -16.2312   23.9618 C.ar    1  UNL1        0.1514
      7 C          -4.6820  -16.8052   23.6826 C.ar    1  UNL1        0.0753
      8 C          -4.5378  -17.9694   22.7478 C.ar    1  UNL1        0.1546
      9 O          -3.1803  -18.5433   22.4687 O.2     1  UNL1       -0.4208
     10 C          -3.0361  -19.7075   21.5338 C.ar    1  UNL1        0.3459
     11 O          -1.6786  -20.2815   21.2547 O.2     1  UNL1       -0.2445
     12 C          -4.2492  -20.2977   20.8781 C.ar    1  UNL1        0.0825
     13 C          -5.6066  -19.7237   21.1572 C.ar    1  UNL1        0.0127
     14 C          -5.7509  -18.5595   22.0921 C.ar    1  UNL1        0.0690
     15 C          -9.2155  -19.5010   22.4866 C.3     1  UNL1        0.2525
     16 O          -8.3216  -18.5757   21.7155 O.3     1  UNL1       -0.4712
@<TRIPOS>BOND
     1    15    16    1
     2    16     1    1
     3     1     2   ar
     4     2     3   ar
     5     3     4   ar
     6     4     5   ar
     7     5     6   ar
     8     6     7   ar
     9     7     8   ar
    10     8     9   ar
    11     9    10   ar
    12    10    11    2
    13    10    12   ar
    14    12    13   ar
    15    13    14   ar
    16    14     1   ar
    17     6     2   ar
    18    14     8   ar
@<TRIPOS>MOLECULE
*****
 16 18 0 0 0
SMALL
GASTEIGER

@<TRIPOS>ATOM
      1 C          -8.9064  -17.1724   22.3141 C.ar    1  UNL1        0.1445
      2 C         -10.2760  -17.0523   21.7143 C.ar    1  UNL1        0.0718
      3 C         -11.4441  -16.1724   22.0478 C.ar    1  UNL1        0.0467
      4 C         -12.5575  -16.5002   21.0976 C.ar    1  UNL1        0.1797
      5 O         -12.0775  -17.5827   20.1769 O.2     1  UNL1       -0.4502
      6 C         -10.6674  -17.9239   20.5580 C.ar    1  UNL1        0.1514
      7 C          -9.6893  -18.9156   20.0015 C.ar    1  UNL1        0.0753
      8 C          -8.3197  -19.0357   20.6013 C.ar    1  UNL1        0.1546
      9 O          -7.3416  -20.0276   20.0448 O.2     1  UNL1       -0.4208
     10 C          -5.9720  -20.1477   20.6446 C.ar    1  UNL1        0.3459
     11 O          -4.9939  -21.1394   20.0881 O.2     1  UNL1       -0.2445
     12 C          -5.5805  -19.2761   21.8009 C.ar    1  UNL1        0.0825
     13 C          -6.5586  -18.2843   22.3574 C.ar    1  UNL1        0.0127
     14 C          -7.9283  -18.1642   21.7575 C.ar    1  UNL1        0.0690
     15 C          -8.9477  -16.6603   24.8609 C.3     1  UNL1        0.2525
     16 O          -8.5149  -16.3008   23.4704 O.3     1  UNL1       -0.4712
@<TRIPOS>BOND
     1    15    16    1
     2    16     1    1
     3     1     2   ar
     4     2     3   ar
     5     3     4   ar
     6     4     5   ar
     7     5     6   ar
     8     6     7   ar
     9     7     8   ar
    10     8     9   ar
    11     9    10   ar
    12    10    11    2
    13    10    12   ar
    14    12    13   ar
    15    13    14   ar
    16    14     1   ar
    17     6     2   ar
    18    14     8   ar
@<TRIPOS>MOLECULE
*****
 16 18 0 0 0
SMALL
GASTEIGER

@<TRIPOS>ATOM
      1 C          -7.3907  -17.4520   22.4040 C.ar    1  UNL1        0.1445
      2 C          -6.8263  -16.6086   23.5085 C.ar    1  UNL1        0.0718
      3 C          -5.4158  -16.2957   23.9118 C.ar    1  UNL1        0.0467
      4 C          -5.4654  -15.3876   25.1047 C.ar    1  UNL1        0.1797
      5 O          -6.9065  -15.1393   25.4387 O.2     1  UNL1       -0.4502
      6 C          -7.7476  -15.8940   24.4522 C.ar    1  UNL1        0.1514
      7 C          -9.2334  -16.0227   24.2912 C.ar    1  UNL1        0.0753
      8 C          -9.7978  -16.8661   23.1866 C.ar    1  UNL1        0.1546
      9 O         -11.2836  -16.9948   23.0257 O.2     1  UNL1       -0.4208
     10 C         -11.8480  -17.8381   21.9211 C.ar    1  UNL1        0.3459
     11 O         -13.3338  -17.9669   21.7602 O.2     1  UNL1       -0.2445
     12 C         -10.9268  -18.5528   20.9774 C.ar    1  UNL1        0.0825
     13 C          -9.4410  -18.4241   21.1384 C.ar    1  UNL1        0.0127
     14 C          -8.8765  -17.5807   22.2430 C.ar    1  UNL1        0.0690
     15 C          -5.8026  -19.4415   21.8847 C.3     1  UNL1        0.2525
     16 O          -6.4694  -18.1666   21.4603 O.3     1  UNL1       -0.4712
@<TRIPOS>BOND
     1    15    16    1
     2    16     1    1
     3     1     2   ar
     4     2     3   ar
     5     3     4   ar
     6     4     5   ar
     7     5     6   ar
     8     6     7   ar
     9     7     8   ar
    10     8     9   ar
    11     9    10   ar
    12    10    11    2
    13    10    12   ar
    14    12    13   ar
    15    13    14   ar
    16    14     1   ar
    17     6     2   ar
    18    14     8   ar
@<TRIPOS>MOLECULE
*****
 16 18 0 0 0
SMALL
GASTEIGER

@<TRIPOS>ATOM
      1 C          -8.0124  -17.6153   21.9825 C.ar    1  UNL1        0.1445
      2 C          -9.4182  -18.0960   21.7761 C.ar    1  UNL1        0.0718
      3 C         -10.0821  -18.7916   20.6249 C.ar    1  UNL1        0.0467
      4 C         -11.5178  -19.0261   20.9908 C.ar    1  UNL1        0.1797
      5 O         -11.7411  -18.4753   22.3680 O.2     1  UNL1       -0.4502
      6 C         -10.4434  -17.9005   22.8534 C.ar    1  UNL1        0.1514
      7 C         -10.0629  -17.2243   24.1371 C.ar    1  UNL1        0.0753
      8 C          -8.6571  -16.7436   24.3435 C.ar    1  UNL1        0.1546
      9 O          -8.2767  -16.0674   25.6274 O.2     1  UNL1       -0.4208
     10 C          -6.8709  -15.5867   25.8338 C.ar    1  UNL1        0.3459
     11 O          -6.4904  -14.9105   27.1175 O.2     1  UNL1       -0.2445
     12 C          -5.8455  -15.7821   24.7565 C.ar    1  UNL1        0.0825
     13 C          -6.2260  -16.4583   23.4728 C.ar    1  UNL1        0.0127
     14 C          -7.6319  -16.9390   23.2663 C.ar    1  UNL1        0.0690
     15 C          -6.4526  -19.1827   20.6185 C.3     1  UNL1        0.2525
     16 O          -6.9870  -17.8107   20.9052 O.3     1  UNL1       -0.4712
@<TRIPOS>BOND
     1    15    16    1
     2    16     1    1
     3     1     2   ar
     4     2     3   ar
     5     3     4   ar
     6     4     5   ar
     7     5     6   ar
     8     6     7   ar
     9     7     8   ar
    10     8     9   ar
    11     9    10   ar
    12    10    11    2
    13    10    12   ar
    14    12    13   ar
    15    13    14   ar
    16    14     1   ar
    17     6     2   ar
    18    14     8   ar
@<TRIPOS>MOLECULE
*****
 16 18 0 0 0
SMALL
GASTEIGER

@<TRIPOS>ATOM
      1 C         -12.8148   -3.4583   19.3730 C.ar    1  UNL1        0.1445
      2 C         -14.2863   -3.6754   19.5667 C.ar    1  UNL1        0.0718
      3 C         -15.4185   -2.7213   19.8069 C.ar    1  UNL1        0.0467
      4 C         -16.6820   -3.5214   19.9234 C.ar    1  UNL1        0.1797
      5 O         -16.3306   -4.9699   19.7552 O.2     1  UNL1       -0.4502
      6 C         -14.8499   -5.0651   19.5347 C.ar    1  UNL1        0.1514
      7 C         -13.9421   -6.2377   19.3090 C.ar    1  UNL1        0.0753
      8 C         -12.4706   -6.0205   19.1153 C.ar    1  UNL1        0.1546
      9 O         -11.5628   -7.1932   18.8895 O.2     1  UNL1       -0.4208
     10 C         -10.0913   -6.9760   18.6958 C.ar    1  UNL1        0.3459
     11 O          -9.1835   -8.1486   18.4701 O.2     1  UNL1       -0.2445
     12 C          -9.5276   -5.5863   18.7277 C.ar    1  UNL1        0.0825
     13 C         -10.4354   -4.4138   18.9535 C.ar    1  UNL1        0.0127
     14 C         -11.9070   -4.6309   19.1472 C.ar    1  UNL1        0.0690
     15 C         -12.3244   -1.2012   18.1833 C.3     1  UNL1        0.2525
     16 O         -12.2510   -2.0686   19.4049 O.3     1  UNL1       -0.4712
@<TRIPOS>BOND
     1    15    16    1
     2    16     1    1
     3     1     2   ar
     4     2     3   ar
     5     3     4   ar
     6     4     5   ar
     7     5     6   ar
     8     6     7   ar
     9     7     8   ar
    10     8     9   ar
    11     9    10   ar
    12    10    11    2
    13    10    12   ar
    14    12    13   ar
    15    13    14   ar
    16    14     1   ar
    17     6     2   ar
    18    14     8   ar
@<TRIPOS>MOLECULE
*****
 16 18 0 0 0
SMALL
GASTEIGER

@<TRIPOS>ATOM
      1 C          -7.4404  -17.5152   22.8449 C.ar    1  UNL1        0.1445
      2 C          -6.4483  -18.4032   22.1543 C.ar    1  UNL1        0.0718
      3 C          -4.9808  -18.6269   22.3702 C.ar    1  UNL1        0.0467
      4 C          -4.5143  -19.6410   21.3683 C.ar    1  UNL1        0.1797
      5 O          -5.6933  -20.0441   20.5332 O.2     1  UNL1       -0.4502
      6 C          -6.8886  -19.2791   21.0190 C.ar    1  UNL1        0.1514
      7 C          -8.3211  -19.2669   20.5742 C.ar    1  UNL1        0.0753
      8 C          -9.3133  -18.3788   21.2648 C.ar    1  UNL1        0.1546
      9 O         -10.7458  -18.3667   20.8200 O.2     1  UNL1       -0.4208
     10 C         -11.7380  -17.4786   21.5106 C.ar    1  UNL1        0.3459
     11 O         -13.1704  -17.4664   21.0659 O.2     1  UNL1       -0.2445
     12 C         -11.2977  -16.6027   22.6460 C.ar    1  UNL1        0.0825
     13 C          -9.8652  -16.6149   23.0907 C.ar    1  UNL1        0.0127
     14 C          -8.8730  -17.5030   22.4001 C.ar    1  UNL1        0.0690
     15 C          -6.4261  -15.2819   23.7013 C.3     1  UNL1        0.2525
     16 O          -7.0002  -16.6392   23.9803 O.3     1  UNL1       -0.4712
@<TRIPOS>BOND
     1    15    16    1
     2    16     1    1
     3     1     2   ar
     4     2     3   ar
     5     3     4   ar
     6     4     5   ar
     7     5     6   ar
     8     6     7   ar
     9     7     8   ar
    10     8     9   ar
    11     9    10   ar
    12    10    11    2
    13    10    12   ar
    14    12    13   ar
    15    13    14   ar
    16    14     1   ar
    17     6     2   ar
    18    14     8   ar
