@<TRIPOS>MOLECULE
*****
 36 39 0 0 0
SMALL
GASTEIGER

@<TRIPOS>ATOM
      1 C           7.3711   -2.9345   31.3490 C.ar    1  UNL1        0.1160
      2 C           7.5727   -1.4631   31.1389 C.ar    1  UNL1        0.1435
      3 N           8.5717   -0.9794   30.1299 N.pl3   1  UNL1       -0.3415
      4 N           6.7753   -0.4752   31.9378 N.ar    1  UNL1       -0.2093
      5 C           5.7763   -0.9588   32.9468 C.ar    1  UNL1        0.1844
      6 N           5.5747   -2.4303   33.1569 N.ar    1  UNL1       -0.2093
      7 C           6.3722   -3.4182   32.3580 C.ar    1  UNL1        0.1435
      8 N           6.1705   -4.8896   32.5681 N.pl3   1  UNL1       -0.3415
      9 H           9.0950   -1.6278   29.6055 H       1  UNL1        0.1438
     10 H           8.7039   -0.0137   29.9920 H       1  UNL1        0.1438
     11 H           5.5149   -5.2070   33.2304 H       1  UNL1        0.1438
     12 H           6.6939   -5.5380   32.0438 H       1  UNL1        0.1438
     13 C           4.9789    0.0291   33.7458 C.ar    1  UNL1        0.1396
     14 N           5.2746    0.4726   35.1479 N.ar    1  UNL1       -0.1645
     15 N           4.2242    1.4644   35.5515 N.ar    1  UNL1       -0.2293
     16 C           3.2793    1.6339   34.3989 C.ar    1  UNL1        0.1614
     17 N           2.0545    2.4814   34.2214 N.ar    1  UNL1       -0.2230
     18 C           1.2961    2.4417   32.9278 C.ar    1  UNL1        0.1301
     19 C           1.7626    1.5546   31.8118 C.ar    1  UNL1        0.1594
     20 F           1.0041    1.5150   30.5183 F       1  UNL1       -0.2025
     21 C           2.9874    0.7071   31.9893 C.ar    1  UNL1        0.0360
     22 C           3.7458    0.7468   33.2829 C.ar    1  UNL1        0.0601
     23 C           4.1344    2.1640   36.8753 C.3     1  UNL1        0.1577
     24 C           2.9355    1.9575   37.7530 C.ar    1  UNL1        0.0296
     25 C           2.7421    0.6505   38.4631 C.ar    1  UNL1       -0.0001
     26 C           1.5433    0.4440   39.3407 C.ar    1  UNL1       -0.0001
     27 C           0.5379    1.5445   39.5081 C.ar    1  UNL1        0.0023
     28 C           0.7313    2.8515   38.7979 C.ar    1  UNL1        0.0294
     29 C           1.9301    3.0580   37.9204 C.ar    1  UNL1        0.1380
     30 F           2.1235    4.3650   37.2102 F       1  UNL1       -0.2044
     31 C           7.6435   -4.4234   29.2373 C.2     1  UNL1        0.4056
     32 O           6.3209   -3.9366   28.7235 O.2     1  UNL1       -0.2261
     33 N           8.1686   -3.9224   30.5500 N.am    1  UNL1       -0.2452
     34 H           9.0366   -4.2419   30.8872 H       1  UNL1        0.1584
     35 C           8.3956   -6.8693   28.7878 C.3     1  UNL1        0.2574
     36 O           8.4410   -5.4112   28.4384 O.3     1  UNL1       -0.4304
@<TRIPOS>BOND
     1    35    36    1
     2    36    31    1
     3    31    32    2
     4    31    33   am
     5    33     1    1
     6     1     2   ar
     7     2     3    1
     8     2     4   ar
     9     4     5   ar
    10     5    13    1
    11    13    14   ar
    12    14    15   ar
    13    15    23    1
    14    23    24    1
    15    24    25   ar
    16    25    26   ar
    17    26    27   ar
    18    27    28   ar
    19    28    29   ar
    20    29    30    1
    21    15    16   ar
    22    16    17   ar
    23    17    18   ar
    24    18    19   ar
    25    19    20    1
    26    19    21   ar
    27    21    22   ar
    28     5     6   ar
    29     6     7   ar
    30     7     8    1
    31     7     1   ar
    32    22    13   ar
    33    29    24   ar
    34    22    16   ar
    35    33    34    1
    36     3     9    1
    37     3    10    1
    38     8    11    1
    39     8    12    1
@<TRIPOS>MOLECULE
*****
 36 39 0 0 0
SMALL
GASTEIGER

@<TRIPOS>ATOM
      1 C           7.2387   -3.8279   30.5804 C.ar    1  UNL1        0.1160
      2 C           6.5341   -4.0500   31.8859 C.ar    1  UNL1        0.1435
      3 N           6.5077   -5.4180   32.5007 N.pl3   1  UNL1       -0.3415
      4 N           5.8558   -2.9042   32.5765 N.ar    1  UNL1       -0.2093
      5 C           5.8820   -1.5363   31.9618 C.ar    1  UNL1        0.1844
      6 N           6.5867   -1.3141   30.6563 N.ar    1  UNL1       -0.2093
      7 C           7.2650   -2.4600   29.9657 C.ar    1  UNL1        0.1435
      8 N           7.9696   -2.2377   28.6602 N.pl3   1  UNL1       -0.3415
      9 H           6.9529   -6.1700   32.0474 H       1  UNL1        0.1438
     10 H           6.0453   -5.5638   33.3575 H       1  UNL1        0.1438
     11 H           7.9868   -1.3399   28.2568 H       1  UNL1        0.1438
     12 H           8.4148   -2.9898   28.2069 H       1  UNL1        0.1438
     13 C           5.2037   -0.3904   32.6524 C.ar    1  UNL1        0.1396
     14 N           5.6864    0.3022   33.8923 N.ar    1  UNL1       -0.1645
     15 N           4.7046    1.3846   34.2305 N.ar    1  UNL1       -0.2293
     16 C           3.6151    1.3610   33.1998 C.ar    1  UNL1        0.1614
     17 N           2.3821    2.1966   33.0233 N.ar    1  UNL1       -0.2230
     18 C           1.4575    1.9352   31.8715 C.ar    1  UNL1        0.1301
     19 C           1.7659    0.8381   30.8961 C.ar    1  UNL1        0.1594
     20 F           0.8413    0.5767   29.7443 F       1  UNL1       -0.2025
     21 C           2.9990    0.0025   31.0726 C.ar    1  UNL1        0.0360
     22 C           3.9236    0.2639   32.2244 C.ar    1  UNL1        0.0601
     23 C           4.7962    2.3256   35.3951 C.3     1  UNL1        0.1577
     24 C           3.7889    2.2469   36.5039 C.ar    1  UNL1        0.0296
     25 C           2.8418    3.3861   36.7389 C.ar    1  UNL1       -0.0001
     26 C           1.8345    3.3075   37.8476 C.ar    1  UNL1       -0.0001
     27 C           1.7744    2.0897   38.7213 C.ar    1  UNL1        0.0023
     28 C           2.7216    0.9506   38.4863 C.ar    1  UNL1        0.0294
     29 C           3.7288    1.0291   37.3776 C.ar    1  UNL1        0.1380
     30 F           4.6760   -0.1100   37.1426 F       1  UNL1       -0.2044
     31 C           7.1958   -5.7369   28.8186 C.2     1  UNL1        0.4056
     32 O           5.7962   -5.3542   28.4381 O.2     1  UNL1       -0.2261
     33 N           7.9170   -4.9738   29.8898 N.am    1  UNL1       -0.2452
     34 H           8.8356   -5.2249   30.1396 H       1  UNL1        0.1584
     35 C           9.0591   -7.5466   28.7646 C.3     1  UNL1        0.2574
     36 O           7.8742   -6.8828   28.1280 O.3     1  UNL1       -0.4304
@<TRIPOS>BOND
     1    35    36    1
     2    36    31    1
     3    31    32    2
     4    31    33   am
     5    33     1    1
     6     1     2   ar
     7     2     3    1
     8     2     4   ar
     9     4     5   ar
    10     5    13    1
    11    13    14   ar
    12    14    15   ar
    13    15    23    1
    14    23    24    1
    15    24    25   ar
    16    25    26   ar
    17    26    27   ar
    18    27    28   ar
    19    28    29   ar
    20    29    30    1
    21    15    16   ar
    22    16    17   ar
    23    17    18   ar
    24    18    19   ar
    25    19    20    1
    26    19    21   ar
    27    21    22   ar
    28     5     6   ar
    29     6     7   ar
    30     7     8    1
    31     7     1   ar
    32    22    13   ar
    33    29    24   ar
    34    22    16   ar
    35    33    34    1
    36     3     9    1
    37     3    10    1
    38     8    11    1
    39     8    12    1
@<TRIPOS>MOLECULE
*****
 36 39 0 0 0
SMALL
GASTEIGER

@<TRIPOS>ATOM
      1 C           0.1811    2.0646   28.7881 C.ar    1  UNL1        0.1160
      2 C           0.4443    0.7140   29.3852 C.ar    1  UNL1        0.1435
      3 N          -0.0027   -0.5240   28.6658 N.pl3   1  UNL1       -0.3415
      4 N           1.1545    0.6014   30.7016 N.ar    1  UNL1       -0.2093
      5 C           1.6015    1.8393   31.4210 C.ar    1  UNL1        0.1844
      6 N           1.3383    3.1900   30.8239 N.ar    1  UNL1       -0.2093
      7 C           0.6281    3.3026   29.5075 C.ar    1  UNL1        0.1435
      8 N           0.3649    4.6533   28.9105 N.pl3   1  UNL1       -0.3415
      9 H          -0.4689   -0.4501   27.8018 H       1  UNL1        0.1438
     10 H           0.1700   -1.4105   29.0577 H       1  UNL1        0.1438
     11 H           0.6583    5.4658   29.3827 H       1  UNL1        0.1438
     12 H          -0.1012    4.7273   28.0465 H       1  UNL1        0.1438
     13 C           2.3117    1.7267   32.7374 C.ar    1  UNL1        0.1396
     14 N           2.1523    2.6519   33.9072 N.ar    1  UNL1       -0.1645
     15 N           3.0481    2.1661   35.0078 N.ar    1  UNL1       -0.2293
     16 C           3.7612    0.9405   34.5183 C.ar    1  UNL1        0.1614
     17 N           4.7661    0.0368   35.1690 N.ar    1  UNL1       -0.2230
     18 C           5.3159   -1.1384   34.4164 C.ar    1  UNL1        0.1301
     19 C           4.8608   -1.4100   33.0131 C.ar    1  UNL1        0.1594
     20 F           5.4106   -2.5854   32.2606 F       1  UNL1       -0.2025
     21 C           3.8558   -0.5063   32.3624 C.ar    1  UNL1        0.0360
     22 C           3.3061    0.6690   33.1150 C.ar    1  UNL1        0.0601
     23 C           3.2036    2.7952   36.3606 C.3     1  UNL1        0.1577
     24 C           2.3783    2.3070   37.5142 C.ar    1  UNL1        0.0296
     25 C           2.7052    0.9977   38.1691 C.ar    1  UNL1       -0.0001
     26 C           1.8801    0.5094   39.3226 C.ar    1  UNL1       -0.0001
     27 C           0.7280    1.3304   39.8213 C.ar    1  UNL1        0.0023
     28 C           0.4012    2.6397   39.1664 C.ar    1  UNL1        0.0294
     29 C           1.2263    3.1280   38.0129 C.ar    1  UNL1        0.1380
     30 F           0.8994    4.4373   37.3580 F       1  UNL1       -0.2044
     31 C           0.2411    2.0513   26.1908 C.2     1  UNL1        0.4056
     32 O           1.7216    1.8128   26.2262 O.2     1  UNL1       -0.2261
     33 N          -0.5292    2.1772   27.4717 N.am    1  UNL1       -0.2452
     34 H          -1.5009    2.3338   27.4484 H       1  UNL1        0.1584
     35 C          -0.4547    3.4622   24.1231 C.3     1  UNL1        0.2574
     36 O          -0.4692    2.1640   24.8744 O.3     1  UNL1       -0.4304
@<TRIPOS>BOND
     1    35    36    1
     2    36    31    1
     3    31    32    2
     4    31    33   am
     5    33     1    1
     6     1     2   ar
     7     2     3    1
     8     2     4   ar
     9     4     5   ar
    10     5    13    1
    11    13    14   ar
    12    14    15   ar
    13    15    23    1
    14    23    24    1
    15    24    25   ar
    16    25    26   ar
    17    26    27   ar
    18    27    28   ar
    19    28    29   ar
    20    29    30    1
    21    15    16   ar
    22    16    17   ar
    23    17    18   ar
    24    18    19   ar
    25    19    20    1
    26    19    21   ar
    27    21    22   ar
    28     5     6   ar
    29     6     7   ar
    30     7     8    1
    31     7     1   ar
    32    22    13   ar
    33    29    24   ar
    34    22    16   ar
    35    33    34    1
    36     3     9    1
    37     3    10    1
    38     8    11    1
    39     8    12    1
@<TRIPOS>MOLECULE
*****
 36 39 0 0 0
SMALL
GASTEIGER

@<TRIPOS>ATOM
      1 C           2.9928   -0.5103   28.9809 C.ar    1  UNL1        0.1160
      2 C           1.6298   -0.1120   29.4642 C.ar    1  UNL1        0.1435
      3 N           0.4113   -0.5157   28.6881 N.pl3   1  UNL1       -0.3415
      4 N           1.4852    0.6899   30.7235 N.ar    1  UNL1       -0.2093
      5 C           2.7036    1.0936   31.4996 C.ar    1  UNL1        0.1844
      6 N           4.0667    0.6954   31.0164 N.ar    1  UNL1       -0.2093
      7 C           4.2113   -0.1066   29.7570 C.ar    1  UNL1        0.1435
      8 N           5.5743   -0.5049   29.2738 N.pl3   1  UNL1       -0.3415
      9 H           0.5062   -1.0421   27.8615 H       1  UNL1        0.1438
     10 H          -0.4833   -0.2543   29.0052 H       1  UNL1        0.1438
     11 H           6.3740   -0.2399   29.7832 H       1  UNL1        0.1438
     12 H           5.6692   -1.0312   28.4473 H       1  UNL1        0.1438
     13 C           2.5591    1.8956   32.7590 C.ar    1  UNL1        0.1396
     14 N           3.2548    1.6266   34.0603 N.ar    1  UNL1       -0.1645
     15 N           2.8191    2.6721   35.0437 N.ar    1  UNL1       -0.2293
     16 C           1.8541    3.5874   34.3501 C.ar    1  UNL1        0.1614
     17 N           1.1010    4.7957   34.8218 N.ar    1  UNL1       -0.2230
     18 C           0.1871    5.5242   33.8815 C.ar    1  UNL1        0.1301
     19 C           0.0264    5.0443   32.4695 C.ar    1  UNL1        0.1594
     20 F          -0.8875    5.7728   31.5292 F       1  UNL1       -0.2025
     21 C           0.7795    3.8359   31.9977 C.ar    1  UNL1        0.0360
     22 C           1.6934    3.1075   32.9380 C.ar    1  UNL1        0.0601
     23 C           3.2694    2.7830   36.4702 C.3     1  UNL1        0.1577
     24 C           2.4126    2.2333   37.5720 C.ar    1  UNL1        0.0296
     25 C           2.6972    0.8726   38.1355 C.ar    1  UNL1       -0.0001
     26 C           1.8405    0.3229   39.2373 C.ar    1  UNL1       -0.0001
     27 C           0.6992    1.1339   39.7755 C.ar    1  UNL1        0.0023
     28 C           0.4146    2.4946   39.2120 C.ar    1  UNL1        0.0294
     29 C           1.2713    3.0443   38.1102 C.ar    1  UNL1        0.1380
     30 F           0.9867    4.4050   37.5467 F       1  UNL1       -0.2044
     31 C           3.5135   -0.6325   26.4385 C.2     1  UNL1        0.4056
     32 O           3.7451    0.8493   26.4147 O.2     1  UNL1       -0.2261
     33 N           3.1373   -1.3123   27.7216 N.am    1  UNL1       -0.2452
     34 H           2.9853   -2.2849   27.7371 H       1  UNL1        0.1584
     35 C           3.2468   -0.8444   23.8628 C.3     1  UNL1        0.2574
     36 O           3.6580   -1.4345   25.1791 O.3     1  UNL1       -0.4304
@<TRIPOS>BOND
     1    35    36    1
     2    36    31    1
     3    31    32    2
     4    31    33   am
     5    33     1    1
     6     1     2   ar
     7     2     3    1
     8     2     4   ar
     9     4     5   ar
    10     5    13    1
    11    13    14   ar
    12    14    15   ar
    13    15    23    1
    14    23    24    1
    15    24    25   ar
    16    25    26   ar
    17    26    27   ar
    18    27    28   ar
    19    28    29   ar
    20    29    30    1
    21    15    16   ar
    22    16    17   ar
    23    17    18   ar
    24    18    19   ar
    25    19    20    1
    26    19    21   ar
    27    21    22   ar
    28     5     6   ar
    29     6     7   ar
    30     7     8    1
    31     7     1   ar
    32    22    13   ar
    33    29    24   ar
    34    22    16   ar
    35    33    34    1
    36     3     9    1
    37     3    10    1
    38     8    11    1
    39     8    12    1
@<TRIPOS>MOLECULE
*****
 36 39 0 0 0
SMALL
GASTEIGER

@<TRIPOS>ATOM
      1 C           6.4179   -2.5387   31.5245 C.ar    1  UNL1        0.1160
      2 C           6.5791   -3.9951   31.2038 C.ar    1  UNL1        0.1435
      3 N           6.4629   -5.0202   32.2927 N.pl3   1  UNL1       -0.3415
      4 N           6.8565   -4.4264   29.7942 N.ar    1  UNL1       -0.2093
      5 C           6.9728   -3.4015   28.7053 C.ar    1  UNL1        0.1844
      6 N           6.8115   -1.9450   29.0260 N.ar    1  UNL1       -0.2093
      7 C           6.5341   -1.5136   30.4357 C.ar    1  UNL1        0.1435
      8 N           6.3729   -0.0572   30.7563 N.pl3   1  UNL1       -0.3415
      9 H           6.2808   -4.7371   33.2179 H       1  UNL1        0.1438
     10 H           6.5687   -5.9761   32.0822 H       1  UNL1        0.1438
     11 H           6.4492    0.6155   30.0416 H       1  UNL1        0.1438
     12 H           6.1908    0.2259   31.6814 H       1  UNL1        0.1438
     13 C           7.2502   -3.8328   27.2957 C.ar    1  UNL1        0.1396
     14 N           7.3567   -2.9303   26.1023 N.ar    1  UNL1       -0.1645
     15 N           7.6422   -3.7821   24.9011 N.ar    1  UNL1       -0.2293
     16 C           7.7121   -5.2110   25.3521 C.ar    1  UNL1        0.1614
     17 N           7.9650   -6.4876   24.6063 N.ar    1  UNL1       -0.2230
     18 C           7.9757   -7.7956   25.3405 C.ar    1  UNL1        0.1301
     19 C           7.7334   -7.8269   26.8205 C.ar    1  UNL1        0.1594
     20 F           7.7441   -9.1349   27.5547 F       1  UNL1       -0.2025
     21 C           7.4805   -6.5503   27.5663 C.ar    1  UNL1        0.0360
     22 C           7.4698   -5.2423   26.8321 C.ar    1  UNL1        0.0601
     23 C           7.8255   -3.2912   23.4956 C.3     1  UNL1        0.1577
     24 C           6.7433   -3.5053   22.4792 C.ar    1  UNL1        0.0296
     25 C           5.3109   -3.5926   22.9158 C.ar    1  UNL1       -0.0001
     26 C           4.2287   -3.8067   21.8995 C.ar    1  UNL1       -0.0001
     27 C           4.5789   -3.9335   20.4465 C.ar    1  UNL1        0.0023
     28 C           6.0112   -3.8462   20.0098 C.ar    1  UNL1        0.0294
     29 C           7.0935   -3.6321   21.0261 C.ar    1  UNL1        0.1380
     30 F           8.5258   -3.5449   20.5895 F       1  UNL1       -0.2044
     31 C           4.7352   -1.8060   33.3635 C.2     1  UNL1        0.4056
     32 O           3.6073   -1.9359   32.3831 O.2     1  UNL1       -0.2261
     33 N           6.1405   -2.1074   32.9342 N.am    1  UNL1       -0.2452
     34 H           6.8807   -2.0221   33.5776 H       1  UNL1        0.1584
     35 C           5.4238   -0.4754   35.4860 C.3     1  UNL1        0.2574
     36 O           4.4578   -1.3747   34.7731 O.3     1  UNL1       -0.4304
@<TRIPOS>BOND
     1    35    36    1
     2    36    31    1
     3    31    32    2
     4    31    33   am
     5    33     1    1
     6     1     2   ar
     7     2     3    1
     8     2     4   ar
     9     4     5   ar
    10     5    13    1
    11    13    14   ar
    12    14    15   ar
    13    15    23    1
    14    23    24    1
    15    24    25   ar
    16    25    26   ar
    17    26    27   ar
    18    27    28   ar
    19    28    29   ar
    20    29    30    1
    21    15    16   ar
    22    16    17   ar
    23    17    18   ar
    24    18    19   ar
    25    19    20    1
    26    19    21   ar
    27    21    22   ar
    28     5     6   ar
    29     6     7   ar
    30     7     8    1
    31     7     1   ar
    32    22    13   ar
    33    29    24   ar
    34    22    16   ar
    35    33    34    1
    36     3     9    1
    37     3    10    1
    38     8    11    1
    39     8    12    1
@<TRIPOS>MOLECULE
*****
 36 39 0 0 0
SMALL
GASTEIGER

@<TRIPOS>ATOM
      1 C           7.0708   -3.3333   30.8754 C.ar    1  UNL1        0.1160
      2 C           7.0039   -2.0255   30.1438 C.ar    1  UNL1        0.1435
      3 N           7.9665   -1.7393   29.0296 N.pl3   1  UNL1       -0.3415
      4 N           5.9743   -1.0040   30.5264 N.ar    1  UNL1       -0.2093
      5 C           5.0116   -1.2901   31.6405 C.ar    1  UNL1        0.1844
      6 N           5.0786   -2.5980   32.3721 N.ar    1  UNL1       -0.2093
      7 C           6.1082   -3.6195   31.9895 C.ar    1  UNL1        0.1435
      8 N           6.1751   -4.9273   32.7212 N.pl3   1  UNL1       -0.3415
      9 H           8.6423   -2.4097   28.7785 H       1  UNL1        0.1438
     10 H           7.9226   -0.8809   28.5495 H       1  UNL1        0.1438
     11 H           5.5433   -5.1151   33.4524 H       1  UNL1        0.1438
     12 H           6.8509   -5.5978   32.4701 H       1  UNL1        0.1438
     13 C           3.9820   -0.2686   32.0231 C.ar    1  UNL1        0.1396
     14 N           2.8964    0.2642   31.1357 N.ar    1  UNL1       -0.1645
     15 N           2.1007    1.2615   31.9245 N.ar    1  UNL1       -0.2293
     16 C           2.6947    1.3452   33.2994 C.ar    1  UNL1        0.1614
     17 N           2.3269    2.1603   34.5037 N.ar    1  UNL1       -0.2230
     18 C           3.1219    2.0297   35.7689 C.ar    1  UNL1        0.1301
     19 C           4.2847    1.0840   35.8298 C.ar    1  UNL1        0.1594
     20 F           5.0797    0.9535   37.0952 F       1  UNL1       -0.2025
     21 C           4.6524    0.2689   34.6256 C.ar    1  UNL1        0.0360
     22 C           3.8574    0.3995   33.3603 C.ar    1  UNL1        0.0601
     23 C           0.9187    2.0388   31.4260 C.3     1  UNL1        0.1577
     24 C           0.4534    1.8704   30.0098 C.ar    1  UNL1        0.0296
     25 C          -0.5100    0.7744   29.6623 C.ar    1  UNL1       -0.0001
     26 C          -0.9753    0.6059   28.2463 C.ar    1  UNL1       -0.0001
     27 C          -0.4771    1.5334   27.1778 C.ar    1  UNL1        0.0023
     28 C           0.4862    2.6294   27.5254 C.ar    1  UNL1        0.0294
     29 C           0.9515    2.7979   28.9414 C.ar    1  UNL1        0.1380
     30 F           1.9149    3.8938   29.2889 F       1  UNL1       -0.2044
     31 C           7.7636   -5.4212   29.4931 C.2     1  UNL1        0.4056
     32 O           6.3972   -5.4660   28.8760 O.2     1  UNL1       -0.2261
     33 N           8.1005   -4.3548   30.4928 N.am    1  UNL1       -0.2452
     34 H           8.9973   -4.3254   30.8978 H       1  UNL1        0.1584
     35 C           8.4942   -7.4417   28.0323 C.3     1  UNL1        0.2574
     36 O           8.7933   -6.4427   29.1105 O.3     1  UNL1       -0.4304
@<TRIPOS>BOND
     1    35    36    1
     2    36    31    1
     3    31    32    2
     4    31    33   am
     5    33     1    1
     6     1     2   ar
     7     2     3    1
     8     2     4   ar
     9     4     5   ar
    10     5    13    1
    11    13    14   ar
    12    14    15   ar
    13    15    23    1
    14    23    24    1
    15    24    25   ar
    16    25    26   ar
    17    26    27   ar
    18    27    28   ar
    19    28    29   ar
    20    29    30    1
    21    15    16   ar
    22    16    17   ar
    23    17    18   ar
    24    18    19   ar
    25    19    20    1
    26    19    21   ar
    27    21    22   ar
    28     5     6   ar
    29     6     7   ar
    30     7     8    1
    31     7     1   ar
    32    22    13   ar
    33    29    24   ar
    34    22    16   ar
    35    33    34    1
    36     3     9    1
    37     3    10    1
    38     8    11    1
    39     8    12    1
@<TRIPOS>MOLECULE
*****
 36 39 0 0 0
SMALL
GASTEIGER

@<TRIPOS>ATOM
      1 C           3.2017    0.2965   27.8687 C.ar    1  UNL1        0.1160
      2 C           4.1697   -0.8396   28.0183 C.ar    1  UNL1        0.1435
      3 N           4.7218   -1.1813   29.3705 N.pl3   1  UNL1       -0.3415
      4 N           4.5856   -1.6339   26.8158 N.ar    1  UNL1       -0.2093
      5 C           4.0335   -1.2922   25.4636 C.ar    1  UNL1        0.1844
      6 N           3.0655   -0.1560   25.3140 N.ar    1  UNL1       -0.2093
      7 C           2.6496    0.6382   26.5166 C.ar    1  UNL1        0.1435
      8 N           1.6816    1.7742   26.3669 N.pl3   1  UNL1       -0.3415
      9 H           4.4488   -0.6600   30.1598 H       1  UNL1        0.1438
     10 H           5.3571   -1.9269   29.4687 H       1  UNL1        0.1438
     11 H           1.3193    1.9985   25.4794 H       1  UNL1        0.1438
     12 H           1.4086    2.2956   27.1561 H       1  UNL1        0.1438
     13 C           4.4494   -2.0865   24.2611 C.ar    1  UNL1        0.1396
     14 N           3.7626   -2.0922   22.9276 N.ar    1  UNL1       -0.1645
     15 N           4.5139   -3.0237   22.0233 N.ar    1  UNL1       -0.2293
     16 C           5.6650   -3.5937   22.7979 C.ar    1  UNL1        0.1614
     17 N           6.7443   -4.5654   22.4225 N.ar    1  UNL1       -0.2230
     18 C           7.7838   -4.9577   23.4302 C.ar    1  UNL1        0.1301
     19 C           7.7440   -4.3785   24.8132 C.ar    1  UNL1        0.1594
     20 F           8.7835   -4.7709   25.8210 F       1  UNL1       -0.2025
     21 C           6.6647   -3.4068   25.1886 C.ar    1  UNL1        0.0360
     22 C           5.6252   -3.0144   24.1809 C.ar    1  UNL1        0.0601
     23 C           4.1737   -3.3313   20.5951 C.3     1  UNL1        0.1577
     24 C           3.7995   -2.2218   19.6575 C.ar    1  UNL1        0.0296
     25 C           2.7252   -1.2472   20.0396 C.ar    1  UNL1       -0.0001
     26 C           2.3509   -0.1377   19.1022 C.ar    1  UNL1       -0.0001
     27 C           3.0511   -0.0028   17.7825 C.ar    1  UNL1        0.0023
     28 C           4.1254   -0.9773   17.4003 C.ar    1  UNL1        0.0294
     29 C           4.4997   -2.0868   18.3378 C.ar    1  UNL1        0.1380
     30 F           5.5740   -3.0614   17.9556 F       1  UNL1       -0.2044
     31 C           1.5582    0.7007   29.8399 C.2     1  UNL1        0.4056
     32 O           0.7465   -0.4837   29.4060 O.2     1  UNL1       -0.2261
     33 N           2.7858    1.0908   29.0713 N.am    1  UNL1       -0.2452
     34 H           3.3186    1.8681   29.3561 H       1  UNL1        0.1584
     35 C           2.0387    1.5625   32.2433 C.3     1  UNL1        0.2574
     36 O           1.1424    1.4950   31.0425 O.3     1  UNL1       -0.4304
@<TRIPOS>BOND
     1    35    36    1
     2    36    31    1
     3    31    32    2
     4    31    33   am
     5    33     1    1
     6     1     2   ar
     7     2     3    1
     8     2     4   ar
     9     4     5   ar
    10     5    13    1
    11    13    14   ar
    12    14    15   ar
    13    15    23    1
    14    23    24    1
    15    24    25   ar
    16    25    26   ar
    17    26    27   ar
    18    27    28   ar
    19    28    29   ar
    20    29    30    1
    21    15    16   ar
    22    16    17   ar
    23    17    18   ar
    24    18    19   ar
    25    19    20    1
    26    19    21   ar
    27    21    22   ar
    28     5     6   ar
    29     6     7   ar
    30     7     8    1
    31     7     1   ar
    32    22    13   ar
    33    29    24   ar
    34    22    16   ar
    35    33    34    1
    36     3     9    1
    37     3    10    1
    38     8    11    1
    39     8    12    1
@<TRIPOS>MOLECULE
*****
 36 39 0 0 0
SMALL
GASTEIGER

@<TRIPOS>ATOM
      1 C           6.7937   -5.2831   28.0200 C.ar    1  UNL1        0.1160
      2 C           7.0063   -6.1879   26.8427 C.ar    1  UNL1        0.1435
      3 N           7.3520   -7.6314   27.0589 N.pl3   1  UNL1       -0.3415
      4 N           6.8732   -5.6492   25.4491 N.ar    1  UNL1       -0.2093
      5 C           6.5276   -4.2057   25.2328 C.ar    1  UNL1        0.1844
      6 N           6.3149   -3.3009   26.4102 N.ar    1  UNL1       -0.2093
      7 C           6.4480   -3.8396   27.8038 C.ar    1  UNL1        0.1435
      8 N           6.2354   -2.9348   28.9811 N.pl3   1  UNL1       -0.3415
      9 H           7.4393   -7.9850   27.9736 H       1  UNL1        0.1438
     10 H           7.4915   -8.2253   26.2862 H       1  UNL1        0.1438
     11 H           6.0085   -1.9874   28.8391 H       1  UNL1        0.1438
     12 H           6.3227   -3.2883   29.8957 H       1  UNL1        0.1438
     13 C           6.3945   -3.6670   23.8392 C.ar    1  UNL1        0.1396
     14 N           5.5477   -4.2486   22.7463 N.ar    1  UNL1       -0.1645
     15 N           5.7147   -3.3931   21.5255 N.ar    1  UNL1       -0.2293
     16 C           6.6648   -2.2828   21.8640 C.ar    1  UNL1        0.1614
     17 N           7.2016   -1.1395   21.0549 N.ar    1  UNL1       -0.2230
     18 C           8.1585   -0.1655   21.6758 C.ar    1  UNL1        0.1301
     19 C           8.5786   -0.3347   23.1058 C.ar    1  UNL1        0.1594
     20 F           9.5356    0.6394   23.7267 F       1  UNL1       -0.2025
     21 C           8.0418   -1.4780   23.9149 C.ar    1  UNL1        0.0360
     22 C           7.0849   -2.4521   23.2940 C.ar    1  UNL1        0.0601
     23 C           5.0487   -3.6099   20.1991 C.3     1  UNL1        0.1577
     24 C           4.4133   -2.4560   19.4814 C.ar    1  UNL1        0.0296
     25 C           3.2316   -1.7563   20.0848 C.ar    1  UNL1       -0.0001
     26 C           2.5962   -0.6025   19.3672 C.ar    1  UNL1       -0.0001
     27 C           3.1426   -0.1483   18.0462 C.ar    1  UNL1        0.0023
     28 C           4.3243   -0.8480   17.4428 C.ar    1  UNL1        0.0294
     29 C           4.9597   -2.0018   18.1603 C.ar    1  UNL1        0.1380
     30 F           6.1414   -2.7014   17.5569 F       1  UNL1       -0.2044
     31 C           8.2666   -5.8351   30.0878 C.2     1  UNL1        0.4056
     32 O           9.4734   -5.3097   29.3685 O.2     1  UNL1       -0.2261
     33 N           6.9268   -5.8219   29.4136 N.am    1  UNL1       -0.2452
     34 H           6.1347   -6.1667   29.8858 H       1  UNL1        0.1584
     35 C           9.5204   -7.3120   31.8190 C.3     1  UNL1        0.2574
     36 O           8.3996   -6.3739   31.4814 O.3     1  UNL1       -0.4304
@<TRIPOS>BOND
     1    35    36    1
     2    36    31    1
     3    31    32    2
     4    31    33   am
     5    33     1    1
     6     1     2   ar
     7     2     3    1
     8     2     4   ar
     9     4     5   ar
    10     5    13    1
    11    13    14   ar
    12    14    15   ar
    13    15    23    1
    14    23    24    1
    15    24    25   ar
    16    25    26   ar
    17    26    27   ar
    18    27    28   ar
    19    28    29   ar
    20    29    30    1
    21    15    16   ar
    22    16    17   ar
    23    17    18   ar
    24    18    19   ar
    25    19    20    1
    26    19    21   ar
    27    21    22   ar
    28     5     6   ar
    29     6     7   ar
    30     7     8    1
    31     7     1   ar
    32    22    13   ar
    33    29    24   ar
    34    22    16   ar
    35    33    34    1
    36     3     9    1
    37     3    10    1
    38     8    11    1
    39     8    12    1
@<TRIPOS>MOLECULE
*****
 36 39 0 0 0
SMALL
GASTEIGER

@<TRIPOS>ATOM
      1 C           4.4174   -0.7284   29.5140 C.ar    1  UNL1        0.1160
      2 C           3.4421   -0.9775   28.4019 C.ar    1  UNL1        0.1435
      3 N           1.9848   -0.6849   28.6028 N.pl3   1  UNL1       -0.3415
      4 N           3.9243   -1.5192   27.0888 N.ar    1  UNL1       -0.2093
      5 C           5.3816   -1.8118   26.8878 C.ar    1  UNL1        0.1844
      6 N           6.3569   -1.5627   28.0000 N.ar    1  UNL1       -0.2093
      7 C           5.8748   -1.0209   29.3130 C.ar    1  UNL1        0.1435
      8 N           6.8501   -0.7718   30.4251 N.pl3   1  UNL1       -0.3415
      9 H           1.6683   -0.3294   29.4646 H       1  UNL1        0.1438
     10 H           1.3447   -0.8484   27.8729 H       1  UNL1        0.1438
     11 H           7.8066   -0.9639   30.2931 H       1  UNL1        0.1438
     12 H           6.5337   -0.4163   31.2869 H       1  UNL1        0.1438
     13 C           5.8638   -2.3536   25.5748 C.ar    1  UNL1        0.1396
     14 N           5.7853   -1.6541   24.2502 N.ar    1  UNL1       -0.1645
     15 N           6.3821   -2.5581   23.2126 N.ar    1  UNL1       -0.2293
     16 C           6.8293   -3.8163   23.8959 C.ar    1  UNL1        0.1614
     17 N           7.4869   -5.0608   23.3774 N.ar    1  UNL1       -0.2230
     18 C           7.8241   -6.1788   24.3188 C.ar    1  UNL1        0.1301
     19 C           7.5038   -6.0523   25.7788 C.ar    1  UNL1        0.1594
     20 F           7.8410   -7.1704   26.7202 F       1  UNL1       -0.2025
     21 C           6.8462   -4.8079   26.2973 C.ar    1  UNL1        0.0360
     22 C           6.5090   -3.6899   25.3559 C.ar    1  UNL1        0.0601
     23 C           6.5093   -2.2569   21.7487 C.3     1  UNL1        0.1577
     24 C           5.5033   -2.8047   20.7801 C.ar    1  UNL1        0.0296
     25 C           4.2017   -2.0905   20.5664 C.ar    1  UNL1       -0.0001
     26 C           3.1958   -2.6381   19.5979 C.ar    1  UNL1       -0.0001
     27 C           3.4915   -3.9001   18.8429 C.ar    1  UNL1        0.0023
     28 C           4.7932   -4.6143   19.0566 C.ar    1  UNL1        0.0294
     29 C           5.7991   -4.0667   20.0251 C.ar    1  UNL1        0.1380
     30 F           7.1007   -4.7809   20.2387 F       1  UNL1       -0.2044
     31 C           4.0311   -1.0271   32.0658 C.2     1  UNL1        0.4056
     32 O           4.6091   -2.4092   31.9914 O.2     1  UNL1       -0.2261
     33 N           3.9352   -0.1866   30.8270 N.am    1  UNL1       -0.2452
     34 H           3.5559    0.7205   30.8758 H       1  UNL1        0.1584
     35 C           4.4869   -0.4041   34.5465 C.3     1  UNL1        0.2574
     36 O           3.5489   -0.4852   33.3788 O.3     1  UNL1       -0.4304
@<TRIPOS>BOND
     1    35    36    1
     2    36    31    1
     3    31    32    2
     4    31    33   am
     5    33     1    1
     6     1     2   ar
     7     2     3    1
     8     2     4   ar
     9     4     5   ar
    10     5    13    1
    11    13    14   ar
    12    14    15   ar
    13    15    23    1
    14    23    24    1
    15    24    25   ar
    16    25    26   ar
    17    26    27   ar
    18    27    28   ar
    19    28    29   ar
    20    29    30    1
    21    15    16   ar
    22    16    17   ar
    23    17    18   ar
    24    18    19   ar
    25    19    20    1
    26    19    21   ar
    27    21    22   ar
    28     5     6   ar
    29     6     7   ar
    30     7     8    1
    31     7     1   ar
    32    22    13   ar
    33    29    24   ar
    34    22    16   ar
    35    33    34    1
    36     3     9    1
    37     3    10    1
    38     8    11    1
    39     8    12    1
