@<TRIPOS>MOLECULE
*****
 45 49 0 0 0
SMALL
GASTEIGER

@<TRIPOS>ATOM
      1 N           3.6008    0.3357   21.5526 N.ar    1  UNL1       -0.3260
      2 C           3.1251   -0.3441   20.3030 C.ar    1  UNL1        0.0433
      3 C           3.4955   -1.7947   20.3947 C.ar    1  UNL1        0.0383
      4 C           4.2003   -2.0115   21.7010 C.ar    1  UNL1        0.0256
      5 C           4.7911   -3.2377   22.3313 C.ar    1  UNL1        0.0389
      6 C           5.4470   -3.1472   23.6772 C.ar    1  UNL1        0.1392
      7 C           5.5121   -1.8305   24.3928 C.ar    1  UNL1        0.0384
      8 C           4.9213   -0.6043   23.7625 C.ar    1  UNL1        0.0203
      9 C           4.2653   -0.6948   22.4166 C.ar    1  UNL1        0.0606
     10 C           3.4403    1.7906   21.8806 C.3     1  UNL1        0.1324
     11 C          -0.1141    3.1810   24.2644 C.ar    1  UNL1        0.0358
     12 C           0.3793    1.7716   24.4063 C.ar    1  UNL1        0.0028
     13 C           1.5641    1.3081   23.6117 C.ar    1  UNL1       -0.0023
     14 C           2.2556    2.2540   22.6752 C.ar    1  UNL1        0.0004
     15 C           1.7622    3.6635   22.5333 C.ar    1  UNL1       -0.0023
     16 C           0.5774    4.1270   23.3279 C.ar    1  UNL1        0.0028
     17 C          -3.6685    4.5716   26.6482 C.ar    1  UNL1        0.1769
     18 C          -3.8728    3.8344   25.3579 C.ar    1  UNL1        0.1389
     19 N          -2.6880    3.3709   24.5633 N.ar    1  UNL1       -0.2218
     20 C          -1.2989    3.6445   25.0590 C.ar    1  UNL1        0.1625
     21 N          -1.0947    4.3817   26.3493 N.ar    1  UNL1       -0.2218
     22 C          -2.2794    4.8452   27.1439 C.ar    1  UNL1        0.1389
     23 C          -5.9917    5.7295   26.7561 C.3     1  UNL1        0.2526
     24 O          -4.8532    5.0351   27.4428 O.3     1  UNL1       -0.4683
     25 C           2.4052    0.3116   19.1620 C.3     1  UNL1        0.0495
     26 C           1.2153    1.1850   19.4286 C.3     1  UNL1        0.0376
     27 C           0.5336    0.0441   20.1239 C.3     1  UNL1        0.0059
     28 C           1.8970    2.3260   18.7333 C.3     1  UNL1        0.0059
     29 C           0.0253    2.0585   19.6953 C.2     1  UNL1        0.0500
     30 O          -0.8551    1.7857   20.8788 O.co2   1  UNL1       -0.5492
     31 O          -0.2843    3.2047   18.7786 O.co2   1  UNL1       -0.5492
     32 S           3.2112   -2.8444   19.3616 S.3     1  UNL1       -0.1142
     33 C           4.2466   -3.8815   19.0413 C.3     1  UNL1        0.0434
     34 C           3.3589   -4.9452   19.6160 C.3     1  UNL1        0.0112
     35 C           5.1343   -2.8176   18.4666 C.3     1  UNL1        0.0112
     36 C           5.2820   -4.9184   18.7210 C.3     1  UNL1        0.0112
     37 O           6.0379   -4.3734   24.3076 O.3     1  UNL1       -0.4690
     38 C           7.2683   -4.2607   25.1581 C.3     1  UNL1        0.2508
     39 C           7.2133   -4.6338   26.6099 C.ar    1  UNL1        0.1026
     40 C           6.6429   -3.6726   27.6102 C.ar    1  UNL1        0.0181
     41 C           6.5879   -4.0457   29.0621 C.ar    1  UNL1       -0.0014
     42 C           7.1032   -5.3801   29.5135 C.ar    1  UNL1       -0.0027
     43 C           7.0482   -5.7532   30.9653 C.3     1  UNL1        0.0327
     44 C           7.6736   -6.3413   28.5132 C.ar    1  UNL1        0.0943
     45 N           7.7287   -5.9682   27.0614 N.ar    1  UNL1       -0.2448
@<TRIPOS>UNITY_ATOM_ATTR
30 1
charge -1
@<TRIPOS>BOND
     1    23    24    1
     2    24    17    1
     3    17    18   ar
     4    18    19   ar
     5    19    20   ar
     6    20    11    1
     7    11    12   ar
     8    12    13   ar
     9    13    14   ar
    10    14    10    1
    11    10     1    1
    12     1     2   ar
    13     2    25    1
    14    25    26    1
    15    26    27    1
    16    26    28    1
    17    26    29    1
    18    29    30   ar
    19    29    31   ar
    20     2     3   ar
    21     3    32    1
    22    32    33    1
    23    33    34    1
    24    33    35    1
    25    33    36    1
    26     3     4   ar
    27     4     5   ar
    28     5     6   ar
    29     6    37    1
    30    37    38    1
    31    38    39    1
    32    39    40   ar
    33    40    41   ar
    34    41    42   ar
    35    42    43    1
    36    42    44   ar
    37    44    45   ar
    38     6     7   ar
    39     7     8   ar
    40     8     9   ar
    41    14    15   ar
    42    15    16   ar
    43    20    21   ar
    44    21    22   ar
    45    22    17   ar
    46    16    11   ar
    47     9     1   ar
    48     9     4   ar
    49    45    39   ar
@<TRIPOS>MOLECULE
*****
 45 49 0 0 0
SMALL
GASTEIGER

@<TRIPOS>ATOM
      1 N           4.2558    0.4712   22.4135 N.ar    1  UNL1       -0.3260
      2 C           4.1668   -0.5328   21.3026 C.ar    1  UNL1        0.0433
      3 C           4.6192   -1.8586   21.8389 C.ar    1  UNL1        0.0383
      4 C           4.9879   -1.6739   23.2811 C.ar    1  UNL1        0.0256
      5 C           5.4991   -2.6309   24.3168 C.ar    1  UNL1        0.0389
      6 C           5.7857   -2.1480   25.7077 C.ar    1  UNL1        0.1392
      7 C           5.5611   -0.7080   26.0628 C.ar    1  UNL1        0.0384
      8 C           5.0499    0.2490   25.0271 C.ar    1  UNL1        0.0203
      9 C           4.7633   -0.2340   23.6362 C.ar    1  UNL1        0.0606
     10 C           3.8999    1.9253   22.3183 C.3     1  UNL1        0.1324
     11 C          -0.4194    3.1803   22.1824 C.ar    1  UNL1        0.0358
     12 C           0.5766    3.8194   21.2608 C.ar    1  UNL1        0.0028
     13 C           2.0164    3.4011   21.3061 C.ar    1  UNL1       -0.0023
     14 C           2.4602    2.3436   22.2730 C.ar    1  UNL1        0.0004
     15 C           1.4640    1.7045   23.1946 C.ar    1  UNL1       -0.0023
     16 C           0.0243    2.1228   23.1494 C.ar    1  UNL1        0.0028
     17 C          -4.7387    4.4352   22.0467 C.ar    1  UNL1        0.1769
     18 C          -3.8186    5.0244   23.0745 C.ar    1  UNL1        0.1389
     19 N          -2.3788    4.6061   23.1197 N.ar    1  UNL1       -0.2218
     20 C          -1.8592    3.5986   22.1372 C.ar    1  UNL1        0.1625
     21 N          -2.7794    3.0095   21.1095 N.ar    1  UNL1       -0.2218
     22 C          -4.2192    3.4278   21.0643 C.ar    1  UNL1        0.1389
     23 C          -7.1638    4.2559   22.9617 C.3     1  UNL1        0.2526
     24 O          -6.1785    4.8535   22.0015 O.3     1  UNL1       -0.4683
     25 C           3.7062   -0.2591   19.9016 C.3     1  UNL1        0.0495
     26 C           2.2818    0.1341   19.6437 C.3     1  UNL1        0.0376
     27 C           2.7448    1.1619   18.6541 C.3     1  UNL1        0.0059
     28 C           1.8189   -0.8936   20.6333 C.3     1  UNL1        0.0059
     29 C           0.8574    0.5275   19.3858 C.2     1  UNL1        0.0500
     30 O           0.4967    1.2540   18.1240 O.co2   1  UNL1       -0.5492
     31 O          -0.2062    0.1943   20.3896 O.co2   1  UNL1       -0.5492
     32 S           4.6905   -3.1435   21.0682 S.3     1  UNL1       -0.1142
     33 C           5.1487   -3.1369   19.6398 C.3     1  UNL1        0.0434
     34 C           3.8007   -3.6311   19.2052 C.3     1  UNL1        0.0112
     35 C           6.4966   -2.6428   20.0745 C.3     1  UNL1        0.0112
     36 C           5.6068   -3.1304   18.2115 C.3     1  UNL1        0.0112
     37 O           6.2969   -3.1049   26.7436 O.3     1  UNL1       -0.4690
     38 C           7.6420   -3.7465   26.5730 C.3     1  UNL1        0.2508
     39 C           7.8126   -5.2129   26.8385 C.ar    1  UNL1        0.1026
     40 C           7.5507   -6.2081   25.7472 C.ar    1  UNL1        0.0181
     41 C           7.7213   -7.6746   26.0127 C.ar    1  UNL1       -0.0014
     42 C           8.1539   -8.1458   27.3694 C.ar    1  UNL1       -0.0027
     43 C           8.3245   -9.6122   27.6348 C.3     1  UNL1        0.0327
     44 C           8.4158   -7.1506   28.4607 C.ar    1  UNL1        0.0943
     45 N           8.2452   -5.6842   28.1953 N.ar    1  UNL1       -0.2448
@<TRIPOS>UNITY_ATOM_ATTR
30 1
charge -1
@<TRIPOS>BOND
     1    23    24    1
     2    24    17    1
     3    17    18   ar
     4    18    19   ar
     5    19    20   ar
     6    20    11    1
     7    11    12   ar
     8    12    13   ar
     9    13    14   ar
    10    14    10    1
    11    10     1    1
    12     1     2   ar
    13     2    25    1
    14    25    26    1
    15    26    27    1
    16    26    28    1
    17    26    29    1
    18    29    30   ar
    19    29    31   ar
    20     2     3   ar
    21     3    32    1
    22    32    33    1
    23    33    34    1
    24    33    35    1
    25    33    36    1
    26     3     4   ar
    27     4     5   ar
    28     5     6   ar
    29     6    37    1
    30    37    38    1
    31    38    39    1
    32    39    40   ar
    33    40    41   ar
    34    41    42   ar
    35    42    43    1
    36    42    44   ar
    37    44    45   ar
    38     6     7   ar
    39     7     8   ar
    40     8     9   ar
    41    14    15   ar
    42    15    16   ar
    43    20    21   ar
    44    21    22   ar
    45    22    17   ar
    46    16    11   ar
    47     9     1   ar
    48     9     4   ar
    49    45    39   ar
@<TRIPOS>MOLECULE
*****
 45 49 0 0 0
SMALL
GASTEIGER

@<TRIPOS>ATOM
      1 N           3.4291   -0.6880   19.2921 N.ar    1  UNL1       -0.3260
      2 C           4.4736    0.1056   18.5647 C.ar    1  UNL1        0.0433
      3 C           3.9513    1.4995   18.3797 C.ar    1  UNL1        0.0383
      4 C           2.5840    1.5674   18.9927 C.ar    1  UNL1        0.0256
      5 C           1.5912    2.6856   19.1103 C.ar    1  UNL1        0.0389
      6 C           0.2756    2.4519   19.7918 C.ar    1  UNL1        0.1392
      7 C          -0.0472    1.0999   20.3557 C.ar    1  UNL1        0.0384
      8 C           0.9456   -0.0183   20.2381 C.ar    1  UNL1        0.0203
      9 C           2.2612    0.2154   19.5566 C.ar    1  UNL1        0.0606
     10 C           3.5339   -2.1316   19.6858 C.3     1  UNL1        0.1324
     11 C           5.4748   -3.2655   23.5842 C.ar    1  UNL1        0.0358
     12 C           5.7195   -4.0915   22.3563 C.ar    1  UNL1        0.0028
     13 C           5.0726   -3.7136   21.0568 C.ar    1  UNL1       -0.0023
     14 C           4.1808   -2.5096   20.9852 C.ar    1  UNL1        0.0004
     15 C           3.9361   -1.6835   22.2131 C.ar    1  UNL1       -0.0023
     16 C           4.5830   -2.0614   23.5126 C.ar    1  UNL1        0.0028
     17 C           7.4155   -4.3992   27.4826 C.ar    1  UNL1        0.1769
     18 C           6.6654   -3.1054   27.3666 C.ar    1  UNL1        0.1389
     19 N           6.0185   -2.7275   26.0672 N.ar    1  UNL1       -0.2218
     20 C           6.1217   -3.6434   24.8836 C.ar    1  UNL1        0.1625
     21 N           6.8718   -4.9371   24.9997 N.ar    1  UNL1       -0.2218
     22 C           7.5187   -5.3151   26.2992 C.ar    1  UNL1        0.1389
     23 C           7.3144   -5.6142   29.7768 C.3     1  UNL1        0.2526
     24 O           8.0624   -4.7771   28.7821 O.3     1  UNL1       -0.4683
     25 C           5.8064   -0.4051   18.1033 C.3     1  UNL1        0.0495
     26 C           6.7520   -1.0287   19.0866 C.3     1  UNL1        0.0376
     27 C           6.6019    0.1621   19.9862 C.3     1  UNL1        0.0059
     28 C           6.9020   -2.2196   18.1870 C.3     1  UNL1        0.0059
     29 C           7.6975   -1.6524   20.0700 C.2     1  UNL1        0.0500
     30 O           8.6237   -2.7470   19.6293 O.co2   1  UNL1       -0.5492
     31 O           7.7169   -1.1816   21.4940 O.co2   1  UNL1       -0.5492
     32 S           4.6702    2.6275   17.7008 S.3     1  UNL1       -0.1142
     33 C           5.9406    3.1683   18.2873 C.3     1  UNL1        0.0434
     34 C           6.6860    2.7558   17.0528 C.3     1  UNL1        0.0112
     35 C           5.1950    3.5808   19.5217 C.3     1  UNL1        0.0112
     36 C           7.2108    3.7091   18.8738 C.3     1  UNL1        0.0112
     37 O          -0.7173    3.5701   19.9095 O.3     1  UNL1       -0.4690
     38 C          -2.1805    3.2639   20.0332 C.3     1  UNL1        0.2508
     39 C          -2.8607    3.3781   21.3652 C.ar    1  UNL1        0.1026
     40 C          -2.1164    3.9360   22.5420 C.ar    1  UNL1        0.0181
     41 C          -2.7967    4.0501   23.8740 C.ar    1  UNL1       -0.0014
     42 C          -4.2211    3.6064   24.0292 C.ar    1  UNL1       -0.0027
     43 C          -4.9012    3.7205   25.3612 C.3     1  UNL1        0.0327
     44 C          -4.9653    3.0485   22.8524 C.ar    1  UNL1        0.0943
     45 N          -4.2851    2.9343   21.5204 N.ar    1  UNL1       -0.2448
@<TRIPOS>UNITY_ATOM_ATTR
30 1
charge -1
@<TRIPOS>BOND
     1    23    24    1
     2    24    17    1
     3    17    18   ar
     4    18    19   ar
     5    19    20   ar
     6    20    11    1
     7    11    12   ar
     8    12    13   ar
     9    13    14   ar
    10    14    10    1
    11    10     1    1
    12     1     2   ar
    13     2    25    1
    14    25    26    1
    15    26    27    1
    16    26    28    1
    17    26    29    1
    18    29    30   ar
    19    29    31   ar
    20     2     3   ar
    21     3    32    1
    22    32    33    1
    23    33    34    1
    24    33    35    1
    25    33    36    1
    26     3     4   ar
    27     4     5   ar
    28     5     6   ar
    29     6    37    1
    30    37    38    1
    31    38    39    1
    32    39    40   ar
    33    40    41   ar
    34    41    42   ar
    35    42    43    1
    36    42    44   ar
    37    44    45   ar
    38     6     7   ar
    39     7     8   ar
    40     8     9   ar
    41    14    15   ar
    42    15    16   ar
    43    20    21   ar
    44    21    22   ar
    45    22    17   ar
    46    16    11   ar
    47     9     1   ar
    48     9     4   ar
    49    45    39   ar
@<TRIPOS>MOLECULE
*****
 45 49 0 0 0
SMALL
GASTEIGER

@<TRIPOS>ATOM
      1 N           3.8511   -0.8557   18.7370 N.ar    1  UNL1       -0.3260
      2 C           4.6328    0.2552   18.1007 C.ar    1  UNL1        0.0433
      3 C           3.8756    1.5332   18.3089 C.ar    1  UNL1        0.0383
      4 C           2.6259    1.2122   19.0740 C.ar    1  UNL1        0.0256
      5 C           1.4998    2.0735   19.5639 C.ar    1  UNL1        0.0389
      6 C           0.3586    1.4585   20.3183 C.ar    1  UNL1        0.1392
      7 C           0.3434   -0.0180   20.5829 C.ar    1  UNL1        0.0384
      8 C           1.4695   -0.8793   20.0930 C.ar    1  UNL1        0.0203
      9 C           2.6107   -0.2642   19.3386 C.ar    1  UNL1        0.0606
     10 C           4.2411   -2.3037   18.7667 C.3     1  UNL1        0.1324
     11 C           6.2577   -4.0169   22.4065 C.ar    1  UNL1        0.0358
     12 C           7.0136   -3.8981   21.1164 C.ar    1  UNL1        0.0028
     13 C           6.3414   -3.3271   19.9031 C.ar    1  UNL1       -0.0023
     14 C           4.9133   -2.8748   19.9799 C.ar    1  UNL1        0.0004
     15 C           4.1574   -2.9935   21.2701 C.ar    1  UNL1       -0.0023
     16 C           4.8295   -3.5646   22.4834 C.ar    1  UNL1        0.0028
     17 C           8.2741   -5.7300   26.0465 C.ar    1  UNL1        0.1769
     18 C           8.4267   -6.4065   24.7164 C.ar    1  UNL1        0.1389
     19 N           7.7545   -5.8355   23.5031 N.ar    1  UNL1       -0.2218
     20 C           6.9298   -4.5879   23.6199 C.ar    1  UNL1        0.1625
     21 N           6.7772   -3.9115   24.9500 N.ar    1  UNL1       -0.2218
     22 C           7.4494   -4.4825   26.1633 C.ar    1  UNL1        0.1389
     23 C           8.1248   -6.9285   28.3468 C.3     1  UNL1        0.2526
     24 O           8.9462   -6.3010   27.2598 O.3     1  UNL1       -0.4683
     25 C           5.9418    0.1130   17.3823 C.3     1  UNL1        0.0495
     26 C           7.1611    0.8179   17.8984 C.3     1  UNL1        0.0376
     27 C           6.9312    0.2218   19.2555 C.3     1  UNL1        0.0059
     28 C           7.3910    1.4140   16.5413 C.3     1  UNL1        0.0059
     29 C           8.3804    1.5228   18.4147 C.2     1  UNL1        0.0500
     30 O           9.5041    1.8597   17.4799 O.co2   1  UNL1       -0.5492
     31 O           8.4760    1.8908   19.8657 O.co2   1  UNL1       -0.5492
     32 S           4.2945    2.8934   17.8353 S.3     1  UNL1       -0.1142
     33 C           4.1861    4.0739   18.7544 C.3     1  UNL1        0.0434
     34 C           3.1609    4.6864   17.8468 C.3     1  UNL1        0.0112
     35 C           5.2113    3.4614   19.6620 C.3     1  UNL1        0.0112
     36 C           4.0777    5.2543   19.6736 C.3     1  UNL1        0.0112
     37 O          -0.7676    2.3198   20.8082 O.3     1  UNL1       -0.4690
     38 C          -0.5298    3.3106   21.9090 C.3     1  UNL1        0.2508
     39 C          -0.6165    2.8752   23.3417 C.ar    1  UNL1        0.1026
     40 C           0.3186    1.8252   23.8644 C.ar    1  UNL1        0.0181
     41 C           0.2318    1.3897   25.2972 C.ar    1  UNL1       -0.0014
     42 C          -0.7900    2.0042   26.2073 C.ar    1  UNL1       -0.0027
     43 C          -0.8767    1.5687   27.6400 C.3     1  UNL1        0.0327
     44 C          -1.7251    3.0542   25.6846 C.ar    1  UNL1        0.0943
     45 N          -1.6384    3.4897   24.2519 N.ar    1  UNL1       -0.2448
@<TRIPOS>UNITY_ATOM_ATTR
30 1
charge -1
@<TRIPOS>BOND
     1    23    24    1
     2    24    17    1
     3    17    18   ar
     4    18    19   ar
     5    19    20   ar
     6    20    11    1
     7    11    12   ar
     8    12    13   ar
     9    13    14   ar
    10    14    10    1
    11    10     1    1
    12     1     2   ar
    13     2    25    1
    14    25    26    1
    15    26    27    1
    16    26    28    1
    17    26    29    1
    18    29    30   ar
    19    29    31   ar
    20     2     3   ar
    21     3    32    1
    22    32    33    1
    23    33    34    1
    24    33    35    1
    25    33    36    1
    26     3     4   ar
    27     4     5   ar
    28     5     6   ar
    29     6    37    1
    30    37    38    1
    31    38    39    1
    32    39    40   ar
    33    40    41   ar
    34    41    42   ar
    35    42    43    1
    36    42    44   ar
    37    44    45   ar
    38     6     7   ar
    39     7     8   ar
    40     8     9   ar
    41    14    15   ar
    42    15    16   ar
    43    20    21   ar
    44    21    22   ar
    45    22    17   ar
    46    16    11   ar
    47     9     1   ar
    48     9     4   ar
    49    45    39   ar
@<TRIPOS>MOLECULE
*****
 45 49 0 0 0
SMALL
GASTEIGER

@<TRIPOS>ATOM
      1 N           3.9561   -0.8295   18.7079 N.ar    1  UNL1       -0.3260
      2 C           4.6887    0.3077   18.0599 C.ar    1  UNL1        0.0433
      3 C           3.9054    1.5633   18.3050 C.ar    1  UNL1        0.0383
      4 C           2.6887    1.2020   19.1045 C.ar    1  UNL1        0.0256
      5 C           1.5563    2.0286   19.6379 C.ar    1  UNL1        0.0389
      6 C           0.4553    1.3763   20.4203 C.ar    1  UNL1        0.1392
      7 C           0.4866   -0.1026   20.6693 C.ar    1  UNL1        0.0384
      8 C           1.6190   -0.9291   20.1359 C.ar    1  UNL1        0.0203
      9 C           2.7200   -0.2769   19.3535 C.ar    1  UNL1        0.0606
     10 C           4.3843   -2.2671   18.7100 C.3     1  UNL1        0.1324
     11 C           6.2455   -4.0552   22.3963 C.ar    1  UNL1        0.0358
     12 C           7.0637   -3.8833   21.1510 C.ar    1  UNL1        0.0028
     13 C           6.4434   -3.2872   19.9222 C.ar    1  UNL1       -0.0023
     14 C           5.0047   -2.8631   19.9387 C.ar    1  UNL1        0.0004
     15 C           4.1864   -3.0351   21.1841 C.ar    1  UNL1       -0.0023
     16 C           4.8067   -3.6311   22.4129 C.ar    1  UNL1        0.0028
     17 C           8.1066   -5.8433   26.0826 C.ar    1  UNL1        0.1769
     18 C           8.4127   -6.4208   24.7324 C.ar    1  UNL1        0.1389
     19 N           7.7923   -5.8248   23.5036 N.ar    1  UNL1       -0.2218
     20 C           6.8658   -4.6513   23.6250 C.ar    1  UNL1        0.1625
     21 N           6.5598   -4.0739   24.9752 N.ar    1  UNL1       -0.2218
     22 C           7.1801   -4.6699   26.2040 C.ar    1  UNL1        0.1389
     23 C           8.6153   -7.9129   27.5685 C.3     1  UNL1        0.2526
     24 O           8.7269   -6.4394   27.3113 O.3     1  UNL1       -0.4683
     25 C           5.9782    0.2071   17.3002 C.3     1  UNL1        0.0495
     26 C           7.2052    0.9032   17.8099 C.3     1  UNL1        0.0376
     27 C           7.0181    0.2527   19.1485 C.3     1  UNL1        0.0059
     28 C           7.3923    1.5536   16.4713 C.3     1  UNL1        0.0059
     29 C           8.4323    1.5992   18.3197 C.2     1  UNL1        0.0500
     30 O           9.5360    1.9640   17.3717 O.co2   1  UNL1       -0.5492
     31 O           8.5557    1.9304   19.7775 O.co2   1  UNL1       -0.5492
     32 S           4.2741    2.9387   17.8334 S.3     1  UNL1       -0.1142
     33 C           4.1705    4.1056   18.7703 C.3     1  UNL1        0.0434
     34 C           5.2341    3.5024   19.6392 C.3     1  UNL1        0.0112
     35 C           3.1069    4.7087   17.9014 C.3     1  UNL1        0.0112
     36 C           4.0669    5.2725   19.7071 C.3     1  UNL1        0.0112
     37 O          -0.6771    2.2028   20.9537 O.3     1  UNL1       -0.4690
     38 C          -1.1787    3.3809   20.1723 C.3     1  UNL1        0.2508
     39 C          -2.6326    3.4813   19.8172 C.ar    1  UNL1        0.1026
     40 C          -3.0409    3.9728   18.4601 C.ar    1  UNL1        0.0181
     41 C          -4.4949    4.0732   18.1050 C.ar    1  UNL1       -0.0014
     42 C          -5.5404    3.6821   19.1070 C.ar    1  UNL1       -0.0027
     43 C          -6.9942    3.7825   18.7519 C.3     1  UNL1        0.0327
     44 C          -5.1320    3.1907   20.4641 C.ar    1  UNL1        0.0943
     45 N          -3.6781    3.0903   20.8192 N.ar    1  UNL1       -0.2448
@<TRIPOS>UNITY_ATOM_ATTR
30 1
charge -1
@<TRIPOS>BOND
     1    23    24    1
     2    24    17    1
     3    17    18   ar
     4    18    19   ar
     5    19    20   ar
     6    20    11    1
     7    11    12   ar
     8    12    13   ar
     9    13    14   ar
    10    14    10    1
    11    10     1    1
    12     1     2   ar
    13     2    25    1
    14    25    26    1
    15    26    27    1
    16    26    28    1
    17    26    29    1
    18    29    30   ar
    19    29    31   ar
    20     2     3   ar
    21     3    32    1
    22    32    33    1
    23    33    34    1
    24    33    35    1
    25    33    36    1
    26     3     4   ar
    27     4     5   ar
    28     5     6   ar
    29     6    37    1
    30    37    38    1
    31    38    39    1
    32    39    40   ar
    33    40    41   ar
    34    41    42   ar
    35    42    43    1
    36    42    44   ar
    37    44    45   ar
    38     6     7   ar
    39     7     8   ar
    40     8     9   ar
    41    14    15   ar
    42    15    16   ar
    43    20    21   ar
    44    21    22   ar
    45    22    17   ar
    46    16    11   ar
    47     9     1   ar
    48     9     4   ar
    49    45    39   ar
@<TRIPOS>MOLECULE
*****
 45 49 0 0 0
SMALL
GASTEIGER

@<TRIPOS>ATOM
      1 N          -1.1505    3.6781   21.7165 N.ar    1  UNL1       -0.3260
      2 C          -2.3884    4.5245   21.7511 C.ar    1  UNL1        0.0433
      3 C          -2.9386    4.4841   23.1459 C.ar    1  UNL1        0.0383
      4 C          -2.0408    3.6127   23.9734 C.ar    1  UNL1        0.0256
      5 C          -2.0868    3.2085   25.4171 C.ar    1  UNL1        0.0389
      6 C          -1.0277    2.3062   25.9774 C.ar    1  UNL1        0.1392
      7 C           0.0775    1.8080   25.0939 C.ar    1  UNL1        0.0384
      8 C           0.1235    2.2122   23.6501 C.ar    1  UNL1        0.0203
      9 C          -0.9357    3.1146   23.0899 C.ar    1  UNL1        0.0606
     10 C          -0.2802    3.4374   20.5187 C.3     1  UNL1        0.1324
     11 C           2.5997   -0.0202   20.4880 C.ar    1  UNL1        0.0358
     12 C           3.1044    1.3743   20.7128 C.ar    1  UNL1        0.0028
     13 C           2.1445    2.5269   20.7231 C.ar    1  UNL1       -0.0023
     14 C           0.6797    2.2850   20.5084 C.ar    1  UNL1        0.0004
     15 C           0.1750    0.8904   20.2836 C.ar    1  UNL1       -0.0023
     16 C           1.1349   -0.2622   20.2733 C.ar    1  UNL1        0.0028
     17 C           5.4794   -3.4779   20.4572 C.ar    1  UNL1        0.1769
     18 C           4.1743   -3.5824   19.7252 C.ar    1  UNL1        0.1389
     19 N           3.2144   -2.4298   19.7355 N.ar    1  UNL1       -0.2218
     20 C           3.5596   -1.1728   20.4777 C.ar    1  UNL1        0.1625
     21 N           4.8647   -1.0684   21.2097 N.ar    1  UNL1       -0.2218
     22 C           5.8246   -2.2210   21.1995 C.ar    1  UNL1        0.1389
     23 C           7.8278   -4.4550   20.9868 C.3     1  UNL1        0.2526
     24 O           6.4394   -4.6305   20.4470 O.3     1  UNL1       -0.4683
     25 C          -2.9733    5.2789   20.5940 C.3     1  UNL1        0.0495
     26 C          -3.2010    4.5845   19.2841 C.3     1  UNL1        0.0376
     27 C          -4.1236    3.6135   19.9592 C.3     1  UNL1        0.0059
     28 C          -2.2784    5.5556   18.6090 C.3     1  UNL1        0.0059
     29 C          -3.4287    3.8901   17.9741 C.2     1  UNL1        0.0500
     30 O          -2.3164    3.7951   16.9723 O.co2   1  UNL1       -0.5492
     31 O          -4.7688    3.2906   17.6661 O.co2   1  UNL1       -0.5492
     32 S          -4.1704    5.1910   23.6286 S.3     1  UNL1       -0.1142
     33 C          -5.5194    4.7821   23.1156 C.3     1  UNL1        0.0434
     34 C          -5.7834    6.1943   22.6843 C.3     1  UNL1        0.0112
     35 C          -5.2554    3.3700   23.5471 C.3     1  UNL1        0.0112
     36 C          -6.8683    4.3732   22.6027 C.3     1  UNL1        0.0112
     37 O          -1.0736    1.9019   27.4212 O.3     1  UNL1       -0.4690
     38 C          -0.3961    0.6407   27.8688 C.3     1  UNL1        0.2508
     39 C           0.5319    0.6654   29.0471 C.ar    1  UNL1        0.1026
     40 C           0.4475    1.7822   30.0449 C.ar    1  UNL1        0.0181
     41 C           1.3755    1.8069   31.2232 C.ar    1  UNL1       -0.0014
     42 C           2.3878    0.7148   31.4036 C.ar    1  UNL1       -0.0027
     43 C           3.3157    0.7395   32.5818 C.3     1  UNL1        0.0327
     44 C           2.4722   -0.4020   30.4057 C.ar    1  UNL1        0.0943
     45 N           1.5442   -0.4267   29.2275 N.ar    1  UNL1       -0.2448
@<TRIPOS>UNITY_ATOM_ATTR
30 1
charge -1
@<TRIPOS>BOND
     1    23    24    1
     2    24    17    1
     3    17    18   ar
     4    18    19   ar
     5    19    20   ar
     6    20    11    1
     7    11    12   ar
     8    12    13   ar
     9    13    14   ar
    10    14    10    1
    11    10     1    1
    12     1     2   ar
    13     2    25    1
    14    25    26    1
    15    26    27    1
    16    26    28    1
    17    26    29    1
    18    29    30   ar
    19    29    31   ar
    20     2     3   ar
    21     3    32    1
    22    32    33    1
    23    33    34    1
    24    33    35    1
    25    33    36    1
    26     3     4   ar
    27     4     5   ar
    28     5     6   ar
    29     6    37    1
    30    37    38    1
    31    38    39    1
    32    39    40   ar
    33    40    41   ar
    34    41    42   ar
    35    42    43    1
    36    42    44   ar
    37    44    45   ar
    38     6     7   ar
    39     7     8   ar
    40     8     9   ar
    41    14    15   ar
    42    15    16   ar
    43    20    21   ar
    44    21    22   ar
    45    22    17   ar
    46    16    11   ar
    47     9     1   ar
    48     9     4   ar
    49    45    39   ar
@<TRIPOS>MOLECULE
*****
 45 49 0 0 0
SMALL
GASTEIGER

@<TRIPOS>ATOM
      1 N           5.6527   -0.0644   19.7928 N.ar    1  UNL1       -0.3260
      2 C           4.4076   -0.4735   19.0633 C.ar    1  UNL1        0.0433
      3 C           3.3948    0.6210   19.2252 C.ar    1  UNL1        0.0383
      4 C           4.0140    1.7066   20.0547 C.ar    1  UNL1        0.0256
      5 C           3.4875    3.0261   20.5358 C.ar    1  UNL1        0.0389
      6 C           4.3564    3.9220   21.3679 C.ar    1  UNL1        0.1392
      7 C           5.7519    3.4983   21.7187 C.ar    1  UNL1        0.0384
      8 C           6.2785    2.1788   21.2375 C.ar    1  UNL1        0.0203
      9 C           5.4095    1.2830   20.4055 C.ar    1  UNL1        0.0606
     10 C           6.9189   -0.8626   19.8922 C.3     1  UNL1        0.1324
     11 C           7.2931   -4.1134   22.9812 C.ar    1  UNL1        0.0358
     12 C           6.4965   -2.8790   23.2841 C.ar    1  UNL1        0.0028
     13 C           6.3717   -1.7954   22.2545 C.ar    1  UNL1       -0.0023
     14 C           7.0436   -1.9461   20.9218 C.ar    1  UNL1        0.0004
     15 C           7.8402   -3.1806   20.6189 C.ar    1  UNL1       -0.0023
     16 C           7.9649   -4.2642   21.6486 C.ar    1  UNL1        0.0028
     17 C           7.6673   -7.3643   26.0701 C.ar    1  UNL1        0.1769
     18 C           8.1690   -7.5938   24.6752 C.ar    1  UNL1        0.1389
     19 N           8.0442   -6.5102   23.6456 N.ar    1  UNL1       -0.2218
     20 C           7.4178   -5.1970   24.0108 C.ar    1  UNL1        0.1625
     21 N           6.9162   -4.9676   25.4057 N.ar    1  UNL1       -0.2218
     22 C           7.0409   -6.0512   26.4354 C.ar    1  UNL1        0.1389
     23 C           8.9206   -8.4178   28.0874 C.3     1  UNL1        0.2526
     24 O           7.7921   -8.4479   27.0998 O.3     1  UNL1       -0.4683
     25 C           4.2099   -1.7526   18.3051 C.3     1  UNL1        0.0495
     26 C           4.3287   -3.0699   19.0126 C.3     1  UNL1        0.0376
     27 C           3.2665   -2.6447   19.9826 C.3     1  UNL1        0.0059
     28 C           5.3909   -3.4951   18.0426 C.3     1  UNL1        0.0059
     29 C           4.4474   -4.3873   19.7202 C.2     1  UNL1        0.0500
     30 O           4.7328   -5.6353   18.9386 O.co2   1  UNL1       -0.5492
     31 O           4.2808   -4.4565   21.2093 O.co2   1  UNL1       -0.5492
     32 S           2.0065    0.6287   18.6572 S.3     1  UNL1       -0.1142
     33 C           0.8679    1.1747   19.4669 C.3     1  UNL1        0.0434
     34 C           1.0183    0.0438   20.4409 C.3     1  UNL1        0.0112
     35 C           0.7175    2.3054   18.4930 C.3     1  UNL1        0.0112
     36 C          -0.2707    1.7206   20.2766 C.3     1  UNL1        0.0112
     37 O           3.8299    5.2416   21.8491 O.3     1  UNL1       -0.4690
     38 C           3.3815    5.3962   23.2721 C.3     1  UNL1        0.2508
     39 C           2.4866    4.3648   23.8929 C.ar    1  UNL1        0.1026
     40 C           2.8887    3.6962   25.1740 C.ar    1  UNL1        0.0181
     41 C           1.9938    2.6647   25.7947 C.ar    1  UNL1       -0.0014
     42 C           0.6968    2.3019   25.1343 C.ar    1  UNL1       -0.0027
     43 C          -0.1980    1.2705   25.7550 C.3     1  UNL1        0.0327
     44 C           0.2947    2.9705   23.8531 C.ar    1  UNL1        0.0943
     45 N           1.1896    4.0019   23.2324 N.ar    1  UNL1       -0.2448
@<TRIPOS>UNITY_ATOM_ATTR
30 1
charge -1
@<TRIPOS>BOND
     1    23    24    1
     2    24    17    1
     3    17    18   ar
     4    18    19   ar
     5    19    20   ar
     6    20    11    1
     7    11    12   ar
     8    12    13   ar
     9    13    14   ar
    10    14    10    1
    11    10     1    1
    12     1     2   ar
    13     2    25    1
    14    25    26    1
    15    26    27    1
    16    26    28    1
    17    26    29    1
    18    29    30   ar
    19    29    31   ar
    20     2     3   ar
    21     3    32    1
    22    32    33    1
    23    33    34    1
    24    33    35    1
    25    33    36    1
    26     3     4   ar
    27     4     5   ar
    28     5     6   ar
    29     6    37    1
    30    37    38    1
    31    38    39    1
    32    39    40   ar
    33    40    41   ar
    34    41    42   ar
    35    42    43    1
    36    42    44   ar
    37    44    45   ar
    38     6     7   ar
    39     7     8   ar
    40     8     9   ar
    41    14    15   ar
    42    15    16   ar
    43    20    21   ar
    44    21    22   ar
    45    22    17   ar
    46    16    11   ar
    47     9     1   ar
    48     9     4   ar
    49    45    39   ar
@<TRIPOS>MOLECULE
*****
 45 49 0 0 0
SMALL
GASTEIGER

@<TRIPOS>ATOM
      1 N           4.1935    0.4616   22.4249 N.ar    1  UNL1       -0.3260
      2 C           4.1086   -0.5853   21.3540 C.ar    1  UNL1        0.0433
      3 C           4.5492   -1.8910   21.9464 C.ar    1  UNL1        0.0383
      4 C           4.9064   -1.6511   23.3834 C.ar    1  UNL1        0.0256
      5 C           5.4035   -2.5688   24.4608 C.ar    1  UNL1        0.0389
      6 C           5.6807   -2.0324   25.8339 C.ar    1  UNL1        0.1392
      7 C           5.4608   -0.5784   26.1296 C.ar    1  UNL1        0.0384
      8 C           4.9637    0.3393   25.0522 C.ar    1  UNL1        0.0203
      9 C           4.6865   -0.1971   23.6791 C.ar    1  UNL1        0.0606
     10 C           3.8462    1.9125   22.2690 C.3     1  UNL1        0.1324
     11 C          -0.4593    3.2181   22.3590 C.ar    1  UNL1        0.0358
     12 C           0.0223    2.1562   23.3025 C.ar    1  UNL1        0.0028
     13 C           1.4575    1.7209   23.2725 C.ar    1  UNL1       -0.0023
     14 C           2.4111    2.3477   22.2990 C.ar    1  UNL1        0.0004
     15 C           1.9295    3.4097   21.3554 C.ar    1  UNL1       -0.0023
     16 C           0.4944    3.8449   21.3854 C.ar    1  UNL1        0.0028
     17 C          -4.7647    4.5239   22.4488 C.ar    1  UNL1        0.1769
     18 C          -3.7899    5.0851   23.4412 C.ar    1  UNL1        0.1389
     19 N          -2.3548    4.6499   23.4113 N.ar    1  UNL1       -0.2218
     20 C          -1.8944    3.6534   22.3889 C.ar    1  UNL1        0.1625
     21 N          -2.8692    3.0921   21.3966 N.ar    1  UNL1       -0.2218
     22 C          -4.3044    3.5274   21.4265 C.ar    1  UNL1        0.1389
     23 C          -6.9221    5.2506   21.1969 C.3     1  UNL1        0.2526
     24 O          -6.1998    4.9591   22.4788 O.3     1  UNL1       -0.4683
     25 C           3.6616   -0.3652   19.9392 C.3     1  UNL1        0.0495
     26 C           2.2626    0.0969   19.6580 C.3     1  UNL1        0.0376
     27 C           2.7927    1.1131   18.6904 C.3     1  UNL1        0.0059
     28 C           1.7324   -0.9192   20.6256 C.3     1  UNL1        0.0059
     29 C           0.8635    0.5591   19.3767 C.2     1  UNL1        0.0500
     30 O           0.5481    1.2518   18.0842 O.co2   1  UNL1       -0.5492
     31 O          -0.2201    0.3286   20.3880 O.co2   1  UNL1       -0.5492
     32 S           4.6202   -3.2059   21.2280 S.3     1  UNL1       -0.1142
     33 C           5.0599   -3.2546   19.7947 C.3     1  UNL1        0.0434
     34 C           3.7022   -3.7515   19.3951 C.3     1  UNL1        0.0112
     35 C           6.4176   -2.7578   20.1943 C.3     1  UNL1        0.0112
     36 C           5.4997   -3.3033   18.3614 C.3     1  UNL1        0.0112
     37 O           6.1778   -2.9501   26.9113 O.3     1  UNL1       -0.4690
     38 C           6.9713   -2.3989   28.0588 C.3     1  UNL1        0.2508
     39 C           6.3660   -2.3411   29.4300 C.ar    1  UNL1        0.1026
     40 C           6.7711   -3.3417   30.4715 C.ar    1  UNL1        0.0181
     41 C           6.1658   -3.2838   31.8427 C.ar    1  UNL1       -0.0014
     42 C           5.1555   -2.2253   32.1725 C.ar    1  UNL1       -0.0027
     43 C           4.5502   -2.1675   33.5437 C.3     1  UNL1        0.0327
     44 C           4.7504   -1.2247   31.1310 C.ar    1  UNL1        0.0943
     45 N           5.3556   -1.2826   29.7598 N.ar    1  UNL1       -0.2448
@<TRIPOS>UNITY_ATOM_ATTR
30 1
charge -1
@<TRIPOS>BOND
     1    23    24    1
     2    24    17    1
     3    17    18   ar
     4    18    19   ar
     5    19    20   ar
     6    20    11    1
     7    11    12   ar
     8    12    13   ar
     9    13    14   ar
    10    14    10    1
    11    10     1    1
    12     1     2   ar
    13     2    25    1
    14    25    26    1
    15    26    27    1
    16    26    28    1
    17    26    29    1
    18    29    30   ar
    19    29    31   ar
    20     2     3   ar
    21     3    32    1
    22    32    33    1
    23    33    34    1
    24    33    35    1
    25    33    36    1
    26     3     4   ar
    27     4     5   ar
    28     5     6   ar
    29     6    37    1
    30    37    38    1
    31    38    39    1
    32    39    40   ar
    33    40    41   ar
    34    41    42   ar
    35    42    43    1
    36    42    44   ar
    37    44    45   ar
    38     6     7   ar
    39     7     8   ar
    40     8     9   ar
    41    14    15   ar
    42    15    16   ar
    43    20    21   ar
    44    21    22   ar
    45    22    17   ar
    46    16    11   ar
    47     9     1   ar
    48     9     4   ar
    49    45    39   ar
@<TRIPOS>MOLECULE
*****
 45 49 0 0 0
SMALL
GASTEIGER

@<TRIPOS>ATOM
      1 N           5.1899    0.3877   21.3387 N.ar    1  UNL1       -0.3260
      2 C           5.0003   -0.7605   20.3922 C.ar    1  UNL1        0.0433
      3 C           5.7832   -1.9275   20.9165 C.ar    1  UNL1        0.0383
      4 C           6.4567   -1.5008   22.1870 C.ar    1  UNL1        0.0256
      5 C           7.3565   -2.2302   23.1400 C.ar    1  UNL1        0.0389
      6 C           7.8897   -1.5287   24.3540 C.ar    1  UNL1        0.1392
      7 C           7.5230   -0.0978   24.6149 C.ar    1  UNL1        0.0384
      8 C           6.6232    0.6316   23.6619 C.ar    1  UNL1        0.0203
      9 C           6.0901   -0.0698   22.4480 C.ar    1  UNL1        0.0606
     10 C           4.5856    1.7535   21.2003 C.3     1  UNL1        0.1324
     11 C           0.6564    2.6874   23.1849 C.ar    1  UNL1        0.0358
     12 C           1.5377    1.6069   23.7377 C.ar    1  UNL1        0.0028
     13 C           2.8475    1.2955   23.0762 C.ar    1  UNL1       -0.0023
     14 C           3.2759    2.0648   21.8618 C.ar    1  UNL1        0.0004
     15 C           2.3945    3.1454   21.3090 C.ar    1  UNL1       -0.0023
     16 C           1.0847    3.4567   21.9705 C.ar    1  UNL1        0.0028
     17 C          -3.2729    3.6214   25.1695 C.ar    1  UNL1        0.1769
     18 C          -3.1220    3.7928   23.6869 C.ar    1  UNL1        0.1389
     19 N          -1.8123    3.4815   23.0254 N.ar    1  UNL1       -0.2218
     20 C          -0.6534    2.9987   23.8464 C.ar    1  UNL1        0.1625
     21 N          -0.8043    2.8273   25.3289 N.ar    1  UNL1       -0.2218
     22 C          -2.1141    3.1386   25.9905 C.ar    1  UNL1        0.1389
     23 C          -5.7770    4.2920   24.9978 C.3     1  UNL1        0.2526
     24 O          -4.5826    3.9327   25.8310 O.3     1  UNL1       -0.4683
     25 C           4.1729   -0.7443   19.1411 C.3     1  UNL1        0.0495
     26 C           2.7466   -0.2827   19.1910 C.3     1  UNL1        0.0376
     27 C           2.4665   -1.2670   20.2876 C.3     1  UNL1        0.0059
     28 C           3.0268    0.7016   18.0944 C.3     1  UNL1        0.0059
     29 C           1.3202    0.1789   19.2410 C.2     1  UNL1        0.0500
     30 O           0.7196    0.8876   18.0633 O.co2   1  UNL1       -0.5492
     31 O           0.4946   -0.0682   20.4686 O.co2   1  UNL1       -0.5492
     32 S           5.8763   -3.2834   20.2818 S.3     1  UNL1       -0.1142
     33 C           4.6358   -4.1009   20.0736 C.3     1  UNL1        0.0434
     34 C           4.3963   -4.1145   21.5543 C.3     1  UNL1        0.0112
     35 C           4.8754   -4.0872   18.5930 C.3     1  UNL1        0.0112
     36 C           3.3955   -4.9183   19.8654 C.3     1  UNL1        0.0112
     37 O           8.7895   -2.2581   25.3070 O.3     1  UNL1       -0.4690
     38 C           8.2250   -2.8601   26.5596 C.3     1  UNL1        0.2508
     39 C           8.1715   -4.3508   26.7172 C.ar    1  UNL1        0.1026
     40 C           7.7037   -5.2090   25.5793 C.ar    1  UNL1        0.0181
     41 C           7.6502   -6.6998   25.7370 C.ar    1  UNL1       -0.0014
     42 C           8.0644   -7.3323   27.0324 C.ar    1  UNL1       -0.0027
     43 C           8.0109   -8.8230   27.1900 C.3     1  UNL1        0.0327
     44 C           8.5322   -6.4742   28.1703 C.ar    1  UNL1        0.0943
     45 N           8.5858   -4.9835   28.0127 N.ar    1  UNL1       -0.2448
@<TRIPOS>UNITY_ATOM_ATTR
30 1
charge -1
@<TRIPOS>BOND
     1    23    24    1
     2    24    17    1
     3    17    18   ar
     4    18    19   ar
     5    19    20   ar
     6    20    11    1
     7    11    12   ar
     8    12    13   ar
     9    13    14   ar
    10    14    10    1
    11    10     1    1
    12     1     2   ar
    13     2    25    1
    14    25    26    1
    15    26    27    1
    16    26    28    1
    17    26    29    1
    18    29    30   ar
    19    29    31   ar
    20     2     3   ar
    21     3    32    1
    22    32    33    1
    23    33    34    1
    24    33    35    1
    25    33    36    1
    26     3     4   ar
    27     4     5   ar
    28     5     6   ar
    29     6    37    1
    30    37    38    1
    31    38    39    1
    32    39    40   ar
    33    40    41   ar
    34    41    42   ar
    35    42    43    1
    36    42    44   ar
    37    44    45   ar
    38     6     7   ar
    39     7     8   ar
    40     8     9   ar
    41    14    15   ar
    42    15    16   ar
    43    20    21   ar
    44    21    22   ar
    45    22    17   ar
    46    16    11   ar
    47     9     1   ar
    48     9     4   ar
    49    45    39   ar
