@<TRIPOS>MOLECULE
*****
 29 32 0 0 0
SMALL
GASTEIGER

@<TRIPOS>ATOM
      1 C          -5.4892  -18.5655   21.9057 C.3     1  UNL1        0.0749
      2 C          -6.9549  -18.7994   22.1217 C.3     1  UNL1        0.0444
      3 C          -7.8221  -19.2317   20.9767 C.ar    1  UNL1       -0.0101
      4 C          -7.2234  -19.4301   19.6157 C.ar    1  UNL1       -0.0091
      5 C          -8.0907  -19.8624   18.4706 C.ar    1  UNL1       -0.0032
      6 C          -9.5565  -20.0963   18.6866 C.ar    1  UNL1        0.0010
      7 C         -10.1551  -19.8979   20.0476 C.ar    1  UNL1        0.0142
      8 C          -9.2880  -19.4656   21.1926 C.ar    1  UNL1        0.0436
      9 C          -5.7577  -19.1961   19.3997 C.3     1  UNL1        0.0954
     10 N          -4.8905  -18.7638   20.5448 N.3     1  UNL1       -0.2934
     11 H          -4.4694  -17.8746   20.2758 H       1  UNL1        0.1236
     12 N          -9.8866  -19.2673   22.5536 N.pl3   1  UNL1       -0.3049
     13 C          -9.6341  -20.2727   23.6378 C.3     1  UNL1        0.1079
     14 C         -10.2328  -20.0743   24.9988 C.3     1  UNL1        0.0903
     15 N         -11.0839  -18.8705   25.2755 N.3     1  UNL1       -0.2946
     16 C         -11.3363  -17.8652   24.1914 C.3     1  UNL1        0.0903
     17 C         -10.7377  -18.0636   22.8304 C.3     1  UNL1        0.1079
     18 H         -10.6422  -18.3684   26.0457 H       1  UNL1        0.1233
     19 C          -4.6219  -18.1331   23.0508 C.3     1  UNL1        0.0886
     20 N          -3.8284  -16.8640   22.9531 N.3     1  UNL1       -0.2653
     21 C          -2.4131  -16.9006   22.4573 C.3     1  UNL1        0.0900
     22 C          -4.4500  -15.5582   23.3513 C.3     1  UNL1        0.1187
     23 C          -8.6954  -15.4254   27.5891 C.3     1  UNL1        0.0327
     24 C          -7.6340  -15.4586   26.5297 C.ar    1  UNL1       -0.0027
     25 C          -6.1854  -15.4455   26.9186 C.ar    1  UNL1       -0.0015
     26 C          -5.1241  -15.4787   25.8592 C.ar    1  UNL1        0.0158
     27 C          -5.5114  -15.5250   24.4108 C.ar    1  UNL1        0.0752
     28 N          -6.9600  -15.5381   24.0218 N.ar    1  UNL1       -0.2471
     29 C          -8.0213  -15.5049   25.0813 C.ar    1  UNL1        0.0942
@<TRIPOS>BOND
     1    23    24    1
     2    24    25   ar
     3    25    26   ar
     4    26    27   ar
     5    27    22    1
     6    22    20    1
     7    20    21    1
     8    20    19    1
     9     1    19    1
    10     1     2    1
    11     2     3    1
    12     3     4   ar
    13     4     5   ar
    14     5     6   ar
    15     6     7   ar
    16     7     8   ar
    17     8    12    1
    18    12    13    1
    19    13    14    1
    20    14    15    1
    21    15    16    1
    22    16    17    1
    23     4     9    1
    24     9    10    1
    25    27    28   ar
    26    28    29   ar
    27    29    24   ar
    28    10     1    1
    29     8     3   ar
    30    17    12    1
    31    15    18    1
    32    10    11    1
@<TRIPOS>MOLECULE
*****
 29 32 0 0 0
SMALL
GASTEIGER

@<TRIPOS>ATOM
      1 C          -8.1332  -18.8655   20.2370 C.3     1  UNL1        0.0749
      2 C          -8.4249  -17.9755   21.4087 C.3     1  UNL1        0.0444
      3 C          -9.8405  -17.5964   21.7285 C.ar    1  UNL1       -0.0101
      4 C         -10.9644  -18.1072   20.8765 C.ar    1  UNL1       -0.0091
      5 C         -12.3801  -17.7280   21.1963 C.ar    1  UNL1       -0.0032
      6 C         -12.6718  -16.8381   22.3680 C.ar    1  UNL1        0.0010
      7 C         -11.5478  -16.3272   23.2199 C.ar    1  UNL1        0.0142
      8 C         -10.1322  -16.7064   22.9002 C.ar    1  UNL1        0.0436
      9 C         -10.6728  -18.9972   19.7048 C.3     1  UNL1        0.0954
     10 N          -9.2572  -19.3763   19.3851 N.3     1  UNL1       -0.2934
     11 H          -9.0744  -19.0566   18.4339 H       1  UNL1        0.1236
     12 N          -9.0082  -16.1956   23.7521 N.pl3   1  UNL1       -0.3049
     13 C          -9.0373  -16.4058   25.2371 C.3     1  UNL1        0.1079
     14 C          -7.9134  -15.8950   26.0890 C.3     1  UNL1        0.0903
     15 N          -6.7603  -15.1739   25.4560 N.3     1  UNL1       -0.2946
     16 C          -6.7313  -14.9637   23.9711 C.3     1  UNL1        0.0903
     17 C          -7.8553  -15.4745   23.1192 C.3     1  UNL1        0.1079
     18 H          -5.9183  -15.6973   25.6958 H       1  UNL1        0.1233
     19 C          -6.7176  -19.2447   19.9173 C.3     1  UNL1        0.0886
     20 N          -5.9811  -20.2073   20.8009 N.3     1  UNL1       -0.2653
     21 C          -6.5722  -20.6209   22.1161 C.3     1  UNL1        0.0900
     22 C          -4.6536  -20.7565   20.3694 C.3     1  UNL1        0.1187
     23 C           0.1301  -17.1477   20.0653 C.3     1  UNL1        0.0327
     24 C          -1.0658  -18.0499   20.1413 C.ar    1  UNL1       -0.0027
     25 C          -1.3863  -18.7641   21.4208 C.ar    1  UNL1       -0.0015
     26 C          -2.5823  -19.6663   21.4968 C.ar    1  UNL1        0.0158
     27 C          -3.4577  -19.8543   20.2933 C.ar    1  UNL1        0.0752
     28 N          -3.1371  -19.1400   19.0139 N.ar    1  UNL1       -0.2471
     29 C          -1.9412  -18.2379   18.9379 C.ar    1  UNL1        0.0942
@<TRIPOS>BOND
     1    23    24    1
     2    24    25   ar
     3    25    26   ar
     4    26    27   ar
     5    27    22    1
     6    22    20    1
     7    20    21    1
     8    20    19    1
     9     1    19    1
    10     1     2    1
    11     2     3    1
    12     3     4   ar
    13     4     5   ar
    14     5     6   ar
    15     6     7   ar
    16     7     8   ar
    17     8    12    1
    18    12    13    1
    19    13    14    1
    20    14    15    1
    21    15    16    1
    22    16    17    1
    23     4     9    1
    24     9    10    1
    25    27    28   ar
    26    28    29   ar
    27    29    24   ar
    28    10     1    1
    29     8     3   ar
    30    17    12    1
    31    15    18    1
    32    10    11    1
@<TRIPOS>MOLECULE
*****
 29 32 0 0 0
SMALL
GASTEIGER

@<TRIPOS>ATOM
      1 C          -6.9426  -19.7877   21.4527 C.3     1  UNL1        0.0749
      2 C          -6.2889  -18.7126   22.2694 C.3     1  UNL1        0.0444
      3 C          -4.7991  -18.5422   22.2300 C.ar    1  UNL1       -0.0101
      4 C          -3.9631  -19.4467   21.3739 C.ar    1  UNL1       -0.0091
      5 C          -2.4733  -19.2762   21.3345 C.ar    1  UNL1       -0.0032
      6 C          -1.8196  -18.2012   22.1512 C.ar    1  UNL1        0.0010
      7 C          -2.6556  -17.2966   23.0073 C.ar    1  UNL1        0.0142
      8 C          -4.1454  -17.4671   23.0467 C.ar    1  UNL1        0.0436
      9 C          -4.6168  -20.5217   20.5573 C.3     1  UNL1        0.0954
     10 N          -6.1065  -20.6922   20.5967 N.3     1  UNL1       -0.2934
     11 H          -6.2856  -21.6453   20.9129 H       1  UNL1        0.1236
     12 N          -4.9814  -16.5626   23.9027 N.pl3   1  UNL1       -0.3049
     13 C          -4.6384  -16.3720   25.3505 C.3     1  UNL1        0.1079
     14 C          -5.4744  -15.4674   26.2066 C.3     1  UNL1        0.0903
     15 N          -6.6535  -14.7535   25.6149 N.3     1  UNL1       -0.2946
     16 C          -6.9965  -14.9441   24.1671 C.3     1  UNL1        0.0903
     17 C          -6.1604  -15.8486   23.3111 C.3     1  UNL1        0.1079
     18 H          -6.4917  -13.7555   25.7502 H       1  UNL1        0.1233
     19 C          -8.4324  -19.9582   21.4921 C.3     1  UNL1        0.0886
     20 N          -9.3045  -19.1471   20.5803 N.3     1  UNL1       -0.2653
     21 C          -9.4800  -19.5584   19.1485 C.3     1  UNL1        0.0900
     22 C         -10.0010  -17.9246   21.1002 C.3     1  UNL1        0.1187
     23 C         -14.1897  -18.4439   25.3647 C.3     1  UNL1        0.0327
     24 C         -13.1425  -18.3141   24.2985 C.ar    1  UNL1       -0.0027
     25 C         -13.4947  -17.7115   22.9708 C.ar    1  UNL1       -0.0015
     26 C         -12.4475  -17.5817   21.9047 C.ar    1  UNL1        0.0158
     27 C         -11.0482  -18.0544   22.1664 C.ar    1  UNL1        0.0752
     28 N         -10.6961  -18.6570   23.4941 N.ar    1  UNL1       -0.2471
     29 C         -11.7432  -18.7868   24.5601 C.ar    1  UNL1        0.0942
@<TRIPOS>BOND
     1    23    24    1
     2    24    25   ar
     3    25    26   ar
     4    26    27   ar
     5    27    22    1
     6    22    20    1
     7    20    21    1
     8    20    19    1
     9     1    19    1
    10     1     2    1
    11     2     3    1
    12     3     4   ar
    13     4     5   ar
    14     5     6   ar
    15     6     7   ar
    16     7     8   ar
    17     8    12    1
    18    12    13    1
    19    13    14    1
    20    14    15    1
    21    15    16    1
    22    16    17    1
    23     4     9    1
    24     9    10    1
    25    27    28   ar
    26    28    29   ar
    27    29    24   ar
    28    10     1    1
    29     8     3   ar
    30    17    12    1
    31    15    18    1
    32    10    11    1
@<TRIPOS>MOLECULE
*****
 29 32 0 0 0
SMALL
GASTEIGER

@<TRIPOS>ATOM
      1 C          -6.1569  -17.9840   22.0152 C.3     1  UNL1        0.0749
      2 C          -7.4320  -17.6254   22.7192 C.3     1  UNL1        0.0444
      3 C          -7.3920  -16.7886   23.9634 C.ar    1  UNL1       -0.0101
      4 C          -6.0769  -16.3104   24.5037 C.ar    1  UNL1       -0.0091
      5 C          -6.0370  -15.4736   25.7480 C.ar    1  UNL1       -0.0032
      6 C          -7.3120  -15.1150   26.4519 C.ar    1  UNL1        0.0010
      7 C          -8.6271  -15.5932   25.9116 C.ar    1  UNL1        0.0142
      8 C          -8.6671  -16.4300   24.6674 C.ar    1  UNL1        0.0436
      9 C          -4.8019  -16.6690   23.7997 C.3     1  UNL1        0.0954
     10 N          -4.8419  -17.5058   22.5555 N.3     1  UNL1       -0.2934
     11 H          -4.2802  -18.3367   22.7413 H       1  UNL1        0.1236
     12 N          -9.9822  -16.9082   24.1271 N.pl3   1  UNL1       -0.3049
     13 C         -10.5591  -18.2093   24.6008 C.3     1  UNL1        0.1079
     14 C         -11.8742  -18.6875   24.0606 C.3     1  UNL1        0.0903
     15 N         -12.6123  -17.8646   23.0466 N.3     1  UNL1       -0.2946
     16 C         -12.0354  -16.5636   22.5730 C.3     1  UNL1        0.0903
     17 C         -10.7203  -16.0854   23.1132 C.3     1  UNL1        0.1079
     18 H         -13.5259  -17.6529   23.4479 H       1  UNL1        0.1233
     19 C          -6.1969  -18.8208   20.7709 C.3     1  UNL1        0.0886
     20 N          -5.7285  -20.2452   20.8097 N.3     1  UNL1       -0.2653
     21 C          -6.5365  -21.2810   21.5339 C.3     1  UNL1        0.0900
     22 C          -4.4521  -20.6339   20.1243 C.3     1  UNL1        0.1187
     23 C           0.1937  -16.8375   20.0576 C.3     1  UNL1        0.0327
     24 C          -0.9678  -17.7866   20.0743 C.ar    1  UNL1       -0.0027
     25 C          -1.7816  -17.9979   18.8321 C.ar    1  UNL1       -0.0015
     26 C          -2.9430  -18.9470   18.8488 C.ar    1  UNL1        0.0158
     27 C          -3.2906  -19.6848   20.1077 C.ar    1  UNL1        0.0752
     28 N          -2.4768  -19.4735   21.3499 N.ar    1  UNL1       -0.2471
     29 C          -1.3154  -18.5244   21.3332 C.ar    1  UNL1        0.0942
@<TRIPOS>BOND
     1    23    24    1
     2    24    25   ar
     3    25    26   ar
     4    26    27   ar
     5    27    22    1
     6    22    20    1
     7    20    21    1
     8    20    19    1
     9     1    19    1
    10     1     2    1
    11     2     3    1
    12     3     4   ar
    13     4     5   ar
    14     5     6   ar
    15     6     7   ar
    16     7     8   ar
    17     8    12    1
    18    12    13    1
    19    13    14    1
    20    14    15    1
    21    15    16    1
    22    16    17    1
    23     4     9    1
    24     9    10    1
    25    27    28   ar
    26    28    29   ar
    27    29    24   ar
    28    10     1    1
    29     8     3   ar
    30    17    12    1
    31    15    18    1
    32    10    11    1
@<TRIPOS>MOLECULE
*****
 29 32 0 0 0
SMALL
GASTEIGER

@<TRIPOS>ATOM
      1 C          -7.1459  -19.8620   21.8029 C.3     1  UNL1        0.0749
      2 C          -6.5196  -18.7200   22.5467 C.3     1  UNL1        0.0444
      3 C          -5.0678  -18.4006   22.3460 C.ar    1  UNL1       -0.0101
      4 C          -4.2425  -19.2231   21.4014 C.ar    1  UNL1       -0.0091
      5 C          -2.7906  -18.9036   21.2007 C.ar    1  UNL1       -0.0032
      6 C          -2.1643  -17.7616   21.9446 C.ar    1  UNL1        0.0010
      7 C          -2.9896  -16.9390   22.8892 C.ar    1  UNL1        0.0142
      8 C          -4.4413  -17.2585   23.0899 C.ar    1  UNL1        0.0436
      9 C          -4.8689  -20.3651   20.6576 C.3     1  UNL1        0.0954
     10 N          -6.3206  -20.6846   20.8583 N.3     1  UNL1       -0.2934
     11 H          -6.3670  -21.6483   21.1893 H       1  UNL1        0.1236
     12 N          -5.2667  -16.4359   24.0345 N.pl3   1  UNL1       -0.3049
     13 C          -4.8576  -16.3086   25.4721 C.3     1  UNL1        0.1079
     14 C          -5.6830  -15.4861   26.4166 C.3     1  UNL1        0.0903
     15 N          -6.9174  -14.7908   25.9236 N.3     1  UNL1       -0.2946
     16 C          -7.3264  -14.9182   24.4861 C.3     1  UNL1        0.0903
     17 C          -6.5010  -15.7407   23.5416 C.3     1  UNL1        0.1079
     18 H          -6.7874  -13.7957   26.1058 H       1  UNL1        0.1233
     19 C          -8.5978  -20.1816   22.0036 C.3     1  UNL1        0.0886
     20 N          -9.2506  -19.9061   23.3256 N.3     1  UNL1       -0.2653
     21 C          -9.3051  -20.9784   24.3731 C.3     1  UNL1        0.0900
     22 C          -9.8488  -18.5582   23.6003 C.3     1  UNL1        0.1187
     23 C         -12.3192  -15.4057   19.1328 C.3     1  UNL1        0.0327
     24 C         -11.7016  -16.1939   20.2497 C.ar    1  UNL1       -0.0027
     25 C         -12.4192  -17.3841   20.8138 C.ar    1  UNL1       -0.0015
     26 C         -11.8016  -18.1722   21.9307 C.ar    1  UNL1        0.0158
     27 C         -10.4664  -17.7701   22.4834 C.ar    1  UNL1        0.0752
     28 N          -9.7488  -16.5798   21.9193 N.ar    1  UNL1       -0.2471
     29 C         -10.3664  -15.7917   20.8024 C.ar    1  UNL1        0.0942
@<TRIPOS>BOND
     1    23    24    1
     2    24    25   ar
     3    25    26   ar
     4    26    27   ar
     5    27    22    1
     6    22    20    1
     7    20    21    1
     8    20    19    1
     9     1    19    1
    10     1     2    1
    11     2     3    1
    12     3     4   ar
    13     4     5   ar
    14     5     6   ar
    15     6     7   ar
    16     7     8   ar
    17     8    12    1
    18    12    13    1
    19    13    14    1
    20    14    15    1
    21    15    16    1
    22    16    17    1
    23     4     9    1
    24     9    10    1
    25    27    28   ar
    26    28    29   ar
    27    29    24   ar
    28    10     1    1
    29     8     3   ar
    30    17    12    1
    31    15    18    1
    32    10    11    1
@<TRIPOS>MOLECULE
*****
 29 32 0 0 0
SMALL
GASTEIGER

@<TRIPOS>ATOM
      1 C          -6.5622  -19.4475   21.2167 C.3     1  UNL1        0.0749
      2 C          -7.5742  -18.7552   22.0807 C.3     1  UNL1        0.0444
      3 C          -8.9759  -18.5594   21.5839 C.ar    1  UNL1       -0.0101
      4 C          -9.3656  -19.0558   20.2232 C.ar    1  UNL1       -0.0091
      5 C         -10.7674  -18.8599   19.7264 C.ar    1  UNL1       -0.0032
      6 C         -11.7794  -18.1676   20.5904 C.ar    1  UNL1        0.0010
      7 C         -11.3897  -17.6712   21.9512 C.ar    1  UNL1        0.0142
      8 C          -9.9880  -17.8670   22.4480 C.ar    1  UNL1        0.0436
      9 C          -8.3536  -19.7480   19.3592 C.3     1  UNL1        0.0954
     10 N          -6.9519  -19.9439   19.8559 N.3     1  UNL1       -0.2934
     11 H          -6.3353  -19.4832   19.1867 H       1  UNL1        0.1236
     12 N          -9.5983  -17.3706   23.8087 N.pl3   1  UNL1       -0.3049
     13 C          -9.1100  -15.9629   23.9821 C.3     1  UNL1        0.1079
     14 C          -8.7203  -15.4665   25.3429 C.3     1  UNL1        0.0903
     15 N          -8.8189  -16.3778   26.5303 N.3     1  UNL1       -0.2946
     16 C          -9.3071  -17.7854   26.3569 C.3     1  UNL1        0.0903
     17 C          -9.6968  -18.2818   24.9961 C.3     1  UNL1        0.1079
     18 H          -9.4478  -15.9278   27.1954 H       1  UNL1        0.1233
     19 C          -5.1604  -19.6433   21.7134 C.3     1  UNL1        0.0886
     20 N          -4.0434  -18.8135   21.1534 N.3     1  UNL1       -0.2653
     21 C          -3.7834  -18.8047   19.6761 C.3     1  UNL1        0.0900
     22 C          -3.1865  -17.9923   22.0706 C.3     1  UNL1        0.1187
     23 C          -5.6786  -15.0367   26.6591 C.3     1  UNL1        0.0327
     24 C          -5.0556  -15.7757   25.5120 C.ar    1  UNL1       -0.0027
     25 C          -4.2456  -17.0120   25.7676 C.ar    1  UNL1       -0.0015
     26 C          -3.6226  -17.7509   24.6205 C.ar    1  UNL1        0.0158
     27 C          -3.8095  -17.2534   23.2178 C.ar    1  UNL1        0.0752
     28 N          -4.6195  -16.0170   22.9622 N.ar    1  UNL1       -0.2471
     29 C          -5.2425  -15.2782   24.1093 C.ar    1  UNL1        0.0942
@<TRIPOS>BOND
     1    23    24    1
     2    24    25   ar
     3    25    26   ar
     4    26    27   ar
     5    27    22    1
     6    22    20    1
     7    20    21    1
     8    20    19    1
     9     1    19    1
    10     1     2    1
    11     2     3    1
    12     3     4   ar
    13     4     5   ar
    14     5     6   ar
    15     6     7   ar
    16     7     8   ar
    17     8    12    1
    18    12    13    1
    19    13    14    1
    20    14    15    1
    21    15    16    1
    22    16    17    1
    23     4     9    1
    24     9    10    1
    25    27    28   ar
    26    28    29   ar
    27    29    24   ar
    28    10     1    1
    29     8     3   ar
    30    17    12    1
    31    15    18    1
    32    10    11    1
@<TRIPOS>MOLECULE
*****
 29 32 0 0 0
SMALL
GASTEIGER

@<TRIPOS>ATOM
      1 C          -7.4849  -15.8796   23.4307 C.3     1  UNL1        0.0749
      2 C          -7.9805  -17.0027   22.5688 C.3     1  UNL1        0.0444
      3 C          -9.4412  -17.3428   22.5468 C.ar    1  UNL1       -0.0101
      4 C         -10.4063  -16.5599   23.3867 C.ar    1  UNL1       -0.0091
      5 C         -11.8671  -16.9001   23.3647 C.ar    1  UNL1       -0.0032
      6 C         -12.3627  -18.0232   22.5027 C.ar    1  UNL1        0.0010
      7 C         -11.3976  -18.8061   21.6628 C.ar    1  UNL1        0.0142
      8 C          -9.9369  -18.4660   21.6848 C.ar    1  UNL1        0.0436
      9 C          -9.9107  -15.4368   24.2487 C.3     1  UNL1        0.0954
     10 N          -8.4500  -15.0967   24.2707 N.3     1  UNL1       -0.2934
     11 H          -8.1406  -15.1893   25.2382 H       1  UNL1        0.1236
     12 N          -8.9718  -19.2489   20.8448 N.pl3   1  UNL1       -0.3049
     13 C          -9.3364  -19.6282   19.4401 C.3     1  UNL1        0.1079
     14 C          -8.3713  -20.4112   18.6001 C.3     1  UNL1        0.0903
     15 N          -7.0415  -20.8148   19.1649 N.3     1  UNL1       -0.2946
     16 C          -6.6770  -20.4355   20.5695 C.3     1  UNL1        0.0903
     17 C          -7.6421  -19.6525   21.4095 C.3     1  UNL1        0.1079
     18 H          -6.3287  -20.4118   18.5566 H       1  UNL1        0.1233
     19 C          -6.0241  -15.5395   23.4528 C.3     1  UNL1        0.0886
     20 N          -5.1468  -16.0704   24.5475 N.3     1  UNL1       -0.2653
     21 C          -5.1364  -15.4026   25.8907 C.3     1  UNL1        0.0900
     22 C          -4.2799  -17.2690   24.2992 C.3     1  UNL1        0.1187
     23 C          -1.6504  -18.0148   18.9578 C.3     1  UNL1        0.0327
     24 C          -2.3078  -17.8284   20.2932 C.ar    1  UNL1       -0.0027
     25 C          -3.1741  -18.9135   20.8607 C.ar    1  UNL1       -0.0015
     26 C          -3.8314  -18.7270   22.1960 C.ar    1  UNL1        0.0158
     27 C          -3.6225  -17.4554   22.9638 C.ar    1  UNL1        0.0752
     28 N          -2.7562  -16.3704   22.3963 N.ar    1  UNL1       -0.2471
     29 C          -2.0989  -16.5568   21.0610 C.ar    1  UNL1        0.0942
@<TRIPOS>BOND
     1    23    24    1
     2    24    25   ar
     3    25    26   ar
     4    26    27   ar
     5    27    22    1
     6    22    20    1
     7    20    21    1
     8    20    19    1
     9     1    19    1
    10     1     2    1
    11     2     3    1
    12     3     4   ar
    13     4     5   ar
    14     5     6   ar
    15     6     7   ar
    16     7     8   ar
    17     8    12    1
    18    12    13    1
    19    13    14    1
    20    14    15    1
    21    15    16    1
    22    16    17    1
    23     4     9    1
    24     9    10    1
    25    27    28   ar
    26    28    29   ar
    27    29    24   ar
    28    10     1    1
    29     8     3   ar
    30    17    12    1
    31    15    18    1
    32    10    11    1
@<TRIPOS>MOLECULE
*****
 29 32 0 0 0
SMALL
GASTEIGER

@<TRIPOS>ATOM
      1 C          -7.2893  -19.4987   21.3816 C.3     1  UNL1        0.0749
      2 C          -6.2971  -18.6873   22.1607 C.3     1  UNL1        0.0444
      3 C          -4.8270  -18.8822   21.9352 C.ar    1  UNL1       -0.0101
      4 C          -4.3492  -19.8885   20.9306 C.ar    1  UNL1       -0.0091
      5 C          -2.8791  -20.0833   20.7051 C.ar    1  UNL1       -0.0032
      6 C          -1.8868  -19.2720   21.4842 C.ar    1  UNL1        0.0010
      7 C          -2.3646  -18.2657   22.4888 C.ar    1  UNL1        0.0142
      8 C          -3.8346  -18.0708   22.7143 C.ar    1  UNL1        0.0436
      9 C          -5.3415  -20.6999   20.1515 C.3     1  UNL1        0.0954
     10 N          -6.8116  -20.5050   20.3770 N.3     1  UNL1       -0.2934
     11 H          -7.1878  -21.4087   20.6636 H       1  UNL1        0.1236
     12 N          -4.3124  -17.0646   23.7188 N.pl3   1  UNL1       -0.3049
     13 C          -4.9032  -15.7656   23.2565 C.3     1  UNL1        0.1079
     14 C          -5.3810  -14.7593   24.2611 C.3     1  UNL1        0.0903
     15 N          -5.2680  -15.0520   25.7280 N.3     1  UNL1       -0.2946
     16 C          -4.6772  -16.3510   26.1902 C.3     1  UNL1        0.0903
     17 C          -4.1994  -17.3572   25.1856 C.3     1  UNL1        0.1079
     18 H          -6.2121  -15.0050   26.1112 H       1  UNL1        0.1233
     19 C          -8.7595  -19.3039   21.6070 C.3     1  UNL1        0.0886
     20 N          -9.3398  -19.4936   22.9771 N.3     1  UNL1       -0.2653
     21 C          -9.0627  -20.7545   23.7410 C.3     1  UNL1        0.0900
     22 C         -10.1972  -18.4225   23.5835 C.3     1  UNL1        0.1187
     23 C          -7.9481  -14.8204   27.8222 C.3     1  UNL1        0.0327
     24 C          -8.5104  -15.7209   26.7624 C.ar    1  UNL1       -0.0027
     25 C          -8.7770  -15.1852   25.3870 C.ar    1  UNL1       -0.0015
     26 C          -9.3392  -16.0857   24.3274 C.ar    1  UNL1        0.0158
     27 C          -9.6349  -17.5220   24.6432 C.ar    1  UNL1        0.0752
     28 N          -9.3683  -18.0577   26.0186 N.ar    1  UNL1       -0.2471
     29 C          -8.8060  -17.1572   27.0782 C.ar    1  UNL1        0.0942
@<TRIPOS>BOND
     1    23    24    1
     2    24    25   ar
     3    25    26   ar
     4    26    27   ar
     5    27    22    1
     6    22    20    1
     7    20    21    1
     8    20    19    1
     9     1    19    1
    10     1     2    1
    11     2     3    1
    12     3     4   ar
    13     4     5   ar
    14     5     6   ar
    15     6     7   ar
    16     7     8   ar
    17     8    12    1
    18    12    13    1
    19    13    14    1
    20    14    15    1
    21    15    16    1
    22    16    17    1
    23     4     9    1
    24     9    10    1
    25    27    28   ar
    26    28    29   ar
    27    29    24   ar
    28    10     1    1
    29     8     3   ar
    30    17    12    1
    31    15    18    1
    32    10    11    1
@<TRIPOS>MOLECULE
*****
 29 32 0 0 0
SMALL
GASTEIGER

@<TRIPOS>ATOM
      1 C          -8.6307  -16.4649   24.2592 C.3     1  UNL1        0.0749
      2 C          -8.2502  -17.4004   23.1502 C.3     1  UNL1        0.0444
      3 C          -9.1909  -17.6266   22.0039 C.ar    1  UNL1       -0.0101
      4 C         -10.5120  -16.9172   21.9667 C.ar    1  UNL1       -0.0091
      5 C         -11.4526  -17.1434   20.8203 C.ar    1  UNL1       -0.0032
      6 C         -11.0721  -18.0789   19.7113 C.ar    1  UNL1        0.0010
      7 C          -9.7510  -18.7882   19.7485 C.ar    1  UNL1        0.0142
      8 C          -8.8104  -18.5621   20.8948 C.ar    1  UNL1        0.0436
      9 C         -10.8925  -15.9817   23.0757 C.3     1  UNL1        0.0954
     10 N          -9.9519  -15.7556   24.2220 N.3     1  UNL1       -0.2934
     11 H         -10.4524  -16.0206   25.0703 H       1  UNL1        0.1236
     12 N          -7.4892  -19.2715   20.9320 N.pl3   1  UNL1       -0.3049
     13 C          -7.2285  -20.3171   21.9755 C.3     1  UNL1        0.1079
     14 C          -5.9074  -21.0265   22.0128 C.3     1  UNL1        0.0903
     15 N          -4.8469  -20.6902   21.0065 N.3     1  UNL1       -0.2946
     16 C          -5.1076  -19.6446   19.9632 C.3     1  UNL1        0.0903
     17 C          -6.4288  -18.9352   19.9259 C.3     1  UNL1        0.1079
     18 H          -4.6279  -21.5537   20.5098 H       1  UNL1        0.1233
     19 C          -7.6901  -16.2388   25.4056 C.3     1  UNL1        0.0886
     20 N          -6.4295  -15.4530   25.1976 N.3     1  UNL1       -0.2653
     21 C          -5.6749  -14.9190   26.3789 C.3     1  UNL1        0.0900
     22 C          -5.9233  -15.2012   23.8082 C.3     1  UNL1        0.1187
     23 C          -1.3157  -18.3943   21.6693 C.3     1  UNL1        0.0327
     24 C          -2.4676  -17.5960   22.2041 C.ar    1  UNL1       -0.0027
     25 C          -3.5651  -18.2797   22.9643 C.ar    1  UNL1       -0.0015
     26 C          -4.7170  -17.4814   23.4990 C.ar    1  UNL1        0.0158
     27 C          -4.7714  -15.9995   23.2734 C.ar    1  UNL1        0.0752
     28 N          -3.6739  -15.3158   22.5132 N.ar    1  UNL1       -0.2471
     29 C          -2.5220  -16.1141   21.9785 C.ar    1  UNL1        0.0942
@<TRIPOS>BOND
     1    23    24    1
     2    24    25   ar
     3    25    26   ar
     4    26    27   ar
     5    27    22    1
     6    22    20    1
     7    20    21    1
     8    20    19    1
     9     1    19    1
    10     1     2    1
    11     2     3    1
    12     3     4   ar
    13     4     5   ar
    14     5     6   ar
    15     6     7   ar
    16     7     8   ar
    17     8    12    1
    18    12    13    1
    19    13    14    1
    20    14    15    1
    21    15    16    1
    22    16    17    1
    23     4     9    1
    24     9    10    1
    25    27    28   ar
    26    28    29   ar
    27    29    24   ar
    28    10     1    1
    29     8     3   ar
    30    17    12    1
    31    15    18    1
    32    10    11    1
