@<TRIPOS>MOLECULE
*****
 30 33 0 0 0
SMALL
GASTEIGER

@<TRIPOS>ATOM
      1 O           5.0013   -1.9325   27.3534 O.2     1  UNL1       -0.2698
      2 C           4.0974   -0.8243   27.8059 C.2     1  UNL1        0.2524
      3 C           3.2637   -0.1859   26.7346 C.ar    1  UNL1        0.0875
      4 C           3.5194   -0.8115   25.3955 C.ar    1  UNL1        0.0076
      5 C           2.7848   -0.3178   24.1845 C.ar    1  UNL1        0.0003
      6 C           1.7945    0.8015   24.3127 C.ar    1  UNL1        0.0031
      7 C           1.5388    1.4271   25.6517 C.ar    1  UNL1        0.0370
      8 C           2.2734    0.9334   26.8627 C.ar    1  UNL1        0.1429
      9 O           1.8722    1.6907   28.0938 O.3     1  UNL1       -0.4735
     10 C           2.3621    1.5160   29.5007 C.3     1  UNL1        0.2268
     11 C           3.3743    0.5405   30.0240 C.3     1  UNL1        0.1414
     12 N           4.1466   -0.5010   29.2698 N.am    1  UNL1       -0.2651
     13 C           3.0405   -0.9434   22.8454 C.ar    1  UNL1        0.0002
     14 C           4.0327   -2.0610   22.7168 C.ar    1  UNL1        0.0031
     15 C           4.2884   -2.6866   21.3777 C.ar    1  UNL1        0.0372
     16 C           3.5518   -2.1946   20.1671 C.ar    1  UNL1        0.1468
     17 C           2.5596   -1.0770   20.2956 C.ar    1  UNL1        0.0372
     18 C           2.3039   -0.4514   21.6348 C.ar    1  UNL1        0.0031
     19 O           3.8075   -2.8202   18.8280 O.3     1  UNL1       -0.4045
     20 C           4.2813   -4.2408   18.7420 C.3     1  UNL1        0.5753
     21 F           4.7550   -5.6614   18.6560 F       1  UNL1       -0.1328
     22 F           2.8943   -4.7219   19.0498 F       1  UNL1       -0.1328
     23 F           5.6683   -3.7596   18.4342 F       1  UNL1       -0.1328
     24 C           5.0933   -1.3286   30.0876 C.3     1  UNL1        0.1597
     25 C           5.1128   -1.1898   31.5811 C.ar    1  UNL1        0.1592
     26 N           6.0819   -0.2495   32.2343 N.ar    1  UNL1       -0.2274
     27 C           6.1014   -0.1108   33.7277 C.ar    1  UNL1        0.1019
     28 C           5.1518   -0.9122   34.5680 C.ar    1  UNL1        0.0413
     29 C           4.1827   -1.8525   33.9147 C.ar    1  UNL1        0.1019
     30 N           4.1632   -1.9913   32.4213 N.ar    1  UNL1       -0.2274
@<TRIPOS>BOND
     1     1     2    2
     2     2     3    1
     3     3     4   ar
     4     4     5   ar
     5     5    13    1
     6    13    14   ar
     7    14    15   ar
     8    15    16   ar
     9    16    19    1
    10    19    20    1
    11    20    21    1
    12    20    22    1
    13    20    23    1
    14    16    17   ar
    15    17    18   ar
    16     5     6   ar
    17     6     7   ar
    18     7     8   ar
    19     8     9    1
    20     9    10    1
    21    10    11    1
    22    11    12    1
    23    12    24    1
    24    24    25    1
    25    25    26   ar
    26    26    27   ar
    27    27    28   ar
    28    28    29   ar
    29    29    30   ar
    30    12     2   am
    31    30    25   ar
    32     8     3   ar
    33    18    13   ar
@<TRIPOS>MOLECULE
*****
 30 33 0 0 0
SMALL
GASTEIGER

@<TRIPOS>ATOM
      1 O           4.8126    0.1725   27.0535 O.2     1  UNL1       -0.2698
      2 C           3.5625    0.9259   27.3994 C.2     1  UNL1        0.2524
      3 C           2.5289    1.0045   26.3152 C.ar    1  UNL1        0.0875
      4 C           2.9796    0.2901   25.0756 C.ar    1  UNL1        0.0076
      5 C           2.0901    0.2488   23.8685 C.ar    1  UNL1        0.0003
      6 C           0.7501    0.9220   23.9009 C.ar    1  UNL1        0.0031
      7 C           0.2994    1.6364   25.1405 C.ar    1  UNL1        0.0370
      8 C           1.1888    1.6777   26.3476 C.ar    1  UNL1        0.1429
      9 O           0.5514    2.4385   27.4723 O.3     1  UNL1       -0.4735
     10 C           1.0965    2.7141   28.8422 C.3     1  UNL1        0.2268
     11 C           2.4139    2.2969   29.4259 C.3     1  UNL1        0.1414
     12 N           3.5114    1.5010   28.7838 N.am    1  UNL1       -0.2651
     13 C           2.5408   -0.4656   22.6289 C.ar    1  UNL1        0.0002
     14 C           3.6332   -1.4904   22.7091 C.ar    1  UNL1        0.0031
     15 C           4.0839   -2.2048   21.4696 C.ar    1  UNL1        0.0372
     16 C           3.4420   -1.8945   20.1498 C.ar    1  UNL1        0.1468
     17 C           2.3496   -0.8698   20.0696 C.ar    1  UNL1        0.0372
     18 C           1.8989   -0.1553   21.3092 C.ar    1  UNL1        0.0031
     19 O           3.8927   -2.6089   18.9102 O.3     1  UNL1       -0.4045
     20 C           4.2061   -4.0749   18.9615 C.3     1  UNL1        0.5753
     21 F           4.5195   -5.5409   19.0128 F       1  UNL1       -0.1328
     22 F           2.7405   -4.3857   19.0351 F       1  UNL1       -0.1328
     23 F           5.6717   -3.7642   18.8879 F       1  UNL1       -0.1328
     24 C           4.7170    1.2468   29.6392 C.3     1  UNL1        0.1597
     25 C           4.6796    0.1756   30.6886 C.ar    1  UNL1        0.1592
     26 N           3.9225    0.4009   31.9638 N.ar    1  UNL1       -0.2274
     27 C           3.8852   -0.6703   33.0131 C.ar    1  UNL1        0.1019
     28 C           4.6049   -1.9668   32.7873 C.ar    1  UNL1        0.0413
     29 C           5.3620   -2.1921   31.5122 C.ar    1  UNL1        0.1019
     30 N           5.3994   -1.1209   30.4628 N.ar    1  UNL1       -0.2274
@<TRIPOS>BOND
     1     1     2    2
     2     2     3    1
     3     3     4   ar
     4     4     5   ar
     5     5    13    1
     6    13    14   ar
     7    14    15   ar
     8    15    16   ar
     9    16    19    1
    10    19    20    1
    11    20    21    1
    12    20    22    1
    13    20    23    1
    14    16    17   ar
    15    17    18   ar
    16     5     6   ar
    17     6     7   ar
    18     7     8   ar
    19     8     9    1
    20     9    10    1
    21    10    11    1
    22    11    12    1
    23    12    24    1
    24    24    25    1
    25    25    26   ar
    26    26    27   ar
    27    27    28   ar
    28    28    29   ar
    29    29    30   ar
    30    12     2   am
    31    30    25   ar
    32     8     3   ar
    33    18    13   ar
@<TRIPOS>MOLECULE
*****
 30 33 0 0 0
SMALL
GASTEIGER

@<TRIPOS>ATOM
      1 O          -1.8182    2.2089   20.5221 O.2     1  UNL1       -0.2698
      2 C          -1.3101    3.5448   20.0669 C.2     1  UNL1        0.2524
      3 C           0.0637    3.5478   19.4646 C.ar    1  UNL1        0.0875
      4 C           0.6565    2.1701   19.4449 C.ar    1  UNL1        0.0076
      5 C           2.0295    1.9524   18.8815 C.ar    1  UNL1        0.0003
      6 C           2.8096    3.1124   18.3378 C.ar    1  UNL1        0.0031
      7 C           2.2168    4.4901   18.3574 C.ar    1  UNL1        0.0370
      8 C           0.8439    4.7078   18.9209 C.ar    1  UNL1        0.1429
      9 O           0.4429    6.1513   18.8451 O.3     1  UNL1       -0.4735
     10 C          -0.8372    6.7913   19.2943 C.3     1  UNL1        0.2268
     11 C          -2.0326    6.1458   19.9302 C.3     1  UNL1        0.1414
     12 N          -2.2431    4.7009   20.2741 N.am    1  UNL1       -0.2651
     13 C           2.6223    0.5746   18.8618 C.ar    1  UNL1        0.0002
     14 C           2.4162   -0.3473   20.0270 C.ar    1  UNL1        0.0031
     15 C           3.0090   -1.7250   20.0074 C.ar    1  UNL1        0.0372
     16 C           3.8080   -2.1809   18.8225 C.ar    1  UNL1        0.1468
     17 C           4.0142   -1.2590   17.6573 C.ar    1  UNL1        0.0372
     18 C           3.4213    0.1188   17.6770 C.ar    1  UNL1        0.0031
     19 O           4.4008   -3.5586   18.8029 O.3     1  UNL1       -0.4045
     20 C           3.7518   -4.6655   19.5797 C.3     1  UNL1        0.5753
     21 F           3.1028   -5.7724   20.3566 F       1  UNL1       -0.1328
     22 F           2.6125   -4.6822   18.6042 F       1  UNL1       -0.1328
     23 F           4.8911   -4.6488   20.5553 F       1  UNL1       -0.1328
     24 C          -3.5606    4.3683   20.9091 C.3     1  UNL1        0.1597
     25 C          -3.6644    4.2444   22.4004 C.ar    1  UNL1        0.1592
     26 N          -2.6248    4.8741   23.2795 N.ar    1  UNL1       -0.2274
     27 C          -2.7287    4.7501   24.7707 C.ar    1  UNL1        0.1019
     28 C          -3.8721    3.9966   25.3830 C.ar    1  UNL1        0.0413
     29 C          -4.9117    3.3670   24.5038 C.ar    1  UNL1        0.1019
     30 N          -4.8079    3.4909   23.0126 N.ar    1  UNL1       -0.2274
@<TRIPOS>BOND
     1     1     2    2
     2     2     3    1
     3     3     4   ar
     4     4     5   ar
     5     5    13    1
     6    13    14   ar
     7    14    15   ar
     8    15    16   ar
     9    16    19    1
    10    19    20    1
    11    20    21    1
    12    20    22    1
    13    20    23    1
    14    16    17   ar
    15    17    18   ar
    16     5     6   ar
    17     6     7   ar
    18     7     8   ar
    19     8     9    1
    20     9    10    1
    21    10    11    1
    22    11    12    1
    23    12    24    1
    24    24    25    1
    25    25    26   ar
    26    26    27   ar
    27    27    28   ar
    28    28    29   ar
    29    29    30   ar
    30    12     2   am
    31    30    25   ar
    32     8     3   ar
    33    18    13   ar
@<TRIPOS>MOLECULE
*****
 30 33 0 0 0
SMALL
GASTEIGER

@<TRIPOS>ATOM
      1 O          -0.7944    3.1639   20.1938 O.2     1  UNL1       -0.2698
      2 C          -1.1108    3.4823   21.6251 C.2     1  UNL1        0.2524
      3 C          -0.3733    2.6728   22.6503 C.ar    1  UNL1        0.0875
      4 C           0.5536    1.6853   22.0056 C.ar    1  UNL1        0.0076
      5 C           1.3881    0.7742   22.8561 C.ar    1  UNL1        0.0003
      6 C           1.2957    0.8506   24.3513 C.ar    1  UNL1        0.0031
      7 C           0.3688    1.8381   24.9960 C.ar    1  UNL1        0.0370
      8 C          -0.4657    2.7492   24.1455 C.ar    1  UNL1        0.1429
      9 O          -1.3185    3.6539   24.9847 O.3     1  UNL1       -0.4735
     10 C          -2.2894    4.7056   24.5362 C.3     1  UNL1        0.2268
     11 C          -2.6474    5.1124   23.1375 C.3     1  UNL1        0.1414
     12 N          -2.1229    4.5680   21.8419 N.am    1  UNL1       -0.2651
     13 C           2.3151   -0.2133   22.2115 C.ar    1  UNL1        0.0002
     14 C           2.1606   -0.5485   20.7576 C.ar    1  UNL1        0.0031
     15 C           3.0875   -1.5360   20.1129 C.ar    1  UNL1        0.0372
     16 C           4.1690   -2.1884   20.9222 C.ar    1  UNL1        0.1468
     17 C           4.3235   -1.8532   22.3761 C.ar    1  UNL1        0.0372
     18 C           3.3965   -0.8657   23.0207 C.ar    1  UNL1        0.0031
     19 O           5.0959   -3.1759   20.2775 O.3     1  UNL1       -0.4045
     20 C           4.5519   -4.2164   19.3440 C.3     1  UNL1        0.5753
     21 F           4.0079   -5.2569   18.4105 F       1  UNL1       -0.1328
     22 F           3.7866   -4.8330   20.4772 F       1  UNL1       -0.1328
     23 F           5.3172   -3.5998   18.2108 F       1  UNL1       -0.1328
     24 C          -2.6847    5.1917   20.5988 C.3     1  UNL1        0.1597
     25 C          -3.9630    4.6718   20.0107 C.ar    1  UNL1        0.1592
     26 N          -5.2473    4.8015   20.7747 N.ar    1  UNL1       -0.2274
     27 C          -6.5255    4.2816   20.1865 C.ar    1  UNL1        0.1019
     28 C          -6.5194    3.6322   18.8344 C.ar    1  UNL1        0.0413
     29 C          -5.2351    3.5026   18.0705 C.ar    1  UNL1        0.1019
     30 N          -3.9568    4.0224   18.6586 N.ar    1  UNL1       -0.2274
@<TRIPOS>BOND
     1     1     2    2
     2     2     3    1
     3     3     4   ar
     4     4     5   ar
     5     5    13    1
     6    13    14   ar
     7    14    15   ar
     8    15    16   ar
     9    16    19    1
    10    19    20    1
    11    20    21    1
    12    20    22    1
    13    20    23    1
    14    16    17   ar
    15    17    18   ar
    16     5     6   ar
    17     6     7   ar
    18     7     8   ar
    19     8     9    1
    20     9    10    1
    21    10    11    1
    22    11    12    1
    23    12    24    1
    24    24    25    1
    25    25    26   ar
    26    26    27   ar
    27    27    28   ar
    28    28    29   ar
    29    29    30   ar
    30    12     2   am
    31    30    25   ar
    32     8     3   ar
    33    18    13   ar
@<TRIPOS>MOLECULE
*****
 30 33 0 0 0
SMALL
GASTEIGER

@<TRIPOS>ATOM
      1 O          -1.5003    2.6960   22.7818 O.2     1  UNL1       -0.2698
      2 C          -1.8918    3.5454   21.6091 C.2     1  UNL1        0.2524
      3 C          -1.1679    3.2585   20.3271 C.ar    1  UNL1        0.0875
      4 C          -0.1744    2.1475   20.4956 C.ar    1  UNL1        0.0076
      5 C           0.6582    1.7027   19.3298 C.ar    1  UNL1        0.0003
      6 C           0.4972    2.3690   17.9956 C.ar    1  UNL1        0.0031
      7 C          -0.4963    3.4800   17.8271 C.ar    1  UNL1        0.0370
      8 C          -1.3289    3.9248   18.9928 C.ar    1  UNL1        0.1429
      9 O          -2.2536    5.0425   18.6112 O.3     1  UNL1       -0.4735
     10 C          -3.2456    5.7700   19.4693 C.3     1  UNL1        0.2268
     11 C          -3.5580    5.5595   20.9213 C.3     1  UNL1        0.1414
     12 N          -2.9555    4.5694   21.8736 N.am    1  UNL1       -0.2651
     13 C           1.6518    0.5916   19.4983 C.ar    1  UNL1        0.0002
     14 C           1.7804   -0.1055   20.8202 C.ar    1  UNL1        0.0031
     15 C           2.7739   -1.2166   20.9887 C.ar    1  UNL1        0.0372
     16 C           3.6389   -1.6306   19.8352 C.ar    1  UNL1        0.1468
     17 C           3.5104   -0.9334   18.5133 C.ar    1  UNL1        0.0372
     18 C           2.5168    0.1777   18.3448 C.ar    1  UNL1        0.0031
     19 O           4.6324   -2.7416   20.0037 O.3     1  UNL1       -0.4045
     20 C           4.5935   -3.9281   19.0868 C.3     1  UNL1        0.5753
     21 F           4.5545   -5.1145   18.1698 F       1  UNL1       -0.1328
     22 F           5.7346   -3.3565   18.2987 F       1  UNL1       -0.1328
     23 F           3.4524   -4.4997   19.8749 F       1  UNL1       -0.1328
     24 C          -3.4870    4.6086   23.2757 C.3     1  UNL1        0.1597
     25 C          -4.9496    4.8380   23.5172 C.ar    1  UNL1        0.1592
     26 N          -5.3944    5.9274   24.4475 N.ar    1  UNL1       -0.2274
     27 C          -6.8569    6.1567   24.6889 C.ar    1  UNL1        0.1019
     28 C          -7.8747    5.2967   24.0002 C.ar    1  UNL1        0.0413
     29 C          -7.4299    4.2072   23.0700 C.ar    1  UNL1        0.1019
     30 N          -5.9674    3.9779   22.8285 N.ar    1  UNL1       -0.2274
@<TRIPOS>BOND
     1     1     2    2
     2     2     3    1
     3     3     4   ar
     4     4     5   ar
     5     5    13    1
     6    13    14   ar
     7    14    15   ar
     8    15    16   ar
     9    16    19    1
    10    19    20    1
    11    20    21    1
    12    20    22    1
    13    20    23    1
    14    16    17   ar
    15    17    18   ar
    16     5     6   ar
    17     6     7   ar
    18     7     8   ar
    19     8     9    1
    20     9    10    1
    21    10    11    1
    22    11    12    1
    23    12    24    1
    24    24    25    1
    25    25    26   ar
    26    26    27   ar
    27    27    28   ar
    28    28    29   ar
    29    29    30   ar
    30    12     2   am
    31    30    25   ar
    32     8     3   ar
    33    18    13   ar
@<TRIPOS>MOLECULE
*****
 30 33 0 0 0
SMALL
GASTEIGER

@<TRIPOS>ATOM
      1 O           1.8359    1.8072   24.5419 O.2     1  UNL1       -0.2698
      2 C           0.6211    2.5664   24.0971 C.2     1  UNL1        0.2524
      3 C           0.2707    2.4403   22.6441 C.ar    1  UNL1        0.0875
      4 C           1.2407    1.5533   21.9214 C.ar    1  UNL1        0.0076
      5 C           1.0700    1.2940   20.4539 C.ar    1  UNL1        0.0003
      6 C          -0.0708    1.9216   19.7091 C.ar    1  UNL1        0.0031
      7 C          -1.0408    2.8086   20.4318 C.ar    1  UNL1        0.0370
      8 C          -0.8701    3.0679   21.8992 C.ar    1  UNL1        0.1429
      9 O          -1.9421    3.9766   22.4236 O.3     1  UNL1       -0.4735
     10 C          -2.1383    4.4822   23.8221 C.3     1  UNL1        0.2268
     11 C          -1.3107    4.2039   25.0418 C.3     1  UNL1        0.1414
     12 N          -0.0826    3.3513   25.1642 N.am    1  UNL1       -0.2651
     13 C           2.0401    0.4070   19.7312 C.ar    1  UNL1        0.0002
     14 C           2.4250   -0.9187   20.3181 C.ar    1  UNL1        0.0031
     15 C           3.3950   -1.8056   19.5954 C.ar    1  UNL1        0.0372
     16 C           3.9802   -1.3669   18.2857 C.ar    1  UNL1        0.1468
     17 C           3.5953   -0.0413   17.6988 C.ar    1  UNL1        0.0372
     18 C           2.6252    0.8457   18.4216 C.ar    1  UNL1        0.0031
     19 O           4.9502   -2.2539   17.5631 O.3     1  UNL1       -0.4045
     20 C           6.3644   -2.3716   18.0490 C.3     1  UNL1        0.5753
     21 F           7.7786   -2.4892   18.5349 F       1  UNL1       -0.1328
     22 F           6.7275   -1.1277   17.2934 F       1  UNL1       -0.1328
     23 F           6.0013   -3.6154   18.8046 F       1  UNL1       -0.1328
     24 C           0.5215    3.2732   26.5349 C.3     1  UNL1        0.1597
     25 C           0.2654    2.0750   27.4003 C.ar    1  UNL1        0.1592
     26 N          -1.1426    1.6547   27.7018 N.ar    1  UNL1       -0.2274
     27 C          -1.3986    0.4566   28.5671 C.ar    1  UNL1        0.1019
     28 C          -0.2468   -0.3213   29.1310 C.ar    1  UNL1        0.0413
     29 C           1.1612    0.0990   28.8294 C.ar    1  UNL1        0.1019
     30 N           1.4173    1.2971   27.9641 N.ar    1  UNL1       -0.2274
@<TRIPOS>BOND
     1     1     2    2
     2     2     3    1
     3     3     4   ar
     4     4     5   ar
     5     5    13    1
     6    13    14   ar
     7    14    15   ar
     8    15    16   ar
     9    16    19    1
    10    19    20    1
    11    20    21    1
    12    20    22    1
    13    20    23    1
    14    16    17   ar
    15    17    18   ar
    16     5     6   ar
    17     6     7   ar
    18     7     8   ar
    19     8     9    1
    20     9    10    1
    21    10    11    1
    22    11    12    1
    23    12    24    1
    24    24    25    1
    25    25    26   ar
    26    26    27   ar
    27    27    28   ar
    28    28    29   ar
    29    29    30   ar
    30    12     2   am
    31    30    25   ar
    32     8     3   ar
    33    18    13   ar
@<TRIPOS>MOLECULE
*****
 30 33 0 0 0
SMALL
GASTEIGER

@<TRIPOS>ATOM
      1 O           7.0594   -1.8905   27.7158 O.2     1  UNL1       -0.2698
      2 C           7.2690   -3.3691   27.8566 C.2     1  UNL1        0.2524
      3 C           7.0828   -3.9243   29.2376 C.ar    1  UNL1        0.0875
      4 C           6.7147   -2.8483   30.2157 C.ar    1  UNL1        0.0076
      5 C           6.4825   -3.1926   31.6570 C.ar    1  UNL1        0.0003
      6 C           6.6183   -4.6128   32.1202 C.ar    1  UNL1        0.0031
      7 C           6.9864   -5.6887   31.1421 C.ar    1  UNL1        0.0370
      8 C           7.2186   -5.3445   29.7008 C.ar    1  UNL1        0.1429
      9 O           7.5744   -6.5602   28.8974 O.3     1  UNL1       -0.4735
     10 C           7.8820   -6.6561   27.4324 C.3     1  UNL1        0.2268
     11 C           7.9100   -5.5598   26.4090 C.3     1  UNL1        0.1414
     12 N           7.6372   -4.0969   26.5977 N.am    1  UNL1       -0.2651
     13 C           6.1143   -2.1166   32.6353 C.ar    1  UNL1        0.0002
     14 C           4.7143   -2.0336   33.1672 C.ar    1  UNL1        0.0031
     15 C           4.3461   -0.9577   34.1454 C.ar    1  UNL1        0.0372
     16 C           5.3781    0.0353   34.5917 C.ar    1  UNL1        0.1468
     17 C           6.7781   -0.0477   34.0597 C.ar    1  UNL1        0.0372
     18 C           7.1463   -1.1237   33.0815 C.ar    1  UNL1        0.0031
     19 O           5.0099    1.1112   35.5698 O.3     1  UNL1       -0.4045
     20 C           4.1601    0.7827   36.7614 C.3     1  UNL1        0.5753
     21 F           3.3102    0.4542   37.9530 F       1  UNL1       -0.1328
     22 F           5.2082   -0.1753   37.2448 F       1  UNL1       -0.1328
     23 F           3.1120    1.7407   36.2779 F       1  UNL1       -0.1328
     24 C           7.7470   -3.2500   25.3646 C.3     1  UNL1        0.1597
     25 C           6.5561   -3.0686   24.4708 C.ar    1  UNL1        0.1592
     26 N           5.5599   -1.9849   24.7594 N.ar    1  UNL1       -0.2274
     27 C           4.3691   -1.8035   23.8656 C.ar    1  UNL1        0.1019
     28 C           4.1743   -2.7057   22.6832 C.ar    1  UNL1        0.0413
     29 C           5.1705   -3.7894   22.3947 C.ar    1  UNL1        0.1019
     30 N           6.3614   -3.9709   23.2885 N.ar    1  UNL1       -0.2274
@<TRIPOS>BOND
     1     1     2    2
     2     2     3    1
     3     3     4   ar
     4     4     5   ar
     5     5    13    1
     6    13    14   ar
     7    14    15   ar
     8    15    16   ar
     9    16    19    1
    10    19    20    1
    11    20    21    1
    12    20    22    1
    13    20    23    1
    14    16    17   ar
    15    17    18   ar
    16     5     6   ar
    17     6     7   ar
    18     7     8   ar
    19     8     9    1
    20     9    10    1
    21    10    11    1
    22    11    12    1
    23    12    24    1
    24    24    25    1
    25    25    26   ar
    26    26    27   ar
    27    27    28   ar
    28    28    29   ar
    29    29    30   ar
    30    12     2   am
    31    30    25   ar
    32     8     3   ar
    33    18    13   ar
@<TRIPOS>MOLECULE
*****
 30 33 0 0 0
SMALL
GASTEIGER

@<TRIPOS>ATOM
      1 O           3.5293   -2.1478   21.9204 O.2     1  UNL1       -0.2698
      2 C           3.5165   -1.6028   20.5229 C.2     1  UNL1        0.2524
      3 C           2.6730   -0.3811   20.3085 C.ar    1  UNL1        0.0875
      4 C           1.9999    0.0498   21.5778 C.ar    1  UNL1        0.0076
      5 C           1.1074    1.2553   21.5815 C.ar    1  UNL1        0.0003
      6 C           0.8880    2.0300   20.3159 C.ar    1  UNL1        0.0031
      7 C           1.5611    1.5991   19.0466 C.ar    1  UNL1        0.0370
      8 C           2.4536    0.3935   19.0429 C.ar    1  UNL1        0.1429
      9 O           3.0236    0.1378   17.6792 O.3     1  UNL1       -0.4735
     10 C           3.9536   -0.9557   17.2442 C.3     1  UNL1        0.2268
     11 C           4.5435   -2.0636   18.0656 C.3     1  UNL1        0.1414
     12 N           4.3490   -2.3516   19.5248 N.am    1  UNL1       -0.2651
     13 C           0.4342    1.6862   22.8509 C.ar    1  UNL1        0.0002
     14 C           0.7176    0.9618   24.1334 C.ar    1  UNL1        0.0031
     15 C           0.0444    1.3926   25.4027 C.ar    1  UNL1        0.0372
     16 C          -0.9121    2.5481   25.3896 C.ar    1  UNL1        0.1468
     17 C          -1.1955    3.2726   24.1071 C.ar    1  UNL1        0.0372
     18 C          -0.5223    2.8416   22.8377 C.ar    1  UNL1        0.0031
     19 O          -1.5852    2.9790   26.6589 O.3     1  UNL1       -0.4045
     20 C          -2.3628    4.2611   26.6976 C.3     1  UNL1        0.5753
     21 F          -3.1404    5.5432   26.7363 F       1  UNL1       -0.1328
     22 F          -1.0842    5.0322   26.8410 F       1  UNL1       -0.1328
     23 F          -3.6414    3.4899   26.5543 F       1  UNL1       -0.1328
     24 C           5.0841   -3.5463   20.0560 C.3     1  UNL1        0.1597
     25 C           6.5162   -3.4168   20.4831 C.ar    1  UNL1        0.1592
     26 N           7.1539   -2.0618   20.5684 N.ar    1  UNL1       -0.2274
     27 C           8.5859   -1.9324   20.9955 C.ar    1  UNL1        0.1019
     28 C           9.3803   -3.1580   21.3374 C.ar    1  UNL1        0.0413
     29 C           8.7426   -4.5130   21.2520 C.ar    1  UNL1        0.1019
     30 N           7.3106   -4.6425   20.8250 N.ar    1  UNL1       -0.2274
@<TRIPOS>BOND
     1     1     2    2
     2     2     3    1
     3     3     4   ar
     4     4     5   ar
     5     5    13    1
     6    13    14   ar
     7    14    15   ar
     8    15    16   ar
     9    16    19    1
    10    19    20    1
    11    20    21    1
    12    20    22    1
    13    20    23    1
    14    16    17   ar
    15    17    18   ar
    16     5     6   ar
    17     6     7   ar
    18     7     8   ar
    19     8     9    1
    20     9    10    1
    21    10    11    1
    22    11    12    1
    23    12    24    1
    24    24    25    1
    25    25    26   ar
    26    26    27   ar
    27    27    28   ar
    28    28    29   ar
    29    29    30   ar
    30    12     2   am
    31    30    25   ar
    32     8     3   ar
    33    18    13   ar
@<TRIPOS>MOLECULE
*****
 30 33 0 0 0
SMALL
GASTEIGER

@<TRIPOS>ATOM
      1 O           6.8325   -2.1318   23.9786 O.2     1  UNL1       -0.2698
      2 C           7.3515   -3.3594   23.2903 C.2     1  UNL1        0.2524
      3 C           7.6477   -4.5290   24.1815 C.ar    1  UNL1        0.0875
      4 C           7.3524   -4.2124   25.6176 C.ar    1  UNL1        0.0076
      5 C           7.5807   -5.2499   26.6766 C.ar    1  UNL1        0.0003
      6 C           8.1043   -6.6040   26.2995 C.ar    1  UNL1        0.0031
      7 C           8.3996   -6.9206   24.8633 C.ar    1  UNL1        0.0370
      8 C           8.1713   -5.8832   23.8044 C.ar    1  UNL1        0.1429
      9 O           8.5280   -6.4020   22.4429 O.3     1  UNL1       -0.4735
     10 C           8.4492   -5.6950   21.1223 C.3     1  UNL1        0.2268
     11 C           7.9943   -4.2944   20.8371 C.3     1  UNL1        0.1414
     12 N           7.5057   -3.2549   21.8019 N.am    1  UNL1       -0.2651
     13 C           7.2854   -4.9333   28.1128 C.ar    1  UNL1        0.0002
     14 C           7.3884   -6.0080   29.1542 C.ar    1  UNL1        0.0031
     15 C           7.0931   -5.6914   30.5904 C.ar    1  UNL1        0.0372
     16 C           6.6949   -4.3001   30.9852 C.ar    1  UNL1        0.1468
     17 C           6.5919   -3.2255   29.9438 C.ar    1  UNL1        0.0372
     18 C           6.8872   -3.5421   28.5076 C.ar    1  UNL1        0.0031
     19 O           6.3996   -3.9836   32.4213 O.3     1  UNL1       -0.4045
     20 C           6.0691   -2.5778   32.8269 C.3     1  UNL1        0.5753
     21 F           5.7386   -1.1720   33.2324 F       1  UNL1       -0.1328
     22 F           7.5318   -2.2705   32.9537 F       1  UNL1       -0.1328
     23 F           4.6064   -2.8851   32.7001 F       1  UNL1       -0.1328
     24 C           7.1205   -1.9367   21.1986 C.3     1  UNL1        0.1597
     25 C           5.7487   -1.7482   20.6218 C.ar    1  UNL1        0.1592
     26 N           5.5521   -1.7611   19.1348 N.ar    1  UNL1       -0.2274
     27 C           4.1804   -1.5726   18.5580 C.ar    1  UNL1        0.1019
     28 C           3.0052   -1.3711   19.4682 C.ar    1  UNL1        0.0413
     29 C           3.2019   -1.3582   20.9552 C.ar    1  UNL1        0.1019
     30 N           4.5736   -1.5467   21.5320 N.ar    1  UNL1       -0.2274
@<TRIPOS>BOND
     1     1     2    2
     2     2     3    1
     3     3     4   ar
     4     4     5   ar
     5     5    13    1
     6    13    14   ar
     7    14    15   ar
     8    15    16   ar
     9    16    19    1
    10    19    20    1
    11    20    21    1
    12    20    22    1
    13    20    23    1
    14    16    17   ar
    15    17    18   ar
    16     5     6   ar
    17     6     7   ar
    18     7     8   ar
    19     8     9    1
    20     9    10    1
    21    10    11    1
    22    11    12    1
    23    12    24    1
    24    24    25    1
    25    25    26   ar
    26    26    27   ar
    27    27    28   ar
    28    28    29   ar
    29    29    30   ar
    30    12     2   am
    31    30    25   ar
    32     8     3   ar
    33    18    13   ar
