@<TRIPOS>MOLECULE
*****
 18 20 0 0 0
SMALL
GASTEIGER

@<TRIPOS>ATOM
      1 C         -11.1183  -16.6194   21.0360 C.ar    1  UNL1        0.1965
      2 N         -11.6703  -16.9837   22.3824 N.ar    1  UNL1       -0.0587
      3 O         -10.6058  -16.7219   23.4062 O.2     1  UNL1       -0.3311
      4 C          -9.3958  -16.1957   22.6927 C.ar    1  UNL1        0.2793
      5 N          -9.7126  -16.1324   21.2279 N.ar    1  UNL1       -0.1884
      6 C          -8.0972  -15.8020   23.3318 C.2     1  UNL1        0.1598
      7 N          -6.8633  -15.3444   22.6119 N.2     1  UNL1       -0.1434
      8 N          -5.8080  -15.0564   23.6383 N.2     1  UNL1       -0.1519
      9 C          -6.3896  -15.3360   24.9923 C.2     1  UNL1        0.0865
     10 C          -5.8137  -15.2305   26.3733 C.3     1  UNL1        0.0736
     11 C          -6.6526  -15.5858   27.5649 C.2     1  UNL1       -0.0197
     12 C          -8.0675  -16.0466   27.3755 C.2     1  UNL1       -0.0041
     13 C          -8.6434  -16.1521   25.9945 C.2     1  UNL1        0.0026
     14 C          -7.8044  -15.7968   24.8029 C.2     1  UNL1        0.0397
     15 N         -12.3244  -15.4828   19.0353 N.3     1  UNL1       -0.3147
     16 C         -11.8444  -16.7238   19.7278 C.3     1  UNL1        0.1355
     17 H         -12.7931  -15.7381   18.1661 H       1  UNL1        0.1192
     18 H         -11.5284  -14.8797   18.8279 H       1  UNL1        0.1192
@<TRIPOS>BOND
     1    15    16    1
     2    16     1    1
     3     1     2   ar
     4     2     3   ar
     5     3     4   ar
     6     4     6    1
     7     6     7    2
     8     7     8    1
     9     8     9    2
    10     9    10    1
    11    10    11    1
    12    11    12    2
    13    12    13    1
    14    13    14    2
    15     4     5   ar
    16     5     1   ar
    17    14     6    1
    18    14     9    1
    19    15    17    1
    20    15    18    1
@<TRIPOS>MOLECULE
*****
 18 20 0 0 0
SMALL
GASTEIGER

@<TRIPOS>ATOM
      1 C          -5.7757  -19.2546   20.8977 C.ar    1  UNL1        0.1965
      2 N          -6.2295  -20.1441   22.0171 N.ar    1  UNL1       -0.0587
      3 O          -7.7106  -19.9690   22.1770 O.2     1  UNL1       -0.3311
      4 C          -8.1722  -18.9712   21.1565 C.ar    1  UNL1        0.2793
      5 N          -6.9765  -18.5298   20.3659 N.ar    1  UNL1       -0.1884
      6 C          -9.5822  -18.4981   20.9610 C.2     1  UNL1        0.1598
      7 N         -10.1813  -18.0214   19.6711 N.2     1  UNL1       -0.1434
      8 N         -11.6100  -17.6473   19.9341 N.2     1  UNL1       -0.1519
      9 C         -11.8937  -17.8929   21.3864 C.2     1  UNL1        0.0865
     10 C         -13.1314  -17.7056   22.2128 C.3     1  UNL1        0.0736
     11 C         -13.1158  -18.0442   23.6740 C.2     1  UNL1       -0.0197
     12 C         -11.8625  -18.5700   24.3087 C.2     1  UNL1       -0.0041
     13 C         -10.6249  -18.7573   23.4822 C.2     1  UNL1        0.0026
     14 C         -10.6405  -18.4187   22.0211 C.2     1  UNL1        0.0397
     15 N          -4.0717  -18.2157   19.2344 N.3     1  UNL1       -0.3147
     16 C          -4.3684  -19.1146   20.3979 C.3     1  UNL1        0.1355
     17 H          -3.0724  -18.2410   19.0314 H       1  UNL1        0.1192
     18 H          -4.3480  -17.2609   19.4632 H       1  UNL1        0.1192
@<TRIPOS>BOND
     1    15    16    1
     2    16     1    1
     3     1     2   ar
     4     2     3   ar
     5     3     4   ar
     6     4     6    1
     7     6     7    2
     8     7     8    1
     9     8     9    2
    10     9    10    1
    11    10    11    1
    12    11    12    2
    13    12    13    1
    14    13    14    2
    15     4     5   ar
    16     5     1   ar
    17    14     6    1
    18    14     9    1
    19    15    17    1
    20    15    18    1
@<TRIPOS>MOLECULE
*****
 18 20 0 0 0
SMALL
GASTEIGER

@<TRIPOS>ATOM
      1 C          -4.2795  -19.6729   20.6385 C.ar    1  UNL1        0.1965
      2 N          -5.2198  -20.7541   20.1947 N.ar    1  UNL1       -0.0587
      3 O          -6.6107  -20.3459   20.5804 O.2     1  UNL1       -0.3311
      4 C          -6.5300  -19.0124   21.2625 C.ar    1  UNL1        0.2793
      5 N          -5.0893  -18.5965   21.2983 N.ar    1  UNL1       -0.1884
      6 C          -7.6870  -18.2318   21.8121 C.2     1  UNL1        0.1598
      7 N          -7.9897  -16.7895   21.5328 N.2     1  UNL1       -0.1434
      8 N          -9.2342  -16.4229   22.2856 N.2     1  UNL1       -0.1519
      9 C          -9.7007  -17.6386   23.0303 C.2     1  UNL1        0.0865
     10 C         -10.8725  -17.8720   23.9370 C.3     1  UNL1        0.0736
     11 C         -11.0882  -19.2234   24.5510 C.2     1  UNL1       -0.0197
     12 C         -10.1319  -20.3414   24.2583 C.2     1  UNL1       -0.0041
     13 C          -8.9601  -20.1080   23.3516 C.2     1  UNL1        0.0026
     14 C          -8.7444  -18.7566   22.7376 C.2     1  UNL1        0.0397
     15 N          -1.8976  -20.1535   21.5579 N.3     1  UNL1       -0.3147
     16 C          -2.7909  -19.6689   20.4546 C.3     1  UNL1        0.1355
     17 H          -0.9237  -20.0810   21.2635 H       1  UNL1        0.1192
     18 H          -2.1170  -21.1267   21.7704 H       1  UNL1        0.1192
@<TRIPOS>BOND
     1    15    16    1
     2    16     1    1
     3     1     2   ar
     4     2     3   ar
     5     3     4   ar
     6     4     6    1
     7     6     7    2
     8     7     8    1
     9     8     9    2
    10     9    10    1
    11    10    11    1
    12    11    12    2
    13    12    13    1
    14    13    14    2
    15     4     5   ar
    16     5     1   ar
    17    14     6    1
    18    14     9    1
    19    15    17    1
    20    15    18    1
@<TRIPOS>MOLECULE
*****
 18 20 0 0 0
SMALL
GASTEIGER

@<TRIPOS>ATOM
      1 C          -6.0869  -15.8962   24.0267 C.ar    1  UNL1        0.1965
      2 N          -5.7023  -16.9750   23.0581 N.ar    1  UNL1       -0.0587
      3 O          -6.9018  -17.2894   22.2141 O.2     1  UNL1       -0.3311
      4 C          -8.0277  -16.4049   22.6611 C.ar    1  UNL1        0.2793
      5 N          -7.5241  -15.5439   23.7813 N.ar    1  UNL1       -0.1884
      6 C          -9.4139  -16.3850   22.0883 C.2     1  UNL1        0.1598
      7 N          -9.8351  -15.6991   20.8225 N.2     1  UNL1       -0.1434
      8 N         -11.3038  -15.9377   20.6328 N.2     1  UNL1       -0.1519
      9 C         -11.7903  -16.7709   21.7813 C.2     1  UNL1        0.0865
     10 C         -13.1460  -17.3137   22.1241 C.3     1  UNL1        0.0736
     11 C         -13.3336  -18.1328   23.3666 C.2     1  UNL1       -0.0197
     12 C         -12.1656  -18.4092   24.2662 C.2     1  UNL1       -0.0041
     13 C         -10.8099  -17.8665   23.9233 C.2     1  UNL1        0.0026
     14 C         -10.6223  -17.0474   22.6809 C.2     1  UNL1        0.0397
     15 N          -5.7845  -14.5112   26.2039 N.3     1  UNL1       -0.3147
     16 C          -5.1916  -15.2782   25.0594 C.3     1  UNL1        0.1355
     17 H          -5.0366  -14.1638   26.8042 H       1  UNL1        0.1192
     18 H          -6.3963  -15.1239   26.7431 H       1  UNL1        0.1192
@<TRIPOS>BOND
     1    15    16    1
     2    16     1    1
     3     1     2   ar
     4     2     3   ar
     5     3     4   ar
     6     4     6    1
     7     6     7    2
     8     7     8    1
     9     8     9    2
    10     9    10    1
    11    10    11    1
    12    11    12    2
    13    12    13    1
    14    13    14    2
    15     4     5   ar
    16     5     1   ar
    17    14     6    1
    18    14     9    1
    19    15    17    1
    20    15    18    1
@<TRIPOS>MOLECULE
*****
 18 20 0 0 0
SMALL
GASTEIGER

@<TRIPOS>ATOM
      1 C          -6.7633  -15.4250   25.4103 C.ar    1  UNL1        0.1965
      2 N          -5.7899  -14.9710   24.3631 N.ar    1  UNL1       -0.0587
      3 O          -6.2366  -15.5262   23.0431 O.2     1  UNL1       -0.3311
      4 C          -7.4861  -16.3233   23.2745 C.ar    1  UNL1        0.2793
      5 N          -7.8116  -16.2607   24.7374 N.ar    1  UNL1       -0.1884
      6 C          -8.2721  -17.0545   22.2268 C.2     1  UNL1        0.1598
      7 N          -7.7007  -17.8703   21.1052 N.2     1  UNL1       -0.1434
      8 N          -8.8429  -18.4182   20.3021 N.2     1  UNL1       -0.1519
      9 C         -10.1202  -17.9411   20.9273 C.2     1  UNL1        0.0865
     10 C         -11.5589  -18.1653   20.5671 C.3     1  UNL1        0.0736
     11 C         -12.6448  -17.5465   21.3965 C.2     1  UNL1       -0.0197
     12 C         -12.2920  -16.7037   22.5861 C.2     1  UNL1       -0.0041
     13 C         -10.8533  -16.4795   22.9463 C.2     1  UNL1        0.0026
     14 C          -9.7674  -17.0983   22.1169 C.2     1  UNL1        0.0397
     15 N          -7.9584  -14.7925   27.6287 N.3     1  UNL1       -0.3147
     16 C          -6.6996  -15.1003   26.8732 C.3     1  UNL1        0.1355
     17 H          -7.7305  -14.5963   28.6034 H       1  UNL1        0.1192
     18 H          -8.5878  -15.5937   27.5813 H       1  UNL1        0.1192
@<TRIPOS>BOND
     1    15    16    1
     2    16     1    1
     3     1     2   ar
     4     2     3   ar
     5     3     4   ar
     6     4     6    1
     7     6     7    2
     8     7     8    1
     9     8     9    2
    10     9    10    1
    11    10    11    1
    12    11    12    2
    13    12    13    1
    14    13    14    2
    15     4     5   ar
    16     5     1   ar
    17    14     6    1
    18    14     9    1
    19    15    17    1
    20    15    18    1
@<TRIPOS>MOLECULE
*****
 18 20 0 0 0
SMALL
GASTEIGER

@<TRIPOS>ATOM
      1 C          -4.5987  -19.3815   21.0090 C.ar    1  UNL1        0.1965
      2 N          -4.7487  -18.3538   22.0914 N.ar    1  UNL1       -0.0587
      3 O          -6.2014  -17.9933   22.1902 O.2     1  UNL1       -0.3311
      4 C          -6.9492  -18.7981   21.1689 C.ar    1  UNL1        0.2793
      5 N          -5.9587  -19.6560   20.4390 N.ar    1  UNL1       -0.1884
      6 C          -8.4279  -18.7529   20.9211 C.2     1  UNL1        0.1598
      7 N          -9.1037  -18.8992   19.5900 N.2     1  UNL1       -0.1434
      8 N         -10.5839  -18.7902   19.8073 N.2     1  UNL1       -0.1519
      9 C         -10.8229  -18.5766   21.2726 C.2     1  UNL1        0.0865
     10 C         -12.0817  -18.4000   22.0690 C.3     1  UNL1        0.0736
     11 C         -12.0080  -18.2005   23.5538 C.2     1  UNL1       -0.0197
     12 C         -10.6755  -18.1774   24.2422 C.2     1  UNL1       -0.0041
     13 C          -9.4167  -18.3539   23.4459 C.2     1  UNL1        0.0026
     14 C          -9.4904  -18.5535   21.9611 C.2     1  UNL1        0.0397
     15 N          -2.1580  -20.1071   21.5250 N.3     1  UNL1       -0.3147
     16 C          -3.3143  -20.0220   20.5733 C.3     1  UNL1        0.1355
     17 H          -1.3731  -20.5691   21.0659 H       1  UNL1        0.1192
     18 H          -2.4337  -20.6428   22.3480 H       1  UNL1        0.1192
@<TRIPOS>BOND
     1    15    16    1
     2    16     1    1
     3     1     2   ar
     4     2     3   ar
     5     3     4   ar
     6     4     6    1
     7     6     7    2
     8     7     8    1
     9     8     9    2
    10     9    10    1
    11    10    11    1
    12    11    12    2
    13    12    13    1
    14    13    14    2
    15     4     5   ar
    16     5     1   ar
    17    14     6    1
    18    14     9    1
    19    15    17    1
    20    15    18    1
@<TRIPOS>MOLECULE
*****
 18 20 0 0 0
SMALL
GASTEIGER

@<TRIPOS>ATOM
      1 C          -9.5642  -19.2114   23.1083 C.ar    1  UNL1        0.1965
      2 N          -9.6448  -18.1471   22.0543 N.ar    1  UNL1       -0.0587
      3 O          -8.3886  -18.2080   21.2369 O.2     1  UNL1       -0.3311
      4 C          -7.5315  -19.3099   21.7857 C.ar    1  UNL1        0.2793
      5 N          -8.2580  -19.9300   22.9422 N.ar    1  UNL1       -0.1884
      6 C          -6.1843  -19.7198   21.2687 C.2     1  UNL1        0.1598
      7 N          -5.9229  -20.7398   20.2004 N.2     1  UNL1       -0.1434
      8 N          -4.4391  -20.8319   20.0007 N.2     1  UNL1       -0.1519
      9 C          -3.7835  -19.8688   20.9455 C.2     1  UNL1        0.0865
     10 C          -2.3438  -19.5289   21.1935 C.3     1  UNL1        0.0736
     11 C          -1.9827  -18.5016   22.2251 C.2     1  UNL1       -0.0197
     12 C          -3.0613  -17.8142   23.0087 C.2     1  UNL1       -0.0041
     13 C          -4.5010  -18.1541   22.7607 C.2     1  UNL1        0.0026
     14 C          -4.8622  -19.1814   21.7291 C.2     1  UNL1        0.0397
     15 N         -10.2555  -20.3292   25.3493 N.3     1  UNL1       -0.3147
     16 C         -10.6065  -19.5054   24.1459 C.3     1  UNL1        0.1355
     17 H         -11.0776  -20.4286   25.9449 H       1  UNL1        0.1192
     18 H          -9.5109  -19.8677   25.8718 H       1  UNL1        0.1192
@<TRIPOS>BOND
     1    15    16    1
     2    16     1    1
     3     1     2   ar
     4     2     3   ar
     5     3     4   ar
     6     4     6    1
     7     6     7    2
     8     7     8    1
     9     8     9    2
    10     9    10    1
    11    10    11    1
    12    11    12    2
    13    12    13    1
    14    13    14    2
    15     4     5   ar
    16     5     1   ar
    17    14     6    1
    18    14     9    1
    19    15    17    1
    20    15    18    1
@<TRIPOS>MOLECULE
*****
 18 20 0 0 0
SMALL
GASTEIGER

@<TRIPOS>ATOM
      1 C          -9.2951  -17.6208   21.9845 C.ar    1  UNL1        0.1965
      2 N          -9.4457  -18.8073   22.8898 N.ar    1  UNL1       -0.0587
      3 O          -8.2372  -19.6788   22.7168 O.2     1  UNL1       -0.3311
      4 C          -7.3397  -19.0310   21.7045 C.ar    1  UNL1        0.2793
      5 N          -7.9935  -17.7591   21.2520 N.ar    1  UNL1       -0.1884
      6 C          -6.0200  -19.5618   21.2284 C.2     1  UNL1        0.1598
      7 N          -5.8212  -20.6595   20.2256 N.2     1  UNL1       -0.1434
      8 N          -4.3457  -20.8643   20.0490 N.2     1  UNL1       -0.1519
      9 C          -3.6327  -19.8932   20.9427 C.2     1  UNL1        0.0865
     10 C          -2.1749  -19.6380   21.1869 C.3     1  UNL1        0.0736
     11 C          -1.7519  -18.5778   22.1600 C.2     1  UNL1       -0.0197
     12 C          -2.7867  -17.7728   22.8889 C.2     1  UNL1       -0.0041
     13 C          -4.2444  -18.0281   22.6447 C.2     1  UNL1        0.0026
     14 C          -4.6675  -19.0882   21.6716 C.2     1  UNL1        0.0397
     15 N          -9.8997  -15.2729   21.0510 N.3     1  UNL1       -0.3147
     16 C         -10.2741  -16.4940   21.8375 C.3     1  UNL1        0.1355
     17 H         -10.6782  -14.6139   21.0551 H       1  UNL1        0.1192
     18 H          -9.6852  -15.5398   20.0902 H       1  UNL1        0.1192
@<TRIPOS>BOND
     1    15    16    1
     2    16     1    1
     3     1     2   ar
     4     2     3   ar
     5     3     4   ar
     6     4     6    1
     7     6     7    2
     8     7     8    1
     9     8     9    2
    10     9    10    1
    11    10    11    1
    12    11    12    2
    13    12    13    1
    14    13    14    2
    15     4     5   ar
    16     5     1   ar
    17    14     6    1
    18    14     9    1
    19    15    17    1
    20    15    18    1
@<TRIPOS>MOLECULE
*****
 18 20 0 0 0
SMALL
GASTEIGER

@<TRIPOS>ATOM
      1 C          -4.3759  -19.0168   21.6502 C.ar    1  UNL1        0.1965
      2 N          -3.9954  -17.7886   22.4228 N.ar    1  UNL1       -0.0587
      3 O          -5.2546  -17.1537   22.9338 O.2     1  UNL1       -0.3311
      4 C          -6.4135  -17.9894   22.4769 C.ar    1  UNL1        0.2793
      5 N          -5.8704  -19.1408   21.6837 N.ar    1  UNL1       -0.1884
      6 C          -7.8612  -17.7208   22.7632 C.2     1  UNL1        0.1598
      7 N          -8.3999  -16.9347   23.9216 N.2     1  UNL1       -0.1434
      8 N          -9.8960  -16.9193   23.8155 N.2     1  UNL1       -0.1519
      9 C         -10.2821  -17.6958   22.5916 C.2     1  UNL1        0.0865
     10 C         -11.6162  -18.0158   21.9853 C.3     1  UNL1        0.0736
     11 C         -11.6928  -18.8311   20.7287 C.2     1  UNL1       -0.0197
     12 C         -10.4352  -19.3265   20.0783 C.2     1  UNL1       -0.0041
     13 C          -9.1010  -19.0066   20.6845 C.2     1  UNL1        0.0026
     14 C          -9.0245  -18.1912   21.9412 C.2     1  UNL1        0.0397
     15 N          -2.0224  -20.1017   21.4665 N.3     1  UNL1       -0.3147
     16 C          -3.4284  -19.9559   20.9646 C.3     1  UNL1        0.1355
     17 H          -1.5227  -20.7760   20.8869 H       1  UNL1        0.1192
     18 H          -2.0384  -20.4294   22.4323 H       1  UNL1        0.1192
@<TRIPOS>BOND
     1    15    16    1
     2    16     1    1
     3     1     2   ar
     4     2     3   ar
     5     3     4   ar
     6     4     6    1
     7     6     7    2
     8     7     8    1
     9     8     9    2
    10     9    10    1
    11    10    11    1
    12    11    12    2
    13    12    13    1
    14    13    14    2
    15     4     5   ar
    16     5     1   ar
    17    14     6    1
    18    14     9    1
    19    15    17    1
    20    15    18    1
