@<TRIPOS>MOLECULE
*****
 33 36 0 0 0
SMALL
GASTEIGER

@<TRIPOS>ATOM
      1 C          -7.5121    5.1699   23.8543 C.3     1  UNL1        0.0952
      2 C          -6.2035    4.4411   23.9338 C.2     1  UNL1        0.2302
      3 O          -5.7887    3.7822   25.2158 O.2     1  UNL1       -0.2745
      4 N          -5.3097    4.3712   22.7312 N.am    1  UNL1       -0.2515
      5 C          -5.7245    5.0301   21.4491 C.2     1  UNL1        0.0695
      6 C          -4.8307    4.9602   20.2465 C.2     1  UNL1        0.0366
      7 C          -3.5221    4.2313   20.3260 C.ar    1  UNL1        0.0993
      8 N          -2.6283    4.1614   19.1234 N.ar    1  UNL1       -0.2267
      9 C          -1.3197    3.4326   19.2029 C.ar    1  UNL1        0.1603
     10 C          -0.9049    2.7736   20.4850 C.ar    1  UNL1        0.1630
     11 N          -1.7987    2.8435   21.6876 N.ar    1  UNL1       -0.2289
     12 C          -3.1073    3.5724   21.6080 C.ar    1  UNL1        0.0985
     13 C          -4.0011    3.6423   22.8106 C.3     1  UNL1        0.1454
     14 N           0.4037    2.0447   20.5644 N.pl3   1  UNL1       -0.2908
     15 C           0.4802    0.5966   20.1807 C.3     1  UNL1        0.0960
     16 C           1.7887   -0.1322   20.2601 C.3     1  UNL1        0.0650
     17 C           3.0209    0.5869   20.7234 C.3     1  UNL1        0.1694
     18 C           2.9445    2.0350   21.1071 C.3     1  UNL1        0.0650
     19 C           1.6358    2.7639   21.0277 C.3     1  UNL1        0.0960
     20 O           4.3295   -0.1419   20.8028 O.3     1  UNL1       -0.4768
     21 C           4.4654   -1.5075   20.1971 C.ar    1  UNL1        0.1657
     22 C           4.8701   -1.6536   18.7601 C.ar    1  UNL1        0.0415
     23 C           5.0060   -3.0191   18.1544 C.ar    1  UNL1        0.0329
     24 C           4.7373   -4.2384   18.9856 C.ar    1  UNL1        0.1426
     25 F           4.8732   -5.6040   18.3798 F       1  UNL1       -0.2041
     26 C           4.3325   -4.0923   20.4225 C.ar    1  UNL1        0.0624
     27 C           4.1966   -2.7268   21.0283 C.ar    1  UNL1        0.1760
     28 F           3.7919   -2.5807   22.4652 F       1  UNL1       -0.2009
     29 N          -0.4259    3.3626   18.0003 N.pl3   1  UNL1       -0.3175
     30 H          -0.3483    2.5226   17.4928 H       1  UNL1        0.1482
     31 C           0.3496    4.5726   17.5708 C.3     1  UNL1        0.0706
     32 C          -0.3540    5.7158   16.9015 C.3     1  UNL1        0.0212
     33 C           1.8288    4.6394   17.8107 C.3     1  UNL1        0.0212
@<TRIPOS>BOND
     1     1     2    1
     2     2     3    2
     3     2     4   am
     4     4     5    1
     5     5     6    2
     6     6     7    1
     7     7     8   ar
     8     8     9   ar
     9     9    29    1
    10    29    31    1
    11    31    32    1
    12    31    33    1
    13     9    10   ar
    14    10    14    1
    15    14    15    1
    16    15    16    1
    17    16    17    1
    18    17    20    1
    19    20    21    1
    20    21    22   ar
    21    22    23   ar
    22    23    24   ar
    23    24    25    1
    24    24    26   ar
    25    26    27   ar
    26    27    28    1
    27    17    18    1
    28    18    19    1
    29    10    11   ar
    30    11    12   ar
    31    12    13    1
    32    13     4    1
    33    12     7   ar
    34    19    14    1
    35    27    21   ar
    36    29    30    1
@<TRIPOS>MOLECULE
*****
 33 36 0 0 0
SMALL
GASTEIGER

@<TRIPOS>ATOM
      1 C          -7.3645    5.6326   21.4635 C.3     1  UNL1        0.0952
      2 C          -6.3754    4.7870   20.7175 C.2     1  UNL1        0.2302
      3 O          -6.7267    4.2375   19.3667 O.2     1  UNL1       -0.2745
      4 N          -5.0351    4.4909   21.3222 N.am    1  UNL1       -0.2515
      5 C          -4.6838    5.0403   22.6730 C.2     1  UNL1        0.0695
      6 C          -3.3434    4.7442   23.2777 C.2     1  UNL1        0.0366
      7 C          -2.3543    3.8986   22.5317 C.ar    1  UNL1        0.0993
      8 N          -1.0140    3.6024   23.1364 N.ar    1  UNL1       -0.2267
      9 C          -0.0249    2.7568   22.3904 C.ar    1  UNL1        0.1603
     10 C          -0.3761    2.2073   21.0395 C.ar    1  UNL1        0.1630
     11 N          -1.7165    2.5035   20.4348 N.ar    1  UNL1       -0.2289
     12 C          -2.7056    3.3491   21.1809 C.ar    1  UNL1        0.0985
     13 C          -4.0460    3.6453   20.5762 C.3     1  UNL1        0.1454
     14 N           0.6130    1.3617   20.2935 N.pl3   1  UNL1       -0.2908
     15 C           0.6395   -0.1233   20.5038 C.3     1  UNL1        0.0960
     16 C           1.6286   -0.9689   19.7578 C.3     1  UNL1        0.0650
     17 C           2.5912   -0.3295   18.8014 C.3     1  UNL1        0.1694
     18 C           2.5647    1.1554   18.5910 C.3     1  UNL1        0.0650
     19 C           1.5756    2.0011   19.3371 C.3     1  UNL1        0.0960
     20 O           3.5803   -1.1751   18.0554 O.3     1  UNL1       -0.4768
     21 C           4.5875   -1.9923   18.8089 C.ar    1  UNL1        0.1657
     22 C           5.9018   -1.3860   19.2027 C.ar    1  UNL1        0.0415
     23 C           6.9089   -2.2031   19.9563 C.ar    1  UNL1        0.0329
     24 C           6.6019   -3.6265   20.3160 C.ar    1  UNL1        0.1426
     25 F           7.6091   -4.4437   21.0696 F       1  UNL1       -0.2041
     26 C           5.2876   -4.2329   19.9222 C.ar    1  UNL1        0.0624
     27 C           4.2804   -3.4158   19.1687 C.ar    1  UNL1        0.1760
     28 F           2.9662   -4.0221   18.7749 F       1  UNL1       -0.2009
     29 N           1.3155    2.4607   22.9951 N.pl3   1  UNL1       -0.3175
     30 H           2.0842    3.0431   22.7975 H       1  UNL1        0.1482
     31 C           1.4846    1.2772   23.9010 C.3     1  UNL1        0.0706
     32 C           0.5639    1.0900   25.0703 C.3     1  UNL1        0.0212
     33 C           2.5745    0.2809   23.6376 C.3     1  UNL1        0.0212
@<TRIPOS>BOND
     1     1     2    1
     2     2     3    2
     3     2     4   am
     4     4     5    1
     5     5     6    2
     6     6     7    1
     7     7     8   ar
     8     8     9   ar
     9     9    29    1
    10    29    31    1
    11    31    32    1
    12    31    33    1
    13     9    10   ar
    14    10    14    1
    15    14    15    1
    16    15    16    1
    17    16    17    1
    18    17    20    1
    19    20    21    1
    20    21    22   ar
    21    22    23   ar
    22    23    24   ar
    23    24    25    1
    24    24    26   ar
    25    26    27   ar
    26    27    28    1
    27    17    18    1
    28    18    19    1
    29    10    11   ar
    30    11    12   ar
    31    12    13    1
    32    13     4    1
    33    12     7   ar
    34    19    14    1
    35    27    21   ar
    36    29    30    1
@<TRIPOS>MOLECULE
*****
 33 36 0 0 0
SMALL
GASTEIGER

@<TRIPOS>ATOM
      1 C           7.4844    0.1319   34.8145 C.3     1  UNL1        0.0952
      2 C           7.4122    0.2729   33.3229 C.2     1  UNL1        0.2302
      3 O           8.6488    0.6010   32.5399 O.2     1  UNL1       -0.2745
      4 N           6.1035    0.0857   32.6143 N.am    1  UNL1       -0.2515
      5 C           4.8669   -0.2424   33.3973 C.2     1  UNL1        0.0695
      6 C           3.5581   -0.4296   32.6887 C.2     1  UNL1        0.0366
      7 C           3.4859   -0.2886   31.1972 C.ar    1  UNL1        0.0993
      8 N           2.1772   -0.4758   30.4886 N.ar    1  UNL1       -0.2267
      9 C           2.1050   -0.3349   28.9970 C.ar    1  UNL1        0.1603
     10 C           3.3416   -0.0067   28.2139 C.ar    1  UNL1        0.1630
     11 N           4.6504    0.1805   28.9225 N.ar    1  UNL1       -0.2289
     12 C           4.7225    0.0395   30.4142 C.ar    1  UNL1        0.0985
     13 C           6.0313    0.2267   31.1228 C.3     1  UNL1        0.1454
     14 N           3.2695    0.1343   26.7223 N.pl3   1  UNL1       -0.2908
     15 C           2.8479    1.4379   26.1117 C.3     1  UNL1        0.0960
     16 C           2.7757    1.5789   24.6201 C.3     1  UNL1        0.0650
     17 C           3.1251    0.4162   23.7391 C.3     1  UNL1        0.1694
     18 C           3.5466   -0.8874   24.3496 C.3     1  UNL1        0.0650
     19 C           3.6188   -1.0284   25.8413 C.3     1  UNL1        0.0960
     20 O           3.0529    0.5572   22.2475 O.3     1  UNL1       -0.4768
     21 C           3.6409   -0.5034   21.3645 C.ar    1  UNL1        0.1657
     22 C           5.1244   -0.7246   21.3440 C.ar    1  UNL1        0.0415
     23 C           5.7124   -1.7851   20.4611 C.ar    1  UNL1        0.0329
     24 C           4.8169   -2.6244   19.5988 C.ar    1  UNL1        0.1426
     25 F           5.4049   -3.6850   18.7159 F       1  UNL1       -0.2041
     26 C           3.3335   -2.4032   19.6194 C.ar    1  UNL1        0.0624
     27 C           2.7455   -1.3427   20.5022 C.ar    1  UNL1        0.1760
     28 F           1.2620   -1.1215   20.5228 F       1  UNL1       -0.2009
     29 N           0.7962   -0.5220   28.2884 N.pl3   1  UNL1       -0.3175
     30 H           0.6796   -1.2705   27.6595 H       1  UNL1        0.1482
     31 C          -0.3348    0.4311   28.5379 C.3     1  UNL1        0.0706
     32 C          -1.6503   -0.0820   29.0439 C.3     1  UNL1        0.0212
     33 C          -0.1503    1.8974   28.2814 C.3     1  UNL1        0.0212
@<TRIPOS>BOND
     1     1     2    1
     2     2     3    2
     3     2     4   am
     4     4     5    1
     5     5     6    2
     6     6     7    1
     7     7     8   ar
     8     8     9   ar
     9     9    29    1
    10    29    31    1
    11    31    32    1
    12    31    33    1
    13     9    10   ar
    14    10    14    1
    15    14    15    1
    16    15    16    1
    17    16    17    1
    18    17    20    1
    19    20    21    1
    20    21    22   ar
    21    22    23   ar
    22    23    24   ar
    23    24    25    1
    24    24    26   ar
    25    26    27   ar
    26    27    28    1
    27    17    18    1
    28    18    19    1
    29    10    11   ar
    30    11    12   ar
    31    12    13    1
    32    13     4    1
    33    12     7   ar
    34    19    14    1
    35    27    21   ar
    36    29    30    1
@<TRIPOS>MOLECULE
*****
 33 36 0 0 0
SMALL
GASTEIGER

@<TRIPOS>ATOM
      1 C           2.9034   -1.1888   19.2727 C.3     1  UNL1        0.0952
      2 C           3.0904   -1.2184   20.7607 C.2     1  UNL1        0.2302
      3 O           2.2161   -0.3779   21.6433 O.2     1  UNL1       -0.2745
      4 N           4.1517   -2.0886   21.3660 N.am    1  UNL1       -0.2515
      5 C           5.0260   -2.9291   20.4834 C.2     1  UNL1        0.0695
      6 C           6.0873   -3.7993   21.0888 C.2     1  UNL1        0.0366
      7 C           6.2744   -3.8288   22.5767 C.ar    1  UNL1        0.0993
      8 N           7.3357   -4.6990   23.1821 N.ar    1  UNL1       -0.2267
      9 C           7.5227   -4.7286   24.6701 C.ar    1  UNL1        0.1603
     10 C           6.6484   -3.8880   25.5528 C.ar    1  UNL1        0.1630
     11 N           5.5871   -3.0178   24.9474 N.ar    1  UNL1       -0.2289
     12 C           5.4001   -2.9883   23.4593 C.ar    1  UNL1        0.0985
     13 C           4.3388   -2.1181   22.8540 C.3     1  UNL1        0.1454
     14 N           6.8354   -3.9176   27.0407 N.pl3   1  UNL1       -0.2908
     15 C           6.4701   -5.1472   27.8183 C.3     1  UNL1        0.0960
     16 C           6.6571   -5.1768   29.3063 C.3     1  UNL1        0.0650
     17 C           7.2095   -3.9768   30.0167 C.3     1  UNL1        0.1694
     18 C           7.5749   -2.7472   29.2393 C.3     1  UNL1        0.0650
     19 C           7.3878   -2.7176   27.7512 C.3     1  UNL1        0.0960
     20 O           7.3965   -4.0064   31.5047 O.3     1  UNL1       -0.4768
     21 C           6.8050   -2.9227   32.3567 C.ar    1  UNL1        0.1657
     22 C           5.3580   -2.9817   32.7475 C.ar    1  UNL1        0.0415
     23 C           4.7664   -1.8982   33.5995 C.ar    1  UNL1        0.0329
     24 C           5.6218   -0.7556   34.0606 C.ar    1  UNL1        0.1426
     25 F           5.0303    0.3281   34.9126 F       1  UNL1       -0.2041
     26 C           7.0688   -0.6965   33.6698 C.ar    1  UNL1        0.0624
     27 C           7.6604   -1.7801   32.8178 C.ar    1  UNL1        0.1760
     28 F           9.1074   -1.7211   32.4270 F       1  UNL1       -0.2009
     29 N           8.5840   -5.5987   25.2754 N.pl3   1  UNL1       -0.3175
     30 H           9.2790   -5.2011   25.8482 H       1  UNL1        0.1482
     31 C           8.5864   -7.0747   25.0080 C.3     1  UNL1        0.0706
     32 C           7.9076   -8.0110   25.9632 C.3     1  UNL1        0.0212
     33 C           9.2677   -7.6142   23.7855 C.3     1  UNL1        0.0212
@<TRIPOS>BOND
     1     1     2    1
     2     2     3    2
     3     2     4   am
     4     4     5    1
     5     5     6    2
     6     6     7    1
     7     7     8   ar
     8     8     9   ar
     9     9    29    1
    10    29    31    1
    11    31    32    1
    12    31    33    1
    13     9    10   ar
    14    10    14    1
    15    14    15    1
    16    15    16    1
    17    16    17    1
    18    17    20    1
    19    20    21    1
    20    21    22   ar
    21    22    23   ar
    22    23    24   ar
    23    24    25    1
    24    24    26   ar
    25    26    27   ar
    26    27    28    1
    27    17    18    1
    28    18    19    1
    29    10    11   ar
    30    11    12   ar
    31    12    13    1
    32    13     4    1
    33    12     7   ar
    34    19    14    1
    35    27    21   ar
    36    29    30    1
@<TRIPOS>MOLECULE
*****
 33 36 0 0 0
SMALL
GASTEIGER

@<TRIPOS>ATOM
      1 C           8.4658   -7.8052   26.0937 C.3     1  UNL1        0.0952
      2 C           8.2354   -7.2652   27.4740 C.2     1  UNL1        0.2302
      3 O           8.6502   -8.0670   28.6719 O.2     1  UNL1       -0.2745
      4 N           7.5903   -5.9234   27.6564 N.am    1  UNL1       -0.2515
      5 C           7.1755   -5.1215   26.4585 C.2     1  UNL1        0.0695
      6 C           6.5304   -3.7797   26.6409 C.2     1  UNL1        0.0366
      7 C           6.3000   -3.2397   28.0212 C.ar    1  UNL1        0.0993
      8 N           5.6549   -1.8979   28.2036 N.ar    1  UNL1       -0.2267
      9 C           5.4245   -1.3578   29.5839 C.ar    1  UNL1        0.1603
     10 C           5.8393   -2.1597   30.7819 C.ar    1  UNL1        0.1630
     11 N           6.4844   -3.5015   30.5995 N.ar    1  UNL1       -0.2289
     12 C           6.7148   -4.0415   29.2191 C.ar    1  UNL1        0.0985
     13 C           7.3599   -5.3834   29.0367 C.3     1  UNL1        0.1454
     14 N           5.6089   -1.6197   32.1622 N.pl3   1  UNL1       -0.2908
     15 C           6.5938   -0.6638   32.7677 C.3     1  UNL1        0.0960
     16 C           6.3634   -0.1238   34.1480 C.3     1  UNL1        0.0650
     17 C           5.1482   -0.5396   34.9229 C.3     1  UNL1        0.1694
     18 C           4.1634   -1.4954   34.3175 C.3     1  UNL1        0.0650
     19 C           4.3938   -2.0355   32.9371 C.3     1  UNL1        0.0960
     20 O           4.9179    0.0004   36.3032 O.3     1  UNL1       -0.4768
     21 C           3.9591    1.1346   36.5145 C.ar    1  UNL1        0.1657
     22 C           3.5226    1.9743   35.3508 C.ar    1  UNL1        0.0415
     23 C           2.5639    3.1084   35.5621 C.ar    1  UNL1        0.0329
     24 C           2.0418    3.4028   36.9371 C.ar    1  UNL1        0.1426
     25 F           1.0830    4.5369   37.1485 F       1  UNL1       -0.2041
     26 C           2.4784    2.5630   38.1008 C.ar    1  UNL1        0.0624
     27 C           3.4370    1.4289   37.8896 C.ar    1  UNL1        0.1760
     28 F           3.8736    0.5892   39.0533 F       1  UNL1       -0.2009
     29 N           4.7794   -0.0160   29.7664 N.pl3   1  UNL1       -0.3175
     30 H           5.3266    0.8018   29.7339 H       1  UNL1        0.1482
     31 C           3.3005    0.0799   29.9982 C.3     1  UNL1        0.0706
     32 C           2.7758    0.7940   31.2084 C.3     1  UNL1        0.0212
     33 C           2.3464   -0.5384   29.0198 C.3     1  UNL1        0.0212
@<TRIPOS>BOND
     1     1     2    1
     2     2     3    2
     3     2     4   am
     4     4     5    1
     5     5     6    2
     6     6     7    1
     7     7     8   ar
     8     8     9   ar
     9     9    29    1
    10    29    31    1
    11    31    32    1
    12    31    33    1
    13     9    10   ar
    14    10    14    1
    15    14    15    1
    16    15    16    1
    17    16    17    1
    18    17    20    1
    19    20    21    1
    20    21    22   ar
    21    22    23   ar
    22    23    24   ar
    23    24    25    1
    24    24    26   ar
    25    26    27   ar
    26    27    28    1
    27    17    18    1
    28    18    19    1
    29    10    11   ar
    30    11    12   ar
    31    12    13    1
    32    13     4    1
    33    12     7   ar
    34    19    14    1
    35    27    21   ar
    36    29    30    1
@<TRIPOS>MOLECULE
*****
 33 36 0 0 0
SMALL
GASTEIGER

@<TRIPOS>ATOM
      1 C           4.9926   -1.6867   33.6200 C.3     1  UNL1        0.0952
      2 C           5.0271   -1.4712   32.1360 C.2     1  UNL1        0.2302
      3 O           4.3002   -0.3075   31.5300 O.2     1  UNL1       -0.2745
      4 N           5.7886   -2.4195   31.2579 N.am    1  UNL1       -0.2515
      5 C           6.5155   -3.5833   31.8639 C.2     1  UNL1        0.0695
      6 C           7.2770   -4.5315   30.9859 C.2     1  UNL1        0.0366
      7 C           7.3115   -4.3161   29.5019 C.ar    1  UNL1        0.0993
      8 N           8.0730   -5.2644   28.6238 N.ar    1  UNL1       -0.2267
      9 C           8.1075   -5.0489   27.1398 C.ar    1  UNL1        0.1603
     10 C           7.3806   -3.8851   26.5338 C.ar    1  UNL1        0.1630
     11 N           6.6191   -2.9368   27.4118 N.ar    1  UNL1       -0.2289
     12 C           6.5846   -3.1523   28.8959 C.ar    1  UNL1        0.0985
     13 C           5.8231   -2.2041   29.7739 C.3     1  UNL1        0.1454
     14 N           7.4151   -3.6696   25.0497 N.pl3   1  UNL1       -0.2908
     15 C           6.2396   -4.0665   24.2067 C.3     1  UNL1        0.0960
     16 C           6.2741   -3.8511   22.7227 C.3     1  UNL1        0.0650
     17 C           7.4841   -3.2387   22.0816 C.3     1  UNL1        0.1694
     18 C           8.6596   -2.8418   22.9246 C.3     1  UNL1        0.0650
     19 C           8.6251   -3.0573   24.4087 C.3     1  UNL1        0.0960
     20 O           7.5187   -3.0233   20.5976 O.3     1  UNL1       -0.4768
     21 C           6.3675   -2.3503   19.9104 C.ar    1  UNL1        0.1657
     22 C           6.2821   -0.8530   19.8827 C.ar    1  UNL1        0.0415
     23 C           5.1311   -0.1801   19.1955 C.ar    1  UNL1        0.0329
     24 C           4.0655   -1.0044   18.5362 C.ar    1  UNL1        0.1426
     25 F           2.9143   -0.3315   17.8490 F       1  UNL1       -0.2041
     26 C           4.1509   -2.5017   18.5639 C.ar    1  UNL1        0.0624
     27 C           5.3019   -3.1747   19.2511 C.ar    1  UNL1        0.1760
     28 F           5.3873   -4.6720   19.2789 F       1  UNL1       -0.2009
     29 N           8.8690   -5.9972   26.2618 N.pl3   1  UNL1       -0.3175
     30 H           9.8451   -5.9076   26.1707 H       1  UNL1        0.1482
     31 C           8.1431   -7.0818   25.5225 C.3     1  UNL1        0.0706
     32 C           7.2088   -7.9956   26.2587 C.3     1  UNL1        0.0212
     33 C           8.3516   -7.2528   24.0469 C.3     1  UNL1        0.0212
@<TRIPOS>BOND
     1     1     2    1
     2     2     3    2
     3     2     4   am
     4     4     5    1
     5     5     6    2
     6     6     7    1
     7     7     8   ar
     8     8     9   ar
     9     9    29    1
    10    29    31    1
    11    31    32    1
    12    31    33    1
    13     9    10   ar
    14    10    14    1
    15    14    15    1
    16    15    16    1
    17    16    17    1
    18    17    20    1
    19    20    21    1
    20    21    22   ar
    21    22    23   ar
    22    23    24   ar
    23    24    25    1
    24    24    26   ar
    25    26    27   ar
    26    27    28    1
    27    17    18    1
    28    18    19    1
    29    10    11   ar
    30    11    12   ar
    31    12    13    1
    32    13     4    1
    33    12     7   ar
    34    19    14    1
    35    27    21   ar
    36    29    30    1
@<TRIPOS>MOLECULE
*****
 33 36 0 0 0
SMALL
GASTEIGER

@<TRIPOS>ATOM
      1 C           4.5034   -1.5315   34.1714 C.3     1  UNL1        0.0952
      2 C           4.7990   -1.7215   32.7131 C.2     1  UNL1        0.2302
      3 O           5.7686   -2.7793   32.2761 O.2     1  UNL1       -0.2745
      4 N           4.1251   -0.8538   31.6919 N.am    1  UNL1       -0.2515
      5 C           3.1555    0.2039   32.1289 C.2     1  UNL1        0.0695
      6 C           2.4815    1.0716   31.1077 C.2     1  UNL1        0.0366
      7 C           2.7771    0.8815   29.6495 C.ar    1  UNL1        0.0993
      8 N           2.1032    1.7492   28.6283 N.ar    1  UNL1       -0.2267
      9 C           2.3988    1.5592   27.1701 C.ar    1  UNL1        0.1603
     10 C           3.3685    0.5014   26.7330 C.ar    1  UNL1        0.1630
     11 N           4.0424   -0.3663   27.7542 N.ar    1  UNL1       -0.2289
     12 C           3.7467   -0.1762   29.2125 C.ar    1  UNL1        0.0985
     13 C           4.4207   -1.0439   30.2337 C.3     1  UNL1        0.1454
     14 N           3.6641    0.3114   25.2748 N.pl3   1  UNL1       -0.2908
     15 C           3.1630   -0.9089   24.5607 C.3     1  UNL1        0.0960
     16 C           3.4586   -1.0990   23.1025 C.3     1  UNL1        0.0650
     17 C           4.2554   -0.0688   22.3583 C.3     1  UNL1        0.1694
     18 C           4.7565    1.1515   23.0723 C.3     1  UNL1        0.0650
     19 C           4.4609    1.3416   24.5306 C.3     1  UNL1        0.0960
     20 O           4.5510   -0.2588   20.9001 O.3     1  UNL1       -0.4768
     21 C           4.5932   -1.6403   20.3171 C.ar    1  UNL1        0.1657
     22 C           5.8764   -2.4170   20.3207 C.ar    1  UNL1        0.0415
     23 C           5.9187   -3.7984   19.7379 C.ar    1  UNL1        0.0329
     24 C           4.6776   -4.4032   19.1514 C.ar    1  UNL1        0.1426
     25 F           4.7198   -5.7847   18.5685 F       1  UNL1       -0.2041
     26 C           3.3943   -3.6265   19.1478 C.ar    1  UNL1        0.0624
     27 C           3.3521   -2.2451   19.7307 C.ar    1  UNL1        0.1760
     28 F           2.0689   -1.4684   19.7271 F       1  UNL1       -0.2009
     29 N           1.7248    2.4269   26.1489 N.pl3   1  UNL1       -0.3175
     30 H           2.1352    3.2805   25.8803 H       1  UNL1        0.1482
     31 C           0.4257    1.9939   25.5368 C.3     1  UNL1        0.0706
     32 C          -0.8421    2.0716   26.3347 C.3     1  UNL1        0.0212
     33 C           0.3943    1.4833   24.1267 C.3     1  UNL1        0.0212
@<TRIPOS>BOND
     1     1     2    1
     2     2     3    2
     3     2     4   am
     4     4     5    1
     5     5     6    2
     6     6     7    1
     7     7     8   ar
     8     8     9   ar
     9     9    29    1
    10    29    31    1
    11    31    32    1
    12    31    33    1
    13     9    10   ar
    14    10    14    1
    15    14    15    1
    16    15    16    1
    17    16    17    1
    18    17    20    1
    19    20    21    1
    20    21    22   ar
    21    22    23   ar
    22    23    24   ar
    23    24    25    1
    24    24    26   ar
    25    26    27   ar
    26    27    28    1
    27    17    18    1
    28    18    19    1
    29    10    11   ar
    30    11    12   ar
    31    12    13    1
    32    13     4    1
    33    12     7   ar
    34    19    14    1
    35    27    21   ar
    36    29    30    1
@<TRIPOS>MOLECULE
*****
 33 36 0 0 0
SMALL
GASTEIGER

@<TRIPOS>ATOM
      1 C           0.0842    4.5486   32.5364 C.3     1  UNL1        0.0952
      2 C           0.4505    4.4105   31.0884 C.2     1  UNL1        0.2302
      3 O           0.1706    5.5330   30.1337 O.2     1  UNL1       -0.2745
      4 N           1.0968    3.1499   30.5952 N.am    1  UNL1       -0.2515
      5 C           1.3767    2.0274   31.5499 C.2     1  UNL1        0.0695
      6 C           2.0230    0.7668   31.0567 C.2     1  UNL1        0.0366
      7 C           2.3893    0.6287   29.6087 C.ar    1  UNL1        0.0993
      8 N           3.0356   -0.6318   29.1155 N.ar    1  UNL1       -0.2267
      9 C           3.4019   -0.7699   27.6675 C.ar    1  UNL1        0.1603
     10 C           3.1220    0.3526   26.7127 C.ar    1  UNL1        0.1630
     11 N           2.4757    1.6132   27.2059 N.ar    1  UNL1       -0.2289
     12 C           2.1094    1.7512   28.6540 C.ar    1  UNL1        0.0985
     13 C           1.4631    3.0118   29.1472 C.3     1  UNL1        0.1454
     14 N           3.4883    0.2146   25.2647 N.pl3   1  UNL1       -0.2908
     15 C           2.4515   -0.2059   24.2655 C.3     1  UNL1        0.0960
     16 C           2.8178   -0.3439   22.8175 C.3     1  UNL1        0.0650
     17 C           4.2209   -0.0616   22.3686 C.3     1  UNL1        0.1694
     18 C           5.2578    0.3588   23.3677 C.3     1  UNL1        0.0650
     19 C           4.8915    0.4969   24.8158 C.3     1  UNL1        0.0960
     20 O           4.5873   -0.1997   20.9207 O.3     1  UNL1       -0.4768
     21 C           4.6405   -1.5582   20.2867 C.ar    1  UNL1        0.1657
     22 C           5.9439   -2.2957   20.2020 C.ar    1  UNL1        0.0415
     23 C           5.9971   -3.6541   19.5680 C.ar    1  UNL1        0.0329
     24 C           4.7470   -4.2749   19.0189 C.ar    1  UNL1        0.1426
     25 F           4.8002   -5.6334   18.3849 F       1  UNL1       -0.2041
     26 C           3.4436   -3.5374   19.1036 C.ar    1  UNL1        0.0624
     27 C           3.3903   -2.1790   19.7375 C.ar    1  UNL1        0.1760
     28 F           2.0869   -1.4415   19.8223 F       1  UNL1       -0.2009
     29 N           4.0482   -2.0305   27.1743 N.pl3   1  UNL1       -0.3175
     30 H           3.5034   -2.7248   26.7379 H       1  UNL1        0.1482
     31 C           5.5245   -2.2332   27.3458 C.3     1  UNL1        0.0706
     32 C           6.1296   -2.2144   28.7182 C.3     1  UNL1        0.0212
     33 C           6.3956   -2.4548   26.1450 C.3     1  UNL1        0.0212
@<TRIPOS>BOND
     1     1     2    1
     2     2     3    2
     3     2     4   am
     4     4     5    1
     5     5     6    2
     6     6     7    1
     7     7     8   ar
     8     8     9   ar
     9     9    29    1
    10    29    31    1
    11    31    32    1
    12    31    33    1
    13     9    10   ar
    14    10    14    1
    15    14    15    1
    16    15    16    1
    17    16    17    1
    18    17    20    1
    19    20    21    1
    20    21    22   ar
    21    22    23   ar
    22    23    24   ar
    23    24    25    1
    24    24    26   ar
    25    26    27   ar
    26    27    28    1
    27    17    18    1
    28    18    19    1
    29    10    11   ar
    30    11    12   ar
    31    12    13    1
    32    13     4    1
    33    12     7   ar
    34    19    14    1
    35    27    21   ar
    36    29    30    1
@<TRIPOS>MOLECULE
*****
 33 36 0 0 0
SMALL
GASTEIGER

@<TRIPOS>ATOM
      1 C           0.0071    6.7417   35.6261 C.3     1  UNL1        0.0952
      2 C           1.0543    5.6683   35.5953 C.2     1  UNL1        0.2302
      3 O           2.0803    5.5900   36.6867 O.2     1  UNL1       -0.2745
      4 N           1.0755    4.6732   34.4731 N.am    1  UNL1       -0.2515
      5 C           0.0495    4.7515   33.3817 C.2     1  UNL1        0.0695
      6 C           0.0707    3.7564   32.2596 C.2     1  UNL1        0.0366
      7 C           1.1180    2.6829   32.2287 C.ar    1  UNL1        0.0993
      8 N           1.1392    1.6878   31.1066 N.ar    1  UNL1       -0.2267
      9 C           2.1864    0.6144   31.0757 C.ar    1  UNL1        0.1603
     10 C           3.2125    0.5360   32.1672 C.ar    1  UNL1        0.1630
     11 N           3.1913    1.5311   33.2893 N.ar    1  UNL1       -0.2289
     12 C           2.1440    2.6046   33.3201 C.ar    1  UNL1        0.0985
     13 C           2.1227    3.5997   34.4423 C.3     1  UNL1        0.1454
     14 N           4.2597   -0.5374   32.1363 N.pl3   1  UNL1       -0.2908
     15 C           4.0412   -1.8201   32.8828 C.3     1  UNL1        0.0960
     16 C           5.0884   -2.8935   32.8520 C.3     1  UNL1        0.0650
     17 C           6.3542   -2.6844   32.0748 C.3     1  UNL1        0.1694
     18 C           6.5728   -1.4018   31.3284 C.3     1  UNL1        0.0650
     19 C           5.5255   -0.3283   31.3591 C.3     1  UNL1        0.0960
     20 O           7.4014   -3.7578   32.0439 O.3     1  UNL1       -0.4768
     21 C           7.5094   -4.6665   30.8553 C.ar    1  UNL1        0.1657
     22 C           6.5542   -4.5177   29.7084 C.ar    1  UNL1        0.0415
     23 C           6.6621   -5.4262   28.5197 C.ar    1  UNL1        0.0329
     24 C           7.7252   -6.4836   28.4781 C.ar    1  UNL1        0.1426
     25 F           7.8331   -7.3922   27.2894 F       1  UNL1       -0.2041
     26 C           8.6804   -6.6324   29.6250 C.ar    1  UNL1        0.0624
     27 C           8.5725   -5.7238   30.8136 C.ar    1  UNL1        0.1760
     28 F           9.5276   -5.8726   31.9606 F       1  UNL1       -0.2009
     29 N           2.2076   -0.3807   29.9536 N.pl3   1  UNL1       -0.3175
     30 H           2.6446   -1.2541   30.0783 H       1  UNL1        0.1482
     31 C           1.5631   -0.0452   28.6413 C.3     1  UNL1        0.0706
     32 C           2.4053    0.4115   27.4871 C.3     1  UNL1        0.0212
     33 C           0.0764   -0.1664   28.4833 C.3     1  UNL1        0.0212
@<TRIPOS>BOND
     1     1     2    1
     2     2     3    2
     3     2     4   am
     4     4     5    1
     5     5     6    2
     6     6     7    1
     7     7     8   ar
     8     8     9   ar
     9     9    29    1
    10    29    31    1
    11    31    32    1
    12    31    33    1
    13     9    10   ar
    14    10    14    1
    15    14    15    1
    16    15    16    1
    17    16    17    1
    18    17    20    1
    19    20    21    1
    20    21    22   ar
    21    22    23   ar
    22    23    24   ar
    23    24    25    1
    24    24    26   ar
    25    26    27   ar
    26    27    28    1
    27    17    18    1
    28    18    19    1
    29    10    11   ar
    30    11    12   ar
    31    12    13    1
    32    13     4    1
    33    12     7   ar
    34    19    14    1
    35    27    21   ar
    36    29    30    1
