@<TRIPOS>MOLECULE
*****
 34 38 0 0 0
SMALL
GASTEIGER

@<TRIPOS>ATOM
      1 C         -17.9274   -3.7991   17.9213 C.ar    1  UNL1        0.0727
      2 C         -19.4133   -3.9998   17.8775 C.ar    1  UNL1        0.1033
      3 N         -20.0151   -5.2665   18.4096 N.ar    1  UNL1       -0.2437
      4 C         -19.1310   -6.3326   18.9857 C.ar    1  UNL1        0.0815
      5 C         -19.7328   -7.5994   19.5178 C.ar    1  UNL1        0.0214
      6 C         -18.8487   -8.6654   20.0938 C.ar    1  UNL1        0.0312
      7 C         -17.3628   -8.4648   20.1377 C.ar    1  UNL1        0.1402
      8 F         -16.4787   -9.5309   20.7137 F       1  UNL1       -0.2042
      9 C         -16.7610   -7.1981   19.6055 C.ar    1  UNL1        0.0311
     10 C         -17.6451   -6.1320   19.0295 C.ar    1  UNL1        0.0201
     11 C         -17.0433   -4.8652   18.4973 C.ar    1  UNL1        0.0074
     12 N         -17.0930    1.1210   20.0063 N.3     1  UNL1       -0.1559
     13 C         -16.5688    1.1700   18.6017 C.3     1  UNL1        0.1169
     14 C         -16.6463   -0.0479   17.7293 C.3     1  UNL1        0.1129
     15 N         -17.2481   -1.3146   18.2615 N.am    1  UNL1       -0.2731
     16 C         -17.3256   -2.5323   17.3892 C.2     1  UNL1        0.2506
     17 O         -16.8014   -2.4833   15.9846 O.2     1  UNL1       -0.2699
     18 C         -17.7723   -1.3636   19.6661 C.3     1  UNL1        0.1129
     19 C         -17.6948   -0.1458   20.5385 C.3     1  UNL1        0.1169
     20 C         -16.9379    3.5564   21.7510 C.3     1  UNL1        0.1960
     21 S         -17.0154    2.3387   20.8786 S.O2    1  UNL1        0.0458
     22 O         -17.3148    1.4954   22.0824 O.2     1  UNL1       -0.1572
     23 O         -16.7161    3.1820   19.6749 O.2     1  UNL1       -0.1572
     24 C         -15.5575   -4.6645   18.5412 C.ar    1  UNL1        0.0002
     25 C         -14.7125   -5.0582   17.3660 C.ar    1  UNL1       -0.0003
     26 C         -13.2266   -4.8576   17.4098 C.ar    1  UNL1       -0.0033
     27 C         -12.5857   -4.2632   18.6289 C.ar    1  UNL1       -0.0097
     28 C         -13.4307   -3.8696   19.8041 C.ar    1  UNL1       -0.0033
     29 C         -14.9166   -4.0702   19.7602 C.ar    1  UNL1       -0.0003
     30 C         -11.0998   -4.0626   18.6728 C.3     1  UNL1        0.0981
     31 C          -9.6401   -4.3696   18.8307 C.3     1  UNL1        0.0196
     32 C         -10.6590   -5.4546   19.0163 C.3     1  UNL1        0.0196
     33 C         -11.0245   -2.6009   18.3445 C.1     1  UNL1        0.0752
     34 N         -10.9494   -1.1392   18.0163 N.1     1  UNL1       -0.1956
@<TRIPOS>BOND
     1    20    21    1
     2    21    22    2
     3    21    23    2
     4    21    12    1
     5    12    13    1
     6    13    14    1
     7    14    15    1
     8    15    16   am
     9    16    17    2
    10    16     1    1
    11     1     2   ar
    12     2     3   ar
    13     3     4   ar
    14     4     5   ar
    15     5     6   ar
    16     6     7   ar
    17     7     8    1
    18     7     9   ar
    19     9    10   ar
    20    10    11   ar
    21    11    24    1
    22    24    25   ar
    23    25    26   ar
    24    26    27   ar
    25    27    30    1
    26    30    33    1
    27    33    34    3
    28    30    31    1
    29    31    32    1
    30    27    28   ar
    31    28    29   ar
    32    15    18    1
    33    18    19    1
    34    19    12    1
    35    11     1   ar
    36    29    24   ar
    37    10     4   ar
    38    32    30    1
@<TRIPOS>MOLECULE
*****
 34 38 0 0 0
SMALL
GASTEIGER

@<TRIPOS>ATOM
      1 C           4.0794   -1.6918   21.9561 C.ar    1  UNL1        0.0727
      2 C           4.9198   -2.6013   22.8026 C.ar    1  UNL1        0.1033
      3 N           4.8891   -2.4758   24.2970 N.ar    1  UNL1       -0.2437
      4 C           4.0181   -1.4406   24.9450 C.ar    1  UNL1        0.0815
      5 C           3.9874   -1.3151   26.4393 C.ar    1  UNL1        0.0214
      6 C           3.1164   -0.2800   27.0873 C.ar    1  UNL1        0.0312
      7 C           2.2760    0.6295   26.2408 C.ar    1  UNL1        0.1402
      8 F           1.4049    1.6646   26.8888 F       1  UNL1       -0.2042
      9 C           2.3066    0.5039   24.7464 C.ar    1  UNL1        0.0311
     10 C           3.1776   -0.5311   24.0985 C.ar    1  UNL1        0.0201
     11 C           3.2083   -0.6567   22.6040 C.ar    1  UNL1        0.0074
     12 N           6.9884    0.6657   18.0535 N.3     1  UNL1       -0.1559
     13 C           6.0596   -0.2877   17.3618 C.3     1  UNL1        0.1169
     14 C           5.1001   -1.1154   18.1646 C.3     1  UNL1        0.1129
     15 N           5.0695   -0.9897   19.6590 N.am    1  UNL1       -0.2731
     16 C           4.1100   -1.8174   20.4616 C.2     1  UNL1        0.2506
     17 O           3.1812   -2.7708   19.7699 O.2     1  UNL1       -0.2699
     18 C           5.9983   -0.0364   20.3507 C.3     1  UNL1        0.1129
     19 C           6.9578    0.7913   19.5480 C.3     1  UNL1        0.1169
     20 C           8.9073    2.3211   16.4482 C.3     1  UNL1        0.1960
     21 S           7.9479    1.4934   17.2508 S.O2    1  UNL1        0.0458
     22 O           8.5959    1.9699   18.5169 O.2     1  UNL1       -0.1572
     23 O           7.2998    1.0168   15.9848 O.2     1  UNL1       -0.1572
     24 C           2.3679    0.2528   21.7575 C.ar    1  UNL1        0.0002
     25 C           1.0874   -0.2501   21.1595 C.ar    1  UNL1       -0.0003
     26 C           0.2470    0.6594   20.3131 C.ar    1  UNL1       -0.0033
     27 C           0.6871    2.0718   20.0646 C.ar    1  UNL1       -0.0097
     28 C           1.9675    2.5745   20.6626 C.ar    1  UNL1       -0.0033
     29 C           2.8079    1.6650   21.5091 C.ar    1  UNL1       -0.0003
     30 C          -0.1533    2.9813   19.2181 C.3     1  UNL1        0.0981
     31 C          -0.5593    3.8757   18.0846 C.3     1  UNL1        0.0196
     32 C           0.8056    3.2539   18.0974 C.3     1  UNL1        0.0196
     33 C          -1.4041    3.0246   20.0449 C.1     1  UNL1        0.0752
     34 N          -2.6550    3.0678   20.8716 N.1     1  UNL1       -0.1956
@<TRIPOS>BOND
     1    20    21    1
     2    21    22    2
     3    21    23    2
     4    21    12    1
     5    12    13    1
     6    13    14    1
     7    14    15    1
     8    15    16   am
     9    16    17    2
    10    16     1    1
    11     1     2   ar
    12     2     3   ar
    13     3     4   ar
    14     4     5   ar
    15     5     6   ar
    16     6     7   ar
    17     7     8    1
    18     7     9   ar
    19     9    10   ar
    20    10    11   ar
    21    11    24    1
    22    24    25   ar
    23    25    26   ar
    24    26    27   ar
    25    27    30    1
    26    30    33    1
    27    33    34    3
    28    30    31    1
    29    31    32    1
    30    27    28   ar
    31    28    29   ar
    32    15    18    1
    33    18    19    1
    34    19    12    1
    35    11     1   ar
    36    29    24   ar
    37    10     4   ar
    38    32    30    1
@<TRIPOS>MOLECULE
*****
 34 38 0 0 0
SMALL
GASTEIGER

@<TRIPOS>ATOM
      1 C           7.1624   -1.9806   26.1999 C.ar    1  UNL1        0.0727
      2 C           7.8097   -2.1198   27.5459 C.ar    1  UNL1        0.1033
      3 N           8.4581   -3.4149   27.9360 N.ar    1  UNL1       -0.2437
      4 C           8.4592   -4.5710   26.9801 C.ar    1  UNL1        0.0815
      5 C           9.1076   -5.8661   27.3701 C.ar    1  UNL1        0.0214
      6 C           9.1086   -7.0220   26.4143 C.ar    1  UNL1        0.0312
      7 C           8.4613   -6.8829   25.0683 C.ar    1  UNL1        0.1402
      8 F           8.4624   -8.0389   24.1124 F       1  UNL1       -0.2042
      9 C           7.8129   -5.5877   24.6782 C.ar    1  UNL1        0.0311
     10 C           7.8119   -4.4318   25.6341 C.ar    1  UNL1        0.0201
     11 C           7.1635   -3.1366   25.2440 C.ar    1  UNL1        0.0074
     12 N           2.4579    0.3811   27.4408 N.3     1  UNL1       -0.1559
     13 C           3.1616    1.3208   26.5071 C.3     1  UNL1        0.1169
     14 C           4.5137    0.9652   25.9635 C.3     1  UNL1        0.1129
     15 N           5.1620   -0.3299   26.3535 N.am    1  UNL1       -0.2731
     16 C           6.5140   -0.6854   25.8099 C.2     1  UNL1        0.2506
     17 O           7.2177    0.2543   24.8761 O.2     1  UNL1       -0.2699
     18 C           4.4583   -1.2696   27.2872 C.3     1  UNL1        0.1129
     19 C           3.1063   -0.9141   27.8309 C.3     1  UNL1        0.1169
     20 C          -0.2462    1.0921   28.5282 C.3     1  UNL1        0.1960
     21 S           1.1059    0.7366   27.9845 S.O2    1  UNL1        0.0458
     22 O           1.0809    1.9627   27.1208 O.2     1  UNL1       -0.1572
     23 O           1.1308   -0.4894   28.8482 O.2     1  UNL1       -0.1572
     24 C           6.5161   -2.9974   23.8981 C.ar    1  UNL1        0.0002
     25 C           7.3492   -2.6634   22.6961 C.ar    1  UNL1       -0.0003
     26 C           6.7019   -2.5242   21.3502 C.ar    1  UNL1       -0.0033
     27 C           5.2215   -2.7190   21.2062 C.ar    1  UNL1       -0.0097
     28 C           4.3885   -3.0530   22.4081 C.ar    1  UNL1       -0.0033
     29 C           5.0359   -3.1922   23.7540 C.ar    1  UNL1       -0.0003
     30 C           4.5742   -2.5798   19.8602 C.3     1  UNL1        0.0981
     31 C           3.9118   -1.9449   18.6736 C.3     1  UNL1        0.0196
     32 C           4.3059   -1.1040   19.8515 C.3     1  UNL1        0.0196
     33 C           4.6176   -4.0073   19.4014 C.1     1  UNL1        0.0752
     34 N           4.6609   -5.4347   18.9425 N.1     1  UNL1       -0.1956
@<TRIPOS>BOND
     1    20    21    1
     2    21    22    2
     3    21    23    2
     4    21    12    1
     5    12    13    1
     6    13    14    1
     7    14    15    1
     8    15    16   am
     9    16    17    2
    10    16     1    1
    11     1     2   ar
    12     2     3   ar
    13     3     4   ar
    14     4     5   ar
    15     5     6   ar
    16     6     7   ar
    17     7     8    1
    18     7     9   ar
    19     9    10   ar
    20    10    11   ar
    21    11    24    1
    22    24    25   ar
    23    25    26   ar
    24    26    27   ar
    25    27    30    1
    26    30    33    1
    27    33    34    3
    28    30    31    1
    29    31    32    1
    30    27    28   ar
    31    28    29   ar
    32    15    18    1
    33    18    19    1
    34    19    12    1
    35    11     1   ar
    36    29    24   ar
    37    10     4   ar
    38    32    30    1
@<TRIPOS>MOLECULE
*****
 34 38 0 0 0
SMALL
GASTEIGER

@<TRIPOS>ATOM
      1 C           3.9866    0.7824   24.6175 C.ar    1  UNL1        0.0727
      2 C           4.7174    0.3049   25.8373 C.ar    1  UNL1        0.1033
      3 N           4.0070    0.2316   27.1564 N.ar    1  UNL1       -0.2437
      4 C           2.5659    0.6357   27.2557 C.ar    1  UNL1        0.0815
      5 C           1.8555    0.5624   28.5748 C.ar    1  UNL1        0.0214
      6 C           0.4144    0.9665   28.6740 C.ar    1  UNL1        0.0312
      7 C          -0.3163    1.4439   27.4541 C.ar    1  UNL1        0.1402
      8 F          -1.7575    1.8480   27.5534 F       1  UNL1       -0.2042
      9 C           0.3940    1.5172   26.1351 C.ar    1  UNL1        0.0311
     10 C           1.8351    1.1131   26.0358 C.ar    1  UNL1        0.0201
     11 C           2.5455    1.1864   24.7167 C.ar    1  UNL1        0.0074
     12 N           4.7204   -2.7106   20.5541 N.3     1  UNL1       -0.1559
     13 C           5.4230   -1.4485   20.1498 C.3     1  UNL1        0.1169
     14 C           5.4152   -0.2597   21.0646 C.3     1  UNL1        0.1129
     15 N           4.7048   -0.3331   22.3836 N.am    1  UNL1       -0.2731
     16 C           4.6970    0.8557   23.2984 C.2     1  UNL1        0.2506
     17 O           5.3996    2.1178   22.8940 O.2     1  UNL1       -0.2699
     18 C           4.0022   -1.5952   22.7879 C.3     1  UNL1        0.1129
     19 C           4.0100   -2.7839   21.8732 C.3     1  UNL1        0.1169
     20 C           4.7360   -5.0881   18.7246 C.3     1  UNL1        0.1960
     21 S           4.7282   -3.8993   19.6393 S.O2    1  UNL1        0.0458
     22 O           5.2610   -3.0420   18.5298 O.2     1  UNL1       -0.1572
     23 O           4.1954   -4.7566   20.7489 O.2     1  UNL1       -0.1572
     24 C           1.8147    1.6639   23.4969 C.ar    1  UNL1        0.0002
     25 C           1.1256    0.6773   22.6013 C.ar    1  UNL1       -0.0003
     26 C           0.3948    1.1548   21.3815 C.ar    1  UNL1       -0.0033
     27 C           0.3532    2.6187   21.0572 C.ar    1  UNL1       -0.0097
     28 C           1.0423    3.6052   21.9527 C.ar    1  UNL1       -0.0033
     29 C           1.7731    3.1278   23.1725 C.ar    1  UNL1       -0.0003
     30 C          -0.3776    3.0962   19.8373 C.3     1  UNL1        0.0981
     31 C          -0.6179    3.5944   18.4431 C.3     1  UNL1        0.0196
     32 C           0.7808    3.3219   18.9114 C.3     1  UNL1        0.0196
     33 C          -1.7897    3.0363   20.3395 C.1     1  UNL1        0.0752
     34 N          -3.2018    2.9765   20.8418 N.1     1  UNL1       -0.1956
@<TRIPOS>BOND
     1    20    21    1
     2    21    22    2
     3    21    23    2
     4    21    12    1
     5    12    13    1
     6    13    14    1
     7    14    15    1
     8    15    16   am
     9    16    17    2
    10    16     1    1
    11     1     2   ar
    12     2     3   ar
    13     3     4   ar
    14     4     5   ar
    15     5     6   ar
    16     6     7   ar
    17     7     8    1
    18     7     9   ar
    19     9    10   ar
    20    10    11   ar
    21    11    24    1
    22    24    25   ar
    23    25    26   ar
    24    26    27   ar
    25    27    30    1
    26    30    33    1
    27    33    34    3
    28    30    31    1
    29    31    32    1
    30    27    28   ar
    31    28    29   ar
    32    15    18    1
    33    18    19    1
    34    19    12    1
    35    11     1   ar
    36    29    24   ar
    37    10     4   ar
    38    32    30    1
@<TRIPOS>MOLECULE
*****
 34 38 0 0 0
SMALL
GASTEIGER

@<TRIPOS>ATOM
      1 C          -0.5241    3.9873   18.7131 C.ar    1  UNL1        0.0727
      2 C          -1.2560    4.1582   17.4149 C.ar    1  UNL1        0.1033
      3 N          -2.7544    4.0972   17.3850 N.ar    1  UNL1       -0.2437
      4 C          -3.5211    3.8653   18.6533 C.ar    1  UNL1        0.0815
      5 C          -5.0195    3.8043   18.6234 C.ar    1  UNL1        0.0214
      6 C          -5.7861    3.5725   19.8916 C.ar    1  UNL1        0.0312
      7 C          -5.0543    3.4015   21.1898 C.ar    1  UNL1        0.1402
      8 F          -5.8210    3.1697   22.4581 F       1  UNL1       -0.2042
      9 C          -3.5559    3.4625   21.2197 C.ar    1  UNL1        0.0311
     10 C          -2.7893    3.6944   19.9514 C.ar    1  UNL1        0.0201
     11 C          -1.2907    3.7554   19.9813 C.ar    1  UNL1        0.0074
     12 N           3.3896    0.2821   18.2601 N.3     1  UNL1       -0.1559
     13 C           4.0830    1.5985   18.4509 C.3     1  UNL1        0.1169
     14 C           3.2778    2.8539   18.6119 C.3     1  UNL1        0.1129
     15 N           1.7794    2.7929   18.5820 N.am    1  UNL1       -0.2731
     16 C           0.9744    4.0482   18.7429 C.2     1  UNL1        0.2506
     17 O           1.6677    5.3646   18.9337 O.2     1  UNL1       -0.2699
     18 C           1.0860    1.4765   18.3912 C.3     1  UNL1        0.1129
     19 C           1.8911    0.2212   18.2303 C.3     1  UNL1        0.1169
     20 C           4.9997   -2.2285   17.9383 C.3     1  UNL1        0.1960
     21 S           4.1947   -0.9732   18.0992 S.O2    1  UNL1        0.0458
     22 O           4.3663   -1.0539   19.5871 O.2     1  UNL1       -0.1572
     23 O           4.0231   -0.8925   16.6113 O.2     1  UNL1       -0.1572
     24 C          -0.5589    3.5845   21.2795 C.ar    1  UNL1        0.0002
     25 C          -0.1277    2.2179   21.7230 C.ar    1  UNL1       -0.0003
     26 C           0.6042    2.0470   23.0212 C.ar    1  UNL1       -0.0033
     27 C           0.9047    3.2426   23.8758 C.ar    1  UNL1       -0.0097
     28 C           0.4735    4.6091   23.4322 C.ar    1  UNL1       -0.0033
     29 C          -0.2583    4.7800   22.1340 C.ar    1  UNL1       -0.0003
     30 C           1.6366    3.0717   25.1739 C.3     1  UNL1        0.0981
     31 C           2.7661    3.0262   26.1599 C.3     1  UNL1        0.0196
     32 C           3.0359    3.3735   24.7258 C.3     1  UNL1        0.0196
     33 C           0.4914    2.7105   26.0730 C.1     1  UNL1        0.0752
     34 N          -0.6536    2.3493   26.9720 N.1     1  UNL1       -0.1956
@<TRIPOS>BOND
     1    20    21    1
     2    21    22    2
     3    21    23    2
     4    21    12    1
     5    12    13    1
     6    13    14    1
     7    14    15    1
     8    15    16   am
     9    16    17    2
    10    16     1    1
    11     1     2   ar
    12     2     3   ar
    13     3     4   ar
    14     4     5   ar
    15     5     6   ar
    16     6     7   ar
    17     7     8    1
    18     7     9   ar
    19     9    10   ar
    20    10    11   ar
    21    11    24    1
    22    24    25   ar
    23    25    26   ar
    24    26    27   ar
    25    27    30    1
    26    30    33    1
    27    33    34    3
    28    30    31    1
    29    31    32    1
    30    27    28   ar
    31    28    29   ar
    32    15    18    1
    33    18    19    1
    34    19    12    1
    35    11     1   ar
    36    29    24   ar
    37    10     4   ar
    38    32    30    1
@<TRIPOS>MOLECULE
*****
 34 38 0 0 0
SMALL
GASTEIGER

@<TRIPOS>ATOM
      1 C           0.4436    3.7760   18.9549 C.ar    1  UNL1        0.0727
      2 C           0.0038    4.1870   17.5810 C.ar    1  UNL1        0.1033
      3 N          -1.4580    4.2932   17.2619 N.ar    1  UNL1       -0.2437
      4 C          -2.4800    3.9885   18.3168 C.ar    1  UNL1        0.0815
      5 C          -3.9418    4.0947   17.9978 C.ar    1  UNL1        0.0214
      6 C          -4.9637    3.7900   19.0527 C.ar    1  UNL1        0.0312
      7 C          -4.5239    3.3790   20.4266 C.ar    1  UNL1        0.1402
      8 F          -5.5459    3.0743   21.4815 F       1  UNL1       -0.2042
      9 C          -3.0621    3.2728   20.7456 C.ar    1  UNL1        0.0311
     10 C          -2.0402    3.5775   19.6907 C.ar    1  UNL1        0.0201
     11 C          -0.5783    3.4713   20.0097 C.ar    1  UNL1        0.0074
     12 N           4.0821   -0.2086   18.5882 N.3     1  UNL1       -0.1559
     13 C           4.8184    0.9780   19.1358 C.3     1  UNL1        0.1169
     14 C           4.0928    2.2708   19.3643 C.3     1  UNL1        0.1129
     15 N           2.6310    2.3770   19.0453 N.am    1  UNL1       -0.2731
     16 C           1.9055    3.6698   19.2739 C.2     1  UNL1        0.2506
     17 O           2.6418    4.8564   19.8214 O.2     1  UNL1       -0.2699
     18 C           1.8947    1.1904   18.4977 C.3     1  UNL1        0.1129
     19 C           2.6202   -0.1024   18.2692 C.3     1  UNL1        0.1169
     20 C           5.5331   -2.7942   18.1311 C.3     1  UNL1        0.1960
     21 S           4.8076   -1.5014   18.3596 S.O2    1  UNL1        0.0458
     22 O           4.2143   -2.0573   19.6201 O.2     1  UNL1       -0.1572
     23 O           5.4009   -0.9456   17.0991 O.2     1  UNL1       -0.1572
     24 C          -0.1384    3.0603   21.3836 C.ar    1  UNL1        0.0002
     25 C           0.1942    1.6252   21.6667 C.ar    1  UNL1       -0.0003
     26 C           0.6341    1.2142   23.0406 C.ar    1  UNL1       -0.0033
     27 C           0.7414    2.2383   24.1314 C.ar    1  UNL1       -0.0097
     28 C           0.4088    3.6733   23.8483 C.ar    1  UNL1       -0.0033
     29 C          -0.0311    4.0843   22.4744 C.ar    1  UNL1       -0.0003
     30 C           1.1813    1.8273   25.5053 C.3     1  UNL1        0.0981
     31 C           1.1055    1.3622   26.9293 C.3     1  UNL1        0.0196
     32 C          -0.1508    1.5286   26.1269 C.3     1  UNL1        0.0196
     33 C           2.6661    1.9833   25.3610 C.1     1  UNL1        0.0752
     34 N           4.1510    2.1393   25.2166 N.1     1  UNL1       -0.1956
@<TRIPOS>BOND
     1    20    21    1
     2    21    22    2
     3    21    23    2
     4    21    12    1
     5    12    13    1
     6    13    14    1
     7    14    15    1
     8    15    16   am
     9    16    17    2
    10    16     1    1
    11     1     2   ar
    12     2     3   ar
    13     3     4   ar
    14     4     5   ar
    15     5     6   ar
    16     6     7   ar
    17     7     8    1
    18     7     9   ar
    19     9    10   ar
    20    10    11   ar
    21    11    24    1
    22    24    25   ar
    23    25    26   ar
    24    26    27   ar
    25    27    30    1
    26    30    33    1
    27    33    34    3
    28    30    31    1
    29    31    32    1
    30    27    28   ar
    31    28    29   ar
    32    15    18    1
    33    18    19    1
    34    19    12    1
    35    11     1   ar
    36    29    24   ar
    37    10     4   ar
    38    32    30    1
@<TRIPOS>MOLECULE
*****
 34 38 0 0 0
SMALL
GASTEIGER

@<TRIPOS>ATOM
      1 C          -0.0645    3.5043   21.7951 C.ar    1  UNL1        0.0727
      2 C          -0.1856    3.6454   20.3067 C.ar    1  UNL1        0.1033
      3 N           0.4253    2.6153   19.4036 N.ar    1  UNL1       -0.2437
      4 C           1.1573    1.4441   19.9888 C.ar    1  UNL1        0.0815
      5 C           1.7682    0.4140   19.0857 C.ar    1  UNL1        0.0214
      6 C           2.5001   -0.7572   19.6710 C.ar    1  UNL1        0.0312
      7 C           2.6211   -0.8982   21.1594 C.ar    1  UNL1        0.1402
      8 F           3.3531   -2.0695   21.7447 F       1  UNL1       -0.2042
      9 C           2.0103    0.1318   22.0626 C.ar    1  UNL1        0.0311
     10 C           1.2783    1.3030   21.4773 C.ar    1  UNL1        0.0201
     11 C           0.6674    2.3332   22.3804 C.ar    1  UNL1        0.0074
     12 N          -5.1202    4.5592   23.4006 N.3     1  UNL1       -0.1559
     13 C          -4.2495    5.5811   24.0696 C.3     1  UNL1        0.1169
     14 C          -2.7678    5.5729   23.8355 C.3     1  UNL1        0.1129
     15 N          -2.1570    4.5427   22.9324 N.am    1  UNL1       -0.2731
     16 C          -0.6754    4.5345   22.6983 C.2     1  UNL1        0.2506
     17 O           0.1953    5.5564   23.3673 O.2     1  UNL1       -0.2699
     18 C          -3.0277    3.5208   22.2634 C.3     1  UNL1        0.1129
     19 C          -4.5093    3.5291   22.4975 C.3     1  UNL1        0.1169
     20 C          -8.0833    4.5757   23.8688 C.3     1  UNL1        0.1960
     21 S          -6.6018    4.5675   23.6347 S.O2    1  UNL1        0.0458
     22 O          -6.8313    4.2168   22.1945 O.2     1  UNL1       -0.1572
     23 O          -6.3723    4.9181   25.0749 O.2     1  UNL1       -0.1572
     24 C           0.7885    2.1921   23.8689 C.ar    1  UNL1        0.0002
     25 C           2.0001    2.7226   24.5764 C.ar    1  UNL1       -0.0003
     26 C           2.1211    2.5815   26.0649 C.ar    1  UNL1       -0.0033
     27 C           1.0306    1.9099   26.8457 C.ar    1  UNL1       -0.0097
     28 C          -0.1810    1.3795   26.1382 C.ar    1  UNL1       -0.0033
     29 C          -0.3020    1.5206   24.6497 C.ar    1  UNL1       -0.0003
     30 C           1.1516    1.7689   28.3342 C.3     1  UNL1        0.0981
     31 C           1.0437    2.0948   29.7943 C.3     1  UNL1        0.0196
     32 C           0.5343    3.0647   28.7697 C.3     1  UNL1        0.0196
     33 C           1.8109    0.4240   28.4156 C.1     1  UNL1        0.0752
     34 N           2.4703   -0.9208   28.4972 N.1     1  UNL1       -0.1956
@<TRIPOS>BOND
     1    20    21    1
     2    21    22    2
     3    21    23    2
     4    21    12    1
     5    12    13    1
     6    13    14    1
     7    14    15    1
     8    15    16   am
     9    16    17    2
    10    16     1    1
    11     1     2   ar
    12     2     3   ar
    13     3     4   ar
    14     4     5   ar
    15     5     6   ar
    16     6     7   ar
    17     7     8    1
    18     7     9   ar
    19     9    10   ar
    20    10    11   ar
    21    11    24    1
    22    24    25   ar
    23    25    26   ar
    24    26    27   ar
    25    27    30    1
    26    30    33    1
    27    33    34    3
    28    30    31    1
    29    31    32    1
    30    27    28   ar
    31    28    29   ar
    32    15    18    1
    33    18    19    1
    34    19    12    1
    35    11     1   ar
    36    29    24   ar
    37    10     4   ar
    38    32    30    1
@<TRIPOS>MOLECULE
*****
 34 38 0 0 0
SMALL
GASTEIGER

@<TRIPOS>ATOM
      1 C          -0.4637    5.0828   27.5002 C.ar    1  UNL1        0.0727
      2 C          -1.1900    6.0179   28.4210 C.ar    1  UNL1        0.1033
      3 N          -2.6651    6.2360   28.2578 N.ar    1  UNL1       -0.2437
      4 C          -3.4138    5.5189   27.1737 C.ar    1  UNL1        0.0815
      5 C          -4.8889    5.7370   27.0105 C.ar    1  UNL1        0.0214
      6 C          -5.6375    5.0199   25.9264 C.ar    1  UNL1        0.0312
      7 C          -4.9112    4.0847   25.0056 C.ar    1  UNL1        0.1402
      8 F          -5.6600    3.3676   23.9215 F       1  UNL1       -0.2042
      9 C          -3.4362    3.8666   25.1688 C.ar    1  UNL1        0.0311
     10 C          -2.6875    4.5837   26.2529 C.ar    1  UNL1        0.0201
     11 C          -1.2124    4.3657   26.4162 C.ar    1  UNL1        0.0074
     12 N           2.5164    1.4955   30.2390 N.3     1  UNL1       -0.1559
     13 C           3.4898    2.4006   29.5438 C.3     1  UNL1        0.1169
     14 C           2.9881    3.5237   28.6852 C.3     1  UNL1        0.1129
     15 N           1.5131    3.7417   28.5220 N.am    1  UNL1       -0.2731
     16 C           1.0114    4.8647   27.6635 C.2     1  UNL1        0.2506
     17 O           1.9848    5.7698   26.9682 O.2     1  UNL1       -0.2699
     18 C           0.5397    2.8366   29.2172 C.3     1  UNL1        0.1129
     19 C           1.0413    1.7136   30.0757 C.3     1  UNL1        0.1169
     20 C           3.5197   -0.7506   31.9560 C.3     1  UNL1        0.1960
     21 S           3.0181    0.3725   31.0975 S.O2    1  UNL1        0.0458
     22 O           1.9855   -0.5408   30.5062 O.2     1  UNL1       -0.1572
     23 O           4.0506    1.2858   31.6889 O.2     1  UNL1       -0.1572
     24 C          -0.4860    3.4305   25.4954 C.ar    1  UNL1        0.0002
     25 C          -0.4415    1.9623   25.7998 C.ar    1  UNL1       -0.0003
     26 C           0.2848    1.0272   24.8790 C.ar    1  UNL1       -0.0033
     27 C           0.9666    1.5601   23.6537 C.ar    1  UNL1       -0.0097
     28 C           0.9221    3.0282   23.3494 C.ar    1  UNL1       -0.0033
     29 C           0.1958    3.9634   24.2702 C.ar    1  UNL1       -0.0003
     30 C           1.6930    0.6250   22.7329 C.3     1  UNL1        0.0981
     31 C           2.7433   -0.3151   22.2201 C.3     1  UNL1        0.0196
     32 C           2.8781    0.2860   23.5877 C.3     1  UNL1        0.0196
     33 C           0.7601    0.6391   21.5584 C.1     1  UNL1        0.0752
     34 N          -0.1727    0.6533   20.3839 N.1     1  UNL1       -0.1956
@<TRIPOS>BOND
     1    20    21    1
     2    21    22    2
     3    21    23    2
     4    21    12    1
     5    12    13    1
     6    13    14    1
     7    14    15    1
     8    15    16   am
     9    16    17    2
    10    16     1    1
    11     1     2   ar
    12     2     3   ar
    13     3     4   ar
    14     4     5   ar
    15     5     6   ar
    16     6     7   ar
    17     7     8    1
    18     7     9   ar
    19     9    10   ar
    20    10    11   ar
    21    11    24    1
    22    24    25   ar
    23    25    26   ar
    24    26    27   ar
    25    27    30    1
    26    30    33    1
    27    33    34    3
    28    30    31    1
    29    31    32    1
    30    27    28   ar
    31    28    29   ar
    32    15    18    1
    33    18    19    1
    34    19    12    1
    35    11     1   ar
    36    29    24   ar
    37    10     4   ar
    38    32    30    1
@<TRIPOS>MOLECULE
*****
 34 38 0 0 0
SMALL
GASTEIGER

@<TRIPOS>ATOM
      1 C           2.3097    3.3175   22.3327 C.ar    1  UNL1        0.0727
      2 C           1.9585    4.4317   23.2735 C.ar    1  UNL1        0.1033
      3 N           1.9314    4.1838   24.7526 N.ar    1  UNL1       -0.2437
      4 C           2.2555    2.8217   25.2909 C.ar    1  UNL1        0.0815
      5 C           2.2284    2.5738   26.7700 C.ar    1  UNL1        0.0214
      6 C           2.5525    1.2118   27.3083 C.ar    1  UNL1        0.0312
      7 C           2.9037    0.0976   26.3674 C.ar    1  UNL1        0.1402
      8 F           3.2278   -1.2645   26.9057 F       1  UNL1       -0.2042
      9 C           2.9308    0.3455   24.8883 C.ar    1  UNL1        0.0311
     10 C           2.6067    1.7075   24.3501 C.ar    1  UNL1        0.0201
     11 C           2.6338    1.9554   22.8709 C.ar    1  UNL1        0.0074
     12 N          -1.5154    3.7841   18.5378 N.3     1  UNL1       -0.1559
     13 C          -0.2042    3.9591   17.8305 C.3     1  UNL1        0.1169
     14 C           1.0799    3.8862   18.6025 C.3     1  UNL1        0.1129
     15 N           1.0527    3.6383   20.0816 N.am    1  UNL1       -0.2731
     16 C           2.3368    3.5654   20.8535 C.2     1  UNL1        0.2506
     17 O           3.6480    3.7404   20.1463 O.2     1  UNL1       -0.2699
     18 C          -0.2584    3.4633   20.7888 C.3     1  UNL1        0.1129
     19 C          -1.5425    3.5362   20.0169 C.3     1  UNL1        0.1169
     20 C          -4.0835    3.9299   16.9940 C.3     1  UNL1        0.1960
     21 S          -2.7995    3.8570   17.7659 S.O2    1  UNL1        0.0458
     22 O          -2.0249    3.9125   16.4826 O.2     1  UNL1       -0.1572
     23 O          -3.5740    3.8016   19.0492 O.2     1  UNL1       -0.1572
     24 C           2.9850    0.8413   21.9300 C.ar    1  UNL1        0.0002
     25 C           4.4209    0.5706   21.5909 C.ar    1  UNL1       -0.0003
     26 C           4.7721   -0.5436   20.6500 C.ar    1  UNL1       -0.0033
     27 C           3.6874   -1.3871   20.0483 C.ar    1  UNL1       -0.0097
     28 C           2.2516   -1.1164   20.3874 C.ar    1  UNL1       -0.0033
     29 C           1.9004   -0.0022   21.3283 C.ar    1  UNL1       -0.0003
     30 C           4.0386   -2.5013   19.1074 C.3     1  UNL1        0.0981
     31 C           4.3883   -3.8754   18.6180 C.3     1  UNL1        0.0196
     32 C           4.1563   -3.6367   20.0805 C.3     1  UNL1        0.0196
     33 C           4.0429   -1.7529   17.8074 C.1     1  UNL1        0.0752
     34 N           4.0472   -1.0046   16.5075 N.1     1  UNL1       -0.1956
@<TRIPOS>BOND
     1    20    21    1
     2    21    22    2
     3    21    23    2
     4    21    12    1
     5    12    13    1
     6    13    14    1
     7    14    15    1
     8    15    16   am
     9    16    17    2
    10    16     1    1
    11     1     2   ar
    12     2     3   ar
    13     3     4   ar
    14     4     5   ar
    15     5     6   ar
    16     6     7   ar
    17     7     8    1
    18     7     9   ar
    19     9    10   ar
    20    10    11   ar
    21    11    24    1
    22    24    25   ar
    23    25    26   ar
    24    26    27   ar
    25    27    30    1
    26    30    33    1
    27    33    34    3
    28    30    31    1
    29    31    32    1
    30    27    28   ar
    31    28    29   ar
    32    15    18    1
    33    18    19    1
    34    19    12    1
    35    11     1   ar
    36    29    24   ar
    37    10     4   ar
    38    32    30    1
