@<TRIPOS>MOLECULE
*****
 40 45 0 0 0
SMALL
GASTEIGER

@<TRIPOS>ATOM
      1 C           5.1361   -1.9155   26.9888 C.3     1  UNL1        0.0933
      2 C           5.9068   -1.8344   28.2732 C.3     1  UNL1        0.0442
      3 C           5.2527   -1.2868   29.5070 C.3     1  UNL1        0.0953
      4 N           3.8280   -0.8203   29.4565 N.am    1  UNL1       -0.2794
      5 C           3.1739   -0.2728   30.6904 C.2     1  UNL1        0.2252
      6 O           1.7492    0.1937   30.6399 O.2     1  UNL1       -0.2749
      7 C           3.0574   -0.9014   28.1722 C.3     1  UNL1        0.0953
      8 C           3.7114   -1.4490   26.9384 C.3     1  UNL1        0.0442
      9 N           6.6074   -2.6850   23.4805 N.ar    1  UNL1       -0.2758
     10 C           5.8683   -1.7805   24.4216 C.ar    1  UNL1        0.3317
     11 O           5.3063   -0.4304   24.0879 O.2     1  UNL1       -0.2463
     12 N           5.7901   -2.4631   25.7549 N.ar    1  UNL1       -0.2817
     13 C           6.4808   -3.7895   25.6379 C.ar    1  UNL1        0.0796
     14 C           6.7150   -4.8901   26.6297 C.ar    1  UNL1        0.0188
     15 C           7.4543   -6.1279   26.2158 C.ar    1  UNL1        0.0016
     16 C           7.9594   -6.2650   24.8101 C.ar    1  UNL1        0.0016
     17 C           7.7252   -5.1644   23.8183 C.ar    1  UNL1        0.0188
     18 C           6.9859   -3.9267   24.2322 C.ar    1  UNL1        0.0800
     19 C           6.9140   -2.3983   22.0404 C.3     1  UNL1        0.1374
     20 C           4.9504   -2.4101   18.5917 C.ar    1  UNL1        0.1385
     21 C           3.9375   -3.4868   18.8459 C.ar    1  UNL1        0.0369
     22 C           3.9167   -4.2007   20.1650 C.ar    1  UNL1        0.0029
     23 C           4.9089   -3.8378   21.2298 C.ar    1  UNL1       -0.0022
     24 C           5.9219   -2.7611   20.9756 C.ar    1  UNL1        0.0035
     25 C           5.9426   -2.0472   19.6565 C.ar    1  UNL1        0.0345
     26 C           3.8122   -0.8340   16.8682 C.3     1  UNL1        0.2525
     27 O           4.9711   -1.6962   17.2726 O.3     1  UNL1       -0.4714
     28 C           3.9447   -0.1917   31.9746 C.3     1  UNL1        0.0795
     29 C           4.6073    1.0940   32.3719 C.3     1  UNL1        0.0264
     30 C           5.3781    1.1750   33.6562 C.3     1  UNL1        0.0729
     31 N           5.4861   -0.0297   34.5433 N.3     1  UNL1       -0.2689
     32 C           4.8235   -1.3155   34.1461 C.3     1  UNL1        0.0729
     33 C           4.0528   -1.3964   32.8618 C.3     1  UNL1        0.0264
     34 C           6.2569    0.0513   35.8276 C.3     1  UNL1        0.0992
     35 C           5.6843    0.7903   37.0006 C.ar    1  UNL1       -0.0031
     36 C           4.2505    0.5838   37.3899 C.ar    1  UNL1        0.0178
     37 C           3.6779    1.3228   38.5629 C.ar    1  UNL1        0.0986
     38 N           4.5391    2.2684   39.3466 N.ar    1  UNL1       -0.2423
     39 C           5.9729    2.4749   38.9573 C.ar    1  UNL1        0.0986
     40 C           6.5455    1.7359   37.7843 C.ar    1  UNL1        0.0178
@<TRIPOS>BOND
     1    26    27    1
     2    27    20    1
     3    20    21   ar
     4    21    22   ar
     5    22    23   ar
     6    23    24   ar
     7    24    19    1
     8    19     9    1
     9     9    10   ar
    10    10    11    2
    11    10    12   ar
    12    12     1    1
    13     1     2    1
    14     2     3    1
    15     3     4    1
    16     4     5   am
    17     5     6    2
    18     5    28    1
    19    28    29    1
    20    29    30    1
    21    30    31    1
    22    31    34    1
    23    34    35    1
    24    35    36   ar
    25    36    37   ar
    26    37    38   ar
    27    38    39   ar
    28    39    40   ar
    29    31    32    1
    30    32    33    1
    31     4     7    1
    32     7     8    1
    33    12    13   ar
    34    13    14   ar
    35    14    15   ar
    36    15    16   ar
    37    16    17   ar
    38    17    18   ar
    39    24    25   ar
    40    25    20   ar
    41    18     9   ar
    42     8     1    1
    43    18    13   ar
    44    33    28    1
    45    40    35   ar
@<TRIPOS>MOLECULE
*****
 40 45 0 0 0
SMALL
GASTEIGER

@<TRIPOS>ATOM
      1 C           7.0515   -4.0504   27.1947 C.3     1  UNL1        0.0933
      2 C           6.9662   -2.7773   27.9834 C.3     1  UNL1        0.0442
      3 C           6.8160   -2.8279   29.4751 C.3     1  UNL1        0.0953
      4 N           6.7510   -4.1514   30.1779 N.am    1  UNL1       -0.2794
      5 C           6.6008   -4.2019   31.6695 C.2     1  UNL1        0.2252
      6 O           6.5359   -5.5255   32.3724 O.2     1  UNL1       -0.2749
      7 C           6.8363   -5.4244   29.3892 C.3     1  UNL1        0.0953
      8 C           6.9865   -5.3739   27.8975 C.3     1  UNL1        0.0442
      9 N           7.1195   -3.2409   23.3993 N.ar    1  UNL1       -0.2758
     10 C           6.7829   -2.8678   24.8126 C.ar    1  UNL1        0.3317
     11 O           6.1404   -1.5874   25.2574 O.2     1  UNL1       -0.2463
     12 N           7.2017   -3.9999   25.7030 N.ar    1  UNL1       -0.2817
     13 C           7.7970   -5.0727   24.8401 C.ar    1  UNL1        0.0796
     14 C           8.3788   -6.4160   25.1668 C.ar    1  UNL1        0.0188
     15 C           8.9098   -7.2903   24.0697 C.ar    1  UNL1        0.0016
     16 C           8.8590   -6.8212   22.6459 C.ar    1  UNL1        0.0016
     17 C           8.2772   -5.4778   22.3191 C.ar    1  UNL1        0.0188
     18 C           7.7462   -4.6036   23.4162 C.ar    1  UNL1        0.0800
     19 C           6.8726   -2.3991   22.1825 C.3     1  UNL1        0.1374
     20 C           4.8944   -2.6647   18.7524 C.ar    1  UNL1        0.1385
     21 C           3.9085   -3.7476   19.0768 C.ar    1  UNL1        0.0369
     22 C           3.9107   -4.3811   20.4366 C.ar    1  UNL1        0.0029
     23 C           4.8987   -3.9315   21.4718 C.ar    1  UNL1       -0.0022
     24 C           5.8846   -2.8485   21.1473 C.ar    1  UNL1        0.0035
     25 C           5.8824   -2.2152   19.7876 C.ar    1  UNL1        0.0345
     26 C           3.9373   -0.9157   17.0865 C.3     1  UNL1        0.2525
     27 O           4.8921   -2.0313   17.3927 O.3     1  UNL1       -0.4714
     28 C           6.5156   -2.9289   32.4582 C.3     1  UNL1        0.0795
     29 C           7.7676   -2.1891   32.8260 C.3     1  UNL1        0.0264
     30 C           7.6823   -0.9160   33.6147 C.3     1  UNL1        0.0729
     31 N           6.3449   -0.3827   34.0356 N.3     1  UNL1       -0.2689
     32 C           5.0929   -1.1224   33.6678 C.3     1  UNL1        0.0729
     33 C           5.1783   -2.3955   32.8792 C.3     1  UNL1        0.0264
     34 C           6.2597    0.8904   34.8243 C.3     1  UNL1        0.0992
     35 C           5.0124    1.2153   35.5914 C.ar    1  UNL1       -0.0031
     36 C           3.9901    2.1421   35.0032 C.ar    1  UNL1        0.0178
     37 C           2.7428    2.4671   35.7703 C.ar    1  UNL1        0.0986
     38 N           2.5177    1.8653   37.1257 N.ar    1  UNL1       -0.2423
     39 C           3.5400    0.9385   37.7140 C.ar    1  UNL1        0.0986
     40 C           4.7873    0.6135   36.9468 C.ar    1  UNL1        0.0178
@<TRIPOS>BOND
     1    26    27    1
     2    27    20    1
     3    20    21   ar
     4    21    22   ar
     5    22    23   ar
     6    23    24   ar
     7    24    19    1
     8    19     9    1
     9     9    10   ar
    10    10    11    2
    11    10    12   ar
    12    12     1    1
    13     1     2    1
    14     2     3    1
    15     3     4    1
    16     4     5   am
    17     5     6    2
    18     5    28    1
    19    28    29    1
    20    29    30    1
    21    30    31    1
    22    31    34    1
    23    34    35    1
    24    35    36   ar
    25    36    37   ar
    26    37    38   ar
    27    38    39   ar
    28    39    40   ar
    29    31    32    1
    30    32    33    1
    31     4     7    1
    32     7     8    1
    33    12    13   ar
    34    13    14   ar
    35    14    15   ar
    36    15    16   ar
    37    16    17   ar
    38    17    18   ar
    39    24    25   ar
    40    25    20   ar
    41    18     9   ar
    42     8     1    1
    43    18    13   ar
    44    33    28    1
    45    40    35   ar
@<TRIPOS>MOLECULE
*****
 40 45 0 0 0
SMALL
GASTEIGER

@<TRIPOS>ATOM
      1 C           6.0677   -2.7926   27.2086 C.3     1  UNL1        0.0933
      2 C           5.9694   -1.6675   28.1959 C.3     1  UNL1        0.0442
      3 C           6.1602   -1.9353   29.6595 C.3     1  UNL1        0.0953
      4 N           6.4491   -3.3280   30.1357 N.am    1  UNL1       -0.2794
      5 C           6.6399   -3.5958   31.5992 C.2     1  UNL1        0.2252
      6 O           6.9288   -4.9885   32.0755 O.2     1  UNL1       -0.2749
      7 C           6.5473   -4.4530   29.1484 C.3     1  UNL1        0.0953
      8 C           6.3566   -4.1852   27.6849 C.3     1  UNL1        0.0442
      9 N           6.1834   -2.5349   23.3375 N.ar    1  UNL1       -0.2758
     10 C           6.7357   -3.0506   24.6333 C.ar    1  UNL1        0.3317
     11 O           7.9361   -3.9364   24.7898 O.2     1  UNL1       -0.2463
     12 N           5.8769   -2.5248   25.7450 N.ar    1  UNL1       -0.2817
     13 C           4.7939   -1.6843   25.1364 C.ar    1  UNL1        0.0796
     14 C           3.6597   -0.9140   25.7448 C.ar    1  UNL1        0.0188
     15 C           2.7149   -0.1500   24.8652 C.ar    1  UNL1        0.0016
     16 C           2.9044   -0.1562   23.3773 C.ar    1  UNL1        0.0016
     17 C           4.0386   -0.9265   22.7688 C.ar    1  UNL1        0.0188
     18 C           4.9833   -1.6905   23.6484 C.ar    1  UNL1        0.0800
     19 C           6.7345   -2.8146   21.9707 C.3     1  UNL1        0.1374
     20 C           4.9352   -2.5218   18.4456 C.ar    1  UNL1        0.1385
     21 C           3.9384   -3.6385   18.5425 C.ar    1  UNL1        0.0369
     22 C           3.8736   -4.4806   19.7821 C.ar    1  UNL1        0.0029
     23 C           4.8056   -4.2059   20.9249 C.ar    1  UNL1       -0.0022
     24 C           5.8025   -3.0892   20.8280 C.ar    1  UNL1        0.0035
     25 C           5.8673   -2.2472   19.5883 C.ar    1  UNL1        0.0345
     26 C           3.8180   -0.8502   16.8002 C.3     1  UNL1        0.2525
     27 O           4.9999   -1.6798   17.2059 O.3     1  UNL1       -0.4714
     28 C           6.5416   -2.4708   32.5865 C.3     1  UNL1        0.0795
     29 C           7.7624   -1.6739   32.9394 C.3     1  UNL1        0.0264
     30 C           7.6641   -0.5488   33.9267 C.3     1  UNL1        0.0729
     31 N           6.3450   -0.2207   34.5610 N.3     1  UNL1       -0.2689
     32 C           5.1242   -1.0176   34.2081 C.3     1  UNL1        0.0729
     33 C           5.2225   -2.1426   33.2208 C.3     1  UNL1        0.0264
     34 C           6.2468    0.9043   35.5482 C.3     1  UNL1        0.0992
     35 C           4.9140    1.2843   36.1222 C.ar    1  UNL1       -0.0031
     36 C           4.0381    2.2643   35.3994 C.ar    1  UNL1        0.0178
     37 C           2.7054    2.6443   35.9734 C.ar    1  UNL1        0.0986
     38 N           2.2486    2.0444   37.2701 N.ar    1  UNL1       -0.2423
     39 C           3.1246    1.0645   37.9928 C.ar    1  UNL1        0.0986
     40 C           4.4573    0.6844   37.4189 C.ar    1  UNL1        0.0178
@<TRIPOS>BOND
     1    26    27    1
     2    27    20    1
     3    20    21   ar
     4    21    22   ar
     5    22    23   ar
     6    23    24   ar
     7    24    19    1
     8    19     9    1
     9     9    10   ar
    10    10    11    2
    11    10    12   ar
    12    12     1    1
    13     1     2    1
    14     2     3    1
    15     3     4    1
    16     4     5   am
    17     5     6    2
    18     5    28    1
    19    28    29    1
    20    29    30    1
    21    30    31    1
    22    31    34    1
    23    34    35    1
    24    35    36   ar
    25    36    37   ar
    26    37    38   ar
    27    38    39   ar
    28    39    40   ar
    29    31    32    1
    30    32    33    1
    31     4     7    1
    32     7     8    1
    33    12    13   ar
    34    13    14   ar
    35    14    15   ar
    36    15    16   ar
    37    16    17   ar
    38    17    18   ar
    39    24    25   ar
    40    25    20   ar
    41    18     9   ar
    42     8     1    1
    43    18    13   ar
    44    33    28    1
    45    40    35   ar
@<TRIPOS>MOLECULE
*****
 40 45 0 0 0
SMALL
GASTEIGER

@<TRIPOS>ATOM
      1 C           7.0957   -4.1301   23.4860 C.3     1  UNL1        0.0933
      2 C           6.7955   -3.3705   24.7442 C.3     1  UNL1        0.0442
      3 C           7.2479   -3.9066   26.0701 C.3     1  UNL1        0.0953
      4 N           8.0006   -5.2024   26.1378 N.am    1  UNL1       -0.2794
      5 C           8.4530   -5.7385   27.4636 C.2     1  UNL1        0.2252
      6 O           9.2057   -7.0343   27.5313 O.2     1  UNL1       -0.2749
      7 C           8.3007   -5.9619   24.8796 C.3     1  UNL1        0.0953
      8 C           7.8483   -5.4258   23.5538 C.3     1  UNL1        0.0442
      9 N           5.2687   -3.0694   20.2300 N.ar    1  UNL1       -0.2758
     10 C           5.2797   -3.7650   21.5588 C.ar    1  UNL1        0.3317
     11 O           4.1293   -4.5023   22.1777 O.2     1  UNL1       -0.2463
     12 N           6.6432   -3.5939   22.1602 N.ar    1  UNL1       -0.2817
     13 C           7.4748   -2.7926   21.2030 C.ar    1  UNL1        0.0796
     14 C           8.8958   -2.3162   21.2636 C.ar    1  UNL1        0.0188
     15 C           9.4674   -1.5156   20.1312 C.ar    1  UNL1        0.0016
     16 C           8.6178   -1.1914   18.9382 C.ar    1  UNL1        0.0016
     17 C           7.1968   -1.6678   18.8776 C.ar    1  UNL1        0.0188
     18 C           6.6253   -2.4684   20.0100 C.ar    1  UNL1        0.0800
     19 C           4.1053   -2.9888   19.2866 C.3     1  UNL1        0.1374
     20 C           1.4250   -0.1361   19.9405 C.ar    1  UNL1        0.1385
     21 C           1.8007    0.8547   18.8788 C.ar    1  UNL1        0.0369
     22 C           2.9447    0.5643   17.9530 C.ar    1  UNL1        0.0029
     23 C           3.7128   -0.7169   18.0890 C.ar    1  UNL1       -0.0022
     24 C           3.3371   -1.7077   19.1507 C.ar    1  UNL1        0.0035
     25 C           2.1931   -1.4173   20.0764 C.ar    1  UNL1        0.0345
     26 C           0.2122    1.4699   21.5837 C.3     1  UNL1        0.2525
     27 O           0.2810    0.1544   20.8662 O.3     1  UNL1       -0.4714
     28 C           8.1528   -4.9789   28.7217 C.3     1  UNL1        0.0795
     29 C           7.1361   -5.5050   29.6910 C.3     1  UNL1        0.0264
     30 C           6.8359   -4.7452   30.9491 C.3     1  UNL1        0.0729
     31 N           7.5525   -3.4595   31.2379 N.3     1  UNL1       -0.2689
     32 C           8.5692   -2.9334   30.2686 C.3     1  UNL1        0.0729
     33 C           8.8693   -3.6931   29.0105 C.3     1  UNL1        0.0264
     34 C           7.2522   -2.6998   32.4959 C.3     1  UNL1        0.0992
     35 C           5.9762   -1.9204   32.6151 C.ar    1  UNL1       -0.0031
     36 C           5.5643   -1.3541   33.9416 C.ar    1  UNL1        0.0178
     37 C           4.2883   -0.5747   34.0608 C.ar    1  UNL1        0.0986
     38 N           3.4241   -0.3616   32.8534 N.ar    1  UNL1       -0.2423
     39 C           3.8360   -0.9279   31.5269 C.ar    1  UNL1        0.0986
     40 C           5.1120   -1.7073   31.4077 C.ar    1  UNL1        0.0178
@<TRIPOS>BOND
     1    26    27    1
     2    27    20    1
     3    20    21   ar
     4    21    22   ar
     5    22    23   ar
     6    23    24   ar
     7    24    19    1
     8    19     9    1
     9     9    10   ar
    10    10    11    2
    11    10    12   ar
    12    12     1    1
    13     1     2    1
    14     2     3    1
    15     3     4    1
    16     4     5   am
    17     5     6    2
    18     5    28    1
    19    28    29    1
    20    29    30    1
    21    30    31    1
    22    31    34    1
    23    34    35    1
    24    35    36   ar
    25    36    37   ar
    26    37    38   ar
    27    38    39   ar
    28    39    40   ar
    29    31    32    1
    30    32    33    1
    31     4     7    1
    32     7     8    1
    33    12    13   ar
    34    13    14   ar
    35    14    15   ar
    36    15    16   ar
    37    16    17   ar
    38    17    18   ar
    39    24    25   ar
    40    25    20   ar
    41    18     9   ar
    42     8     1    1
    43    18    13   ar
    44    33    28    1
    45    40    35   ar
@<TRIPOS>MOLECULE
*****
 40 45 0 0 0
SMALL
GASTEIGER

@<TRIPOS>ATOM
      1 C           3.6744   -0.9503   23.2600 C.3     1  UNL1        0.0933
      2 C           3.6117   -0.8212   24.7532 C.3     1  UNL1        0.0442
      3 C           2.6153    0.1052   25.3847 C.3     1  UNL1        0.0953
      4 N           1.6815    0.9025   24.5231 N.am    1  UNL1       -0.2794
      5 C           0.6850    1.8289   25.1546 C.2     1  UNL1        0.2252
      6 O          -0.2488    2.6262   24.2930 O.2     1  UNL1       -0.2749
      7 C           1.7442    0.7734   23.0300 C.3     1  UNL1        0.0953
      8 C           2.7406   -0.1531   22.3985 C.3     1  UNL1        0.0442
      9 N           6.6711   -3.1934   22.2335 N.ar    1  UNL1       -0.2758
     10 C           6.0119   -2.2450   23.1906 C.ar    1  UNL1        0.3317
     11 O           6.5919   -1.7516   24.4830 O.2     1  UNL1       -0.2463
     12 N           4.6709   -1.8768   22.6285 N.ar    1  UNL1       -0.2817
     13 C           4.5013   -2.5975   21.3240 C.ar    1  UNL1        0.0796
     14 C           3.3809   -2.6179   20.3269 C.ar    1  UNL1        0.0188
     15 C           3.4967   -3.4521   19.0857 C.ar    1  UNL1        0.0016
     16 C           4.7329   -4.2659   18.8415 C.ar    1  UNL1        0.0016
     17 C           5.8533   -4.2454   19.8386 C.ar    1  UNL1        0.0188
     18 C           5.7375   -3.4112   21.0799 C.ar    1  UNL1        0.0800
     19 C           8.0260   -3.8149   22.4007 C.3     1  UNL1        0.1374
     20 C           7.6309   -6.5381   25.2604 C.ar    1  UNL1        0.1385
     21 C           8.4728   -7.6510   24.7104 C.ar    1  UNL1        0.0369
     22 C           9.1658   -7.4852   23.3904 C.ar    1  UNL1        0.0029
     23 C           9.0169   -6.2065   22.6205 C.ar    1  UNL1       -0.0022
     24 C           8.1749   -5.0935   23.1705 C.ar    1  UNL1        0.0035
     25 C           7.4819   -5.2593   24.4905 C.ar    1  UNL1        0.0345
     26 C           6.5660   -5.4966   27.3891 C.3     1  UNL1        0.2525
     27 O           6.9379   -6.7039   26.5803 O.3     1  UNL1       -0.4714
     28 C           0.6224    1.9579   26.6477 C.3     1  UNL1        0.0795
     29 C          -0.2567    1.0395   27.4438 C.3     1  UNL1        0.0264
     30 C          -0.3193    1.1686   28.9370 C.3     1  UNL1        0.0729
     31 N           0.4972    2.2162   29.6340 N.3     1  UNL1       -0.2689
     32 C           1.3763    3.1347   28.8380 C.3     1  UNL1        0.0729
     33 C           1.4388    3.0055   27.3449 C.3     1  UNL1        0.0264
     34 C           0.4346    2.3453   31.1271 C.3     1  UNL1        0.0992
     35 C           1.5484    1.8047   31.9741 C.ar    1  UNL1       -0.0031
     36 C           1.7771    2.3529   33.3515 C.ar    1  UNL1        0.0178
     37 C           2.8908    1.8123   34.1984 C.ar    1  UNL1        0.0986
     38 N           3.7759    0.7236   33.6680 N.ar    1  UNL1       -0.2423
     39 C           3.5472    0.1755   32.2906 C.ar    1  UNL1        0.0986
     40 C           2.4334    0.7160   31.4436 C.ar    1  UNL1        0.0178
@<TRIPOS>BOND
     1    26    27    1
     2    27    20    1
     3    20    21   ar
     4    21    22   ar
     5    22    23   ar
     6    23    24   ar
     7    24    19    1
     8    19     9    1
     9     9    10   ar
    10    10    11    2
    11    10    12   ar
    12    12     1    1
    13     1     2    1
    14     2     3    1
    15     3     4    1
    16     4     5   am
    17     5     6    2
    18     5    28    1
    19    28    29    1
    20    29    30    1
    21    30    31    1
    22    31    34    1
    23    34    35    1
    24    35    36   ar
    25    36    37   ar
    26    37    38   ar
    27    38    39   ar
    28    39    40   ar
    29    31    32    1
    30    32    33    1
    31     4     7    1
    32     7     8    1
    33    12    13   ar
    34    13    14   ar
    35    14    15   ar
    36    15    16   ar
    37    16    17   ar
    38    17    18   ar
    39    24    25   ar
    40    25    20   ar
    41    18     9   ar
    42     8     1    1
    43    18    13   ar
    44    33    28    1
    45    40    35   ar
@<TRIPOS>MOLECULE
*****
 40 45 0 0 0
SMALL
GASTEIGER

@<TRIPOS>ATOM
      1 C           6.8074   -2.9640   26.6317 C.3     1  UNL1        0.0933
      2 C           5.9322   -2.2270   25.6616 C.3     1  UNL1        0.0442
      3 C           5.9706   -2.5750   24.2030 C.3     1  UNL1        0.0953
      4 N           6.8840   -3.6600   23.7145 N.am    1  UNL1       -0.2794
      5 C           6.9223   -4.0080   22.2560 C.2     1  UNL1        0.2252
      6 O           7.8358   -5.0929   21.7675 O.2     1  UNL1       -0.2749
      7 C           7.7591   -4.3969   24.6847 C.3     1  UNL1        0.0953
      8 C           7.7207   -4.0489   26.1433 C.3     1  UNL1        0.0442
      9 N           6.6663   -1.3526   30.1600 N.ar    1  UNL1       -0.2758
     10 C           6.6757   -1.2335   28.6647 C.ar    1  UNL1        0.3317
     11 O           6.6043    0.0437   27.8815 O.2     1  UNL1       -0.2463
     12 N           6.7690   -2.6160   28.0903 N.ar    1  UNL1       -0.2817
     13 C           6.8173   -3.5895   29.2305 C.ar    1  UNL1        0.0796
     14 C           6.9108   -5.0860   29.2693 C.ar    1  UNL1        0.0188
     15 C           6.9409   -5.8017   30.5872 C.ar    1  UNL1        0.0016
     16 C           6.8773   -5.0208   31.8663 C.ar    1  UNL1        0.0016
     17 C           6.7838   -3.5243   31.8276 C.ar    1  UNL1        0.0188
     18 C           6.7538   -2.8086   30.5097 C.ar    1  UNL1        0.0800
     19 C           6.5838   -0.2152   31.1345 C.3     1  UNL1        0.1374
     20 C           2.6707    0.4274   31.2903 C.ar    1  UNL1        0.1385
     21 C           2.5703    1.2661   32.5298 C.ar    1  UNL1        0.0369
     22 C           3.8077    1.6111   33.3043 C.ar    1  UNL1        0.0029
     23 C           5.1456    1.1173   32.8391 C.ar    1  UNL1       -0.0022
     24 C           5.2460    0.2785   31.5995 C.ar    1  UNL1        0.0035
     25 C           4.0085   -0.0664   30.8252 C.ar    1  UNL1        0.0345
     26 C           1.5396   -0.3355   29.0793 C.3     1  UNL1        0.2525
     27 O           1.4332    0.0824   30.5159 O.3     1  UNL1       -0.4714
     28 C           6.0472   -3.2710   21.2859 C.3     1  UNL1        0.0795
     29 C           4.6877   -3.8060   20.9461 C.3     1  UNL1        0.0264
     30 C           3.8126   -3.0689   19.9760 C.3     1  UNL1        0.0729
     31 N           4.2971   -1.7969   19.3457 N.3     1  UNL1       -0.2689
     32 C           5.6566   -1.2619   19.6855 C.3     1  UNL1        0.0729
     33 C           6.5317   -1.9989   20.6556 C.3     1  UNL1        0.0264
     34 C           3.4220   -1.0599   18.3757 C.3     1  UNL1        0.0992
     35 C           2.4162   -0.0668   18.8777 C.ar    1  UNL1       -0.0031
     36 C           1.3329   -0.5062   19.8175 C.ar    1  UNL1        0.0178
     37 C           0.3271    0.4870   20.3195 C.ar    1  UNL1        0.0986
     38 N           0.4047    1.9195   19.8818 N.ar    1  UNL1       -0.2423
     39 C           1.4881    2.3590   18.9420 C.ar    1  UNL1        0.0986
     40 C           2.4938    1.3658   18.4400 C.ar    1  UNL1        0.0178
@<TRIPOS>BOND
     1    26    27    1
     2    27    20    1
     3    20    21   ar
     4    21    22   ar
     5    22    23   ar
     6    23    24   ar
     7    24    19    1
     8    19     9    1
     9     9    10   ar
    10    10    11    2
    11    10    12   ar
    12    12     1    1
    13     1     2    1
    14     2     3    1
    15     3     4    1
    16     4     5   am
    17     5     6    2
    18     5    28    1
    19    28    29    1
    20    29    30    1
    21    30    31    1
    22    31    34    1
    23    34    35    1
    24    35    36   ar
    25    36    37   ar
    26    37    38   ar
    27    38    39   ar
    28    39    40   ar
    29    31    32    1
    30    32    33    1
    31     4     7    1
    32     7     8    1
    33    12    13   ar
    34    13    14   ar
    35    14    15   ar
    36    15    16   ar
    37    16    17   ar
    38    17    18   ar
    39    24    25   ar
    40    25    20   ar
    41    18     9   ar
    42     8     1    1
    43    18    13   ar
    44    33    28    1
    45    40    35   ar
@<TRIPOS>MOLECULE
*****
 40 45 0 0 0
SMALL
GASTEIGER

@<TRIPOS>ATOM
      1 C           0.5366    2.1985   19.1432 C.3     1  UNL1        0.0933
      2 C          -0.4088    2.2779   20.3052 C.3     1  UNL1        0.0442
      3 C          -1.6012    3.1857   20.2413 C.3     1  UNL1        0.0953
      4 N          -1.8483    4.0141   19.0155 N.am    1  UNL1       -0.2794
      5 C          -3.0407    4.9219   18.9516 C.2     1  UNL1        0.2252
      6 O          -3.2878    5.7503   17.7257 O.2     1  UNL1       -0.2749
      7 C          -0.9030    3.9347   17.8536 C.3     1  UNL1        0.0953
      8 C           0.2894    3.0269   17.9175 C.3     1  UNL1        0.0442
      9 N           3.1297   -0.6580   19.5690 N.ar    1  UNL1       -0.2758
     10 C           1.7273   -0.1357   19.6712 C.ar    1  UNL1        0.3317
     11 O           0.5329   -0.9048   20.1528 O.2     1  UNL1       -0.2463
     12 N           1.7290    1.2907   19.2071 N.ar    1  UNL1       -0.2817
     13 C           3.1324    1.6500   18.8182 C.ar    1  UNL1        0.0796
     14 C           3.7339    2.9182   18.2893 C.ar    1  UNL1        0.0188
     15 C           5.2011    2.9821   17.9840 C.ar    1  UNL1        0.0016
     16 C           6.0668    1.7777   18.2077 C.ar    1  UNL1        0.0016
     17 C           5.4653    0.5095   18.7366 C.ar    1  UNL1        0.0188
     18 C           3.9981    0.4456   19.0419 C.ar    1  UNL1        0.0800
     19 C           3.5840   -2.0410   19.9306 C.3     1  UNL1        0.1374
     20 C           5.6918   -3.6674   22.8736 C.ar    1  UNL1        0.1385
     21 C           5.1978   -2.8751   24.0476 C.ar    1  UNL1        0.0369
     22 C           4.1658   -1.8048   23.8492 C.ar    1  UNL1        0.0029
     23 C           3.6279   -1.5268   22.4769 C.ar    1  UNL1       -0.0022
     24 C           4.1219   -2.3191   21.3028 C.ar    1  UNL1        0.0035
     25 C           5.1539   -3.3894   21.5013 C.ar    1  UNL1        0.0345
     26 C           8.0423   -4.6492   22.3623 C.3     1  UNL1        0.2525
     27 O           6.7238   -4.7378   23.0721 O.3     1  UNL1       -0.4714
     28 C          -3.9859    5.0012   20.1135 C.3     1  UNL1        0.0795
     29 C          -5.0812    3.9869   20.2601 C.3     1  UNL1        0.0264
     30 C          -6.0265    4.0663   21.4222 C.3     1  UNL1        0.0729
     31 N          -5.8764    5.1601   22.4376 N.3     1  UNL1       -0.2689
     32 C          -4.7811    6.1744   22.2911 C.3     1  UNL1        0.0729
     33 C          -3.8359    6.0950   21.1291 C.3     1  UNL1        0.0264
     34 C          -6.8216    5.2394   23.5996 C.3     1  UNL1        0.0992
     35 C          -6.2859    5.3071   24.9990 C.ar    1  UNL1       -0.0031
     36 C          -5.1871    4.3801   25.4272 C.ar    1  UNL1        0.0178
     37 C          -4.6514    4.4479   26.8266 C.ar    1  UNL1        0.0986
     38 N          -5.2145    5.4426   27.7978 N.ar    1  UNL1       -0.2423
     39 C          -6.3132    6.3697   27.3697 C.ar    1  UNL1        0.0986
     40 C          -6.8490    6.3019   25.9703 C.ar    1  UNL1        0.0178
@<TRIPOS>BOND
     1    26    27    1
     2    27    20    1
     3    20    21   ar
     4    21    22   ar
     5    22    23   ar
     6    23    24   ar
     7    24    19    1
     8    19     9    1
     9     9    10   ar
    10    10    11    2
    11    10    12   ar
    12    12     1    1
    13     1     2    1
    14     2     3    1
    15     3     4    1
    16     4     5   am
    17     5     6    2
    18     5    28    1
    19    28    29    1
    20    29    30    1
    21    30    31    1
    22    31    34    1
    23    34    35    1
    24    35    36   ar
    25    36    37   ar
    26    37    38   ar
    27    38    39   ar
    28    39    40   ar
    29    31    32    1
    30    32    33    1
    31     4     7    1
    32     7     8    1
    33    12    13   ar
    34    13    14   ar
    35    14    15   ar
    36    15    16   ar
    37    16    17   ar
    38    17    18   ar
    39    24    25   ar
    40    25    20   ar
    41    18     9   ar
    42     8     1    1
    43    18    13   ar
    44    33    28    1
    45    40    35   ar
@<TRIPOS>MOLECULE
*****
 40 45 0 0 0
SMALL
GASTEIGER

@<TRIPOS>ATOM
      1 C           0.9064    0.8706   22.0990 C.3     1  UNL1        0.0933
      2 C           2.1243    0.4251   22.8531 C.3     1  UNL1        0.0442
      3 C           3.0380   -0.6062   22.2601 C.3     1  UNL1        0.0953
      4 N           2.7339   -1.1920   20.9132 N.am    1  UNL1       -0.2794
      5 C           3.6477   -2.2233   20.3203 C.2     1  UNL1        0.2252
      6 O           3.3436   -2.8092   18.9734 O.2     1  UNL1       -0.2749
      7 C           1.5161   -0.7466   20.1592 C.3     1  UNL1        0.0953
      8 C           0.6024    0.2847   20.7521 C.3     1  UNL1        0.0442
      9 N          -1.5413    3.7687   22.9203 N.ar    1  UNL1       -0.2758
     10 C          -0.7513    2.9610   21.9337 C.ar    1  UNL1        0.3317
     11 O          -0.7122    3.1747   20.4495 O.2     1  UNL1       -0.2463
     12 N          -0.0073    1.9019   22.6919 N.ar    1  UNL1       -0.2817
     13 C          -0.3375    2.0551   24.1470 C.ar    1  UNL1        0.0796
     14 C           0.1027    1.2930   25.3617 C.ar    1  UNL1        0.0188
     15 C          -0.4052    1.6848   26.7176 C.ar    1  UNL1        0.0016
     16 C          -1.3533    2.8386   26.8588 C.ar    1  UNL1        0.0016
     17 C          -1.7934    3.6006   25.6442 C.ar    1  UNL1        0.0188
     18 C          -1.2855    3.2089   24.2883 C.ar    1  UNL1        0.0800
     19 C          -2.4308    4.9321   22.5960 C.3     1  UNL1        0.1374
     20 C          -6.0940    4.4209   21.1574 C.ar    1  UNL1        0.1385
     21 C          -6.8928    4.3743   22.4261 C.ar    1  UNL1        0.0369
     22 C          -6.2044    4.5136   23.7515 C.ar    1  UNL1        0.0029
     23 C          -4.7170    4.6996   23.8081 C.ar    1  UNL1       -0.0022
     24 C          -3.9181    4.7462   22.5394 C.ar    1  UNL1        0.0035
     25 C          -4.6066    4.6069   21.2140 C.ar    1  UNL1        0.0345
     26 C          -6.3107    3.2544   18.8461 C.3     1  UNL1        0.2525
     27 O          -6.7825    4.2816   19.8321 O.3     1  UNL1       -0.4714
     28 C           4.8654   -2.6687   21.0744 C.3     1  UNL1        0.0795
     29 C           6.2295   -2.2537   20.6086 C.3     1  UNL1        0.0264
     30 C           7.4473   -2.6991   21.3628 C.3     1  UNL1        0.0729
     31 N           7.3009   -3.5595   22.5828 N.3     1  UNL1       -0.2689
     32 C           5.9368   -3.9745   23.0486 C.3     1  UNL1        0.0729
     33 C           4.7191   -3.5291   22.2944 C.3     1  UNL1        0.0264
     34 C           8.5187   -4.0048   23.3368 C.3     1  UNL1        0.0992
     35 C           8.4193   -5.1280   24.3261 C.ar    1  UNL1       -0.0031
     36 C           8.3373   -4.8296   25.7938 C.ar    1  UNL1        0.0178
     37 C           8.2378   -5.9528   26.7830 C.ar    1  UNL1        0.0986
     38 N           8.2204   -7.3743   26.3045 N.ar    1  UNL1       -0.2423
     39 C           8.3024   -7.6726   24.8368 C.ar    1  UNL1        0.0986
     40 C           8.4018   -6.5495   23.8475 C.ar    1  UNL1        0.0178
@<TRIPOS>BOND
     1    26    27    1
     2    27    20    1
     3    20    21   ar
     4    21    22   ar
     5    22    23   ar
     6    23    24   ar
     7    24    19    1
     8    19     9    1
     9     9    10   ar
    10    10    11    2
    11    10    12   ar
    12    12     1    1
    13     1     2    1
    14     2     3    1
    15     3     4    1
    16     4     5   am
    17     5     6    2
    18     5    28    1
    19    28    29    1
    20    29    30    1
    21    30    31    1
    22    31    34    1
    23    34    35    1
    24    35    36   ar
    25    36    37   ar
    26    37    38   ar
    27    38    39   ar
    28    39    40   ar
    29    31    32    1
    30    32    33    1
    31     4     7    1
    32     7     8    1
    33    12    13   ar
    34    13    14   ar
    35    14    15   ar
    36    15    16   ar
    37    16    17   ar
    38    17    18   ar
    39    24    25   ar
    40    25    20   ar
    41    18     9   ar
    42     8     1    1
    43    18    13   ar
    44    33    28    1
    45    40    35   ar
@<TRIPOS>MOLECULE
*****
 40 45 0 0 0
SMALL
GASTEIGER

@<TRIPOS>ATOM
      1 C           4.2695   -0.3475   28.0118 C.3     1  UNL1        0.0933
      2 C           4.0540    0.3195   29.3380 C.3     1  UNL1        0.0442
      3 C           4.6953   -0.2414   30.5726 C.3     1  UNL1        0.0953
      4 N           5.5521   -1.4692   30.4810 N.am    1  UNL1       -0.2794
      5 C           6.1934   -2.0302   31.7155 C.2     1  UNL1        0.2252
      6 O           7.0502   -3.2580   31.6239 O.2     1  UNL1       -0.2749
      7 C           5.7676   -2.1361   29.1548 C.3     1  UNL1        0.0953
      8 C           5.1263   -1.5752   27.9202 C.3     1  UNL1        0.0442
      9 N           3.2875    0.9961   24.5053 N.ar    1  UNL1       -0.2758
     10 C           4.2967    0.4129   25.4493 C.ar    1  UNL1        0.3317
     11 O           5.7239    0.0865   25.1228 O.2     1  UNL1       -0.2463
     12 N           3.6282    0.2135   26.7772 N.ar    1  UNL1       -0.2817
     13 C           2.2058    0.6734   26.6539 C.ar    1  UNL1        0.0796
     14 C           1.0752    0.7142   27.6387 C.ar    1  UNL1        0.0188
     15 C          -0.2661    1.2388   27.2194 C.ar    1  UNL1        0.0016
     16 C          -0.4767    1.7225   25.8152 C.ar    1  UNL1        0.0016
     17 C           0.6540    1.6817   24.8304 C.ar    1  UNL1        0.0188
     18 C           1.9952    1.1571   25.2497 C.ar    1  UNL1        0.0800
     19 C           3.5282    1.3553   23.0690 C.3     1  UNL1        0.1374
     20 C           4.1588   -1.4890   20.3742 C.ar    1  UNL1        0.1385
     21 C           2.7727   -1.6796   19.8335 C.ar    1  UNL1        0.0369
     22 C           1.6384   -0.8585   20.3712 C.ar    1  UNL1        0.0029
     23 C           1.8902    0.1531   21.4497 C.ar    1  UNL1       -0.0022
     24 C           3.2764    0.3437   21.9905 C.ar    1  UNL1        0.0035
     25 C           4.4106   -0.4774   21.4527 C.ar    1  UNL1        0.0345
     26 C           5.2640   -2.7897   18.4154 C.3     1  UNL1        0.2525
     27 O           5.2931   -2.3102   19.8364 O.3     1  UNL1       -0.4714
     28 C           5.9779   -1.3632   33.0416 C.3     1  UNL1        0.0795
     29 C           6.9862   -0.3811   33.5600 C.3     1  UNL1        0.0264
     30 C           6.7706    0.2859   34.8862 C.3     1  UNL1        0.0729
     31 N           5.5466   -0.0294   35.6941 N.3     1  UNL1       -0.2689
     32 C           4.5383   -1.0115   35.1757 C.3     1  UNL1        0.0729
     33 C           4.7539   -1.6784   33.8496 C.3     1  UNL1        0.0264
     34 C           5.3311    0.6376   37.0202 C.3     1  UNL1        0.0992
     35 C           4.0643    1.3976   37.2805 C.ar    1  UNL1       -0.0031
     36 C           3.6381    2.4884   36.3433 C.ar    1  UNL1        0.0178
     37 C           2.3714    3.2484   36.6035 C.ar    1  UNL1        0.0986
     38 N           1.5308    2.9175   37.8010 N.ar    1  UNL1       -0.2423
     39 C           1.9571    1.8267   38.7383 C.ar    1  UNL1        0.0986
     40 C           3.2238    1.0667   38.4780 C.ar    1  UNL1        0.0178
@<TRIPOS>BOND
     1    26    27    1
     2    27    20    1
     3    20    21   ar
     4    21    22   ar
     5    22    23   ar
     6    23    24   ar
     7    24    19    1
     8    19     9    1
     9     9    10   ar
    10    10    11    2
    11    10    12   ar
    12    12     1    1
    13     1     2    1
    14     2     3    1
    15     3     4    1
    16     4     5   am
    17     5     6    2
    18     5    28    1
    19    28    29    1
    20    29    30    1
    21    30    31    1
    22    31    34    1
    23    34    35    1
    24    35    36   ar
    25    36    37   ar
    26    37    38   ar
    27    38    39   ar
    28    39    40   ar
    29    31    32    1
    30    32    33    1
    31     4     7    1
    32     7     8    1
    33    12    13   ar
    34    13    14   ar
    35    14    15   ar
    36    15    16   ar
    37    16    17   ar
    38    17    18   ar
    39    24    25   ar
    40    25    20   ar
    41    18     9   ar
    42     8     1    1
    43    18    13   ar
    44    33    28    1
    45    40    35   ar
