@<TRIPOS>MOLECULE
*****
 43 48 0 0 0
SMALL
GASTEIGER

@<TRIPOS>ATOM
      1 C           6.0291   -1.9298   18.9277 C.2     1  UNL1        0.2252
      2 O           6.4418   -2.3997   17.5643 O.2     1  UNL1       -0.2749
      3 N           4.9088   -0.9430   19.0735 N.am    1  UNL1       -0.2794
      4 C           4.2013   -0.4262   17.8560 C.3     1  UNL1        0.0953
      5 C           3.0810    0.5605   18.0018 C.3     1  UNL1        0.0442
      6 C           2.6682    1.0305   19.3653 C.3     1  UNL1        0.0933
      7 C           3.3757    0.5137   20.5827 C.3     1  UNL1        0.0442
      8 C           4.4960   -0.4730   20.4369 C.3     1  UNL1        0.0953
      9 N           1.5479    2.0173   19.5111 N.ar    1  UNL1       -0.2814
     10 C           0.2614    1.7881   20.2476 C.ar    1  UNL1        0.3354
     11 O          -0.1307    0.5320   20.9675 O.2     1  UNL1       -0.2459
     12 N          -0.5642    3.0357   20.1376 N.ar    1  UNL1       -0.2588
     13 C           0.2121    4.0358   19.3332 C.ar    1  UNL1        0.0863
     14 C          -0.1010    5.4384   18.9033 C.ar    1  UNL1        0.0487
     15 C           0.8912    6.2115   18.0862 C.ar    1  UNL1        0.1417
     16 F           0.5781    7.6141   17.6563 F       1  UNL1       -0.2041
     17 C           2.1965    5.5821   17.6990 C.ar    1  UNL1        0.0312
     18 C           2.5096    4.1795   18.1289 C.ar    1  UNL1        0.0211
     19 C           1.5174    3.4064   18.9460 C.ar    1  UNL1        0.0801
     20 C          -1.9268    3.2461   20.7284 C.ar    1  UNL1        0.0706
     21 C          -2.0774    3.4779   22.2028 C.ar    1  UNL1        0.0201
     22 C          -3.4400    3.6884   22.7936 C.ar    1  UNL1        0.0335
     23 C          -4.6520    3.6670   21.9100 C.ar    1  UNL1        0.1675
     24 F          -6.0146    3.8775   22.5008 F       1  UNL1       -0.2018
     25 C          -4.5014    3.4353   20.4358 C.ar    1  UNL1        0.1688
     26 F          -5.7133    3.4139   19.5522 F       1  UNL1       -0.2017
     27 C          -3.1388    3.2248   19.8450 C.ar    1  UNL1        0.0496
     28 N           8.1516   -3.4800   22.5802 N.3     1  UNL1       -0.2689
     29 C           8.7170   -2.3159   21.8217 C.3     1  UNL1        0.0729
     30 C           8.0095   -1.7991   20.6042 C.3     1  UNL1        0.0264
     31 C           6.7366   -2.4465   20.1452 C.3     1  UNL1        0.0795
     32 C           6.1712   -3.6106   20.9037 C.3     1  UNL1        0.0264
     33 C           6.8787   -4.1274   22.1212 C.3     1  UNL1        0.0729
     34 C           8.8592   -3.9968   23.7978 C.3     1  UNL1        0.0993
     35 N           5.8238   -5.7199   27.6471 N.pl3   1  UNL1       -0.3426
     36 C           6.7552   -5.9963   26.5042 C.ar    1  UNL1        0.1251
     37 C           7.3415   -4.8583   25.7224 C.ar    1  UNL1        0.0310
     38 C           8.2729   -5.1348   24.5795 C.ar    1  UNL1       -0.0018
     39 C           8.6179   -6.5492   24.2184 C.ar    1  UNL1        0.0179
     40 C           8.0316   -7.6872   25.0003 C.ar    1  UNL1        0.1000
     41 N           7.1002   -7.4107   26.1431 N.ar    1  UNL1       -0.2296
     42 H           5.5973   -4.7916   27.8841 H       1  UNL1        0.1437
     43 H           5.4390   -6.4668   28.1602 H       1  UNL1        0.1437
@<TRIPOS>BOND
     1    35    36    1
     2    36    37   ar
     3    37    38   ar
     4    38    34    1
     5    34    28    1
     6    28    29    1
     7    29    30    1
     8    30    31    1
     9    31     1    1
    10     1     2    2
    11     1     3   am
    12     3     4    1
    13     4     5    1
    14     5     6    1
    15     6     9    1
    16     9    10   ar
    17    10    11    2
    18    10    12   ar
    19    12    20    1
    20    20    21   ar
    21    21    22   ar
    22    22    23   ar
    23    23    24    1
    24    23    25   ar
    25    25    26    1
    26    25    27   ar
    27    12    13   ar
    28    13    14   ar
    29    14    15   ar
    30    15    16    1
    31    15    17   ar
    32    17    18   ar
    33    18    19   ar
    34     6     7    1
    35     7     8    1
    36    31    32    1
    37    32    33    1
    38    38    39   ar
    39    39    40   ar
    40    40    41   ar
    41    41    36   ar
    42    33    28    1
    43     8     3    1
    44    19     9   ar
    45    27    20   ar
    46    19    13   ar
    47    35    42    1
    48    35    43    1
@<TRIPOS>MOLECULE
*****
 43 48 0 0 0
SMALL
GASTEIGER

@<TRIPOS>ATOM
      1 C           6.8853   -4.5643   30.8114 C.2     1  UNL1        0.2252
      2 O           6.9340   -5.9637   31.3492 O.2     1  UNL1       -0.2749
      3 N           6.7742   -4.3323   29.3337 N.am    1  UNL1       -0.2794
      4 C           6.7119   -5.4997   28.3938 C.3     1  UNL1        0.0953
      5 C           6.6008   -5.2676   26.9160 C.3     1  UNL1        0.0442
      6 C           6.5520   -3.8682   26.3781 C.3     1  UNL1        0.0933
      7 C           6.6143   -2.7009   27.3180 C.3     1  UNL1        0.0442
      8 C           6.7254   -2.9329   28.7958 C.3     1  UNL1        0.0953
      9 N           6.4409   -3.6362   24.9003 N.ar    1  UNL1       -0.2814
     10 C           5.3971   -2.8056   24.2142 C.ar    1  UNL1        0.3354
     11 O           4.2812   -2.0612   24.8855 O.2     1  UNL1       -0.2459
     12 N           5.6652   -2.8501   22.7391 N.ar    1  UNL1       -0.2588
     13 C           6.8747   -3.7082   22.5134 C.ar    1  UNL1        0.0863
     14 C           7.6014   -4.1099   21.2643 C.ar    1  UNL1        0.0487
     15 C           8.8075   -4.9975   21.3508 C.ar    1  UNL1        0.1417
     16 F           9.5343   -5.3993   20.1016 F       1  UNL1       -0.2041
     17 C           9.2869   -5.4833   22.6866 C.ar    1  UNL1        0.0312
     18 C           8.5602   -5.0816   23.9357 C.ar    1  UNL1        0.0211
     19 C           7.3541   -4.1940   23.8492 C.ar    1  UNL1        0.0801
     20 C           4.8645   -2.1581   21.6761 C.ar    1  UNL1        0.0706
     21 C           4.1379   -2.9640   20.6403 C.ar    1  UNL1        0.0201
     22 C           3.3372   -2.2719   19.5774 C.ar    1  UNL1        0.0335
     23 C           3.2629   -0.7740   19.5501 C.ar    1  UNL1        0.1675
     24 F           2.4622   -0.0820   18.4872 F       1  UNL1       -0.2018
     25 C           3.9895    0.0318   20.5859 C.ar    1  UNL1        0.1688
     26 F           3.9152    1.5297   20.5587 F       1  UNL1       -0.2017
     27 C           4.7902   -0.6602   21.6488 C.ar    1  UNL1        0.0496
     28 N           7.0721   -1.0623   33.6311 N.3     1  UNL1       -0.2689
     29 C           8.3381   -1.6587   33.0909 C.3     1  UNL1        0.0729
     30 C           8.2758   -2.8260   32.1510 C.3     1  UNL1        0.0264
     31 C           6.9475   -3.3970   31.7513 C.3     1  UNL1        0.0795
     32 C           5.6816   -2.8006   32.2915 C.3     1  UNL1        0.0264
     33 C           5.7439   -1.6333   33.2314 C.3     1  UNL1        0.0729
     34 C           7.1344    0.1051   34.5710 C.3     1  UNL1        0.0993
     35 N           3.4721    0.5073   38.2351 N.pl3   1  UNL1       -0.3426
     36 C           4.0366    0.9287   36.9108 C.ar    1  UNL1        0.1251
     37 C           5.3033    0.3062   36.4030 C.ar    1  UNL1        0.0310
     38 C           5.8677    0.7277   35.0787 C.ar    1  UNL1       -0.0018
     39 C           5.1654    1.7717   34.2622 C.ar    1  UNL1        0.0179
     40 C           3.8987    2.3943   34.7700 C.ar    1  UNL1        0.1000
     41 N           3.3343    1.9728   36.0943 N.ar    1  UNL1       -0.2296
     42 H           3.9330   -0.1780   38.7711 H       1  UNL1        0.1437
     43 H           2.6407    0.9159   38.5683 H       1  UNL1        0.1437
@<TRIPOS>BOND
     1    35    36    1
     2    36    37   ar
     3    37    38   ar
     4    38    34    1
     5    34    28    1
     6    28    29    1
     7    29    30    1
     8    30    31    1
     9    31     1    1
    10     1     2    2
    11     1     3   am
    12     3     4    1
    13     4     5    1
    14     5     6    1
    15     6     9    1
    16     9    10   ar
    17    10    11    2
    18    10    12   ar
    19    12    20    1
    20    20    21   ar
    21    21    22   ar
    22    22    23   ar
    23    23    24    1
    24    23    25   ar
    25    25    26    1
    26    25    27   ar
    27    12    13   ar
    28    13    14   ar
    29    14    15   ar
    30    15    16    1
    31    15    17   ar
    32    17    18   ar
    33    18    19   ar
    34     6     7    1
    35     7     8    1
    36    31    32    1
    37    32    33    1
    38    38    39   ar
    39    39    40   ar
    40    40    41   ar
    41    41    36   ar
    42    33    28    1
    43     8     3    1
    44    19     9   ar
    45    27    20   ar
    46    19    13   ar
    47    35    42    1
    48    35    43    1
@<TRIPOS>MOLECULE
*****
 43 48 0 0 0
SMALL
GASTEIGER

@<TRIPOS>ATOM
      1 C          -3.9704    5.1199   18.5998 C.2     1  UNL1        0.2252
      2 O          -4.5247    5.6795   17.3232 O.2     1  UNL1       -0.2749
      3 N          -2.6412    4.4249   18.5993 N.am    1  UNL1       -0.2794
      4 C          -1.8662    4.2894   17.3221 C.3     1  UNL1        0.0953
      5 C          -0.5369    3.5944   17.3216 C.3     1  UNL1        0.0442
      6 C           0.0174    3.0348   18.5983 C.3     1  UNL1        0.0933
      7 C          -0.7576    3.1704   19.8753 C.3     1  UNL1        0.0442
      8 C          -2.0869    3.8654   19.8758 C.3     1  UNL1        0.0953
      9 N           1.3467    2.3398   18.5977 N.ar    1  UNL1       -0.2814
     10 C           1.5878    0.8979   18.9335 C.ar    1  UNL1        0.3354
     11 O           0.5420   -0.1022   19.3287 O.2     1  UNL1       -0.2459
     12 N           3.0583    0.6317   18.8046 N.ar    1  UNL1       -0.2588
     13 C           3.7260    1.9090   18.3891 C.ar    1  UNL1        0.0863
     14 C           5.1606    2.2473   18.1108 C.ar    1  UNL1        0.0487
     15 C           5.5373    3.6412   17.7045 C.ar    1  UNL1        0.1417
     16 F           6.9720    3.9794   17.4261 F       1  UNL1       -0.2041
     17 C           4.4794    4.6969   17.5767 C.ar    1  UNL1        0.0312
     18 C           3.0448    4.3587   17.8551 C.ar    1  UNL1        0.0211
     19 C           2.6681    2.9648   18.2613 C.ar    1  UNL1        0.0801
     20 C           3.7413   -0.6814   19.0483 C.ar    1  UNL1        0.0706
     21 C           4.5303   -1.3315   17.9505 C.ar    1  UNL1        0.0201
     22 C           5.2133   -2.6446   18.1943 C.ar    1  UNL1        0.0335
     23 C           5.1074   -3.3075   19.5356 C.ar    1  UNL1        0.1675
     24 F           5.7903   -4.6206   19.7794 F       1  UNL1       -0.2018
     25 C           4.3184   -2.6574   20.6333 C.ar    1  UNL1        0.1688
     26 F           4.2125   -3.3203   21.9747 F       1  UNL1       -0.2017
     27 C           3.6354   -1.3443   20.3896 C.ar    1  UNL1        0.0496
     28 N          -6.2954    5.5264   22.4312 N.3     1  UNL1       -0.2689
     29 C          -6.5409    4.3561   21.5253 C.3     1  UNL1        0.0729
     30 C          -5.7660    4.2207   20.2482 C.3     1  UNL1        0.0264
     31 C          -4.7454    5.2554   19.8769 C.3     1  UNL1        0.0795
     32 C          -4.4999    6.4256   20.7827 C.3     1  UNL1        0.0264
     33 C          -5.2748    6.5611   22.0598 C.3     1  UNL1        0.0729
     34 C          -7.0704    5.6619   23.7083 C.3     1  UNL1        0.0993
     35 N          -6.5969    6.7817   28.7602 N.pl3   1  UNL1       -0.3426
     36 C          -6.1495    6.0126   27.5525 C.ar    1  UNL1        0.1251
     37 C          -6.8336    6.2218   26.2342 C.ar    1  UNL1        0.0310
     38 C          -6.3862    5.4526   25.0266 C.ar    1  UNL1       -0.0018
     39 C          -5.2545    4.4743   25.1374 C.ar    1  UNL1        0.0179
     40 C          -4.5704    4.2652   26.4558 C.ar    1  UNL1        0.1000
     41 N          -5.0178    5.0343   27.6634 N.ar    1  UNL1       -0.2296
     42 H          -7.3396    7.4238   28.6875 H       1  UNL1        0.1437
     43 H          -6.1478    6.6444   29.6255 H       1  UNL1        0.1437
@<TRIPOS>BOND
     1    35    36    1
     2    36    37   ar
     3    37    38   ar
     4    38    34    1
     5    34    28    1
     6    28    29    1
     7    29    30    1
     8    30    31    1
     9    31     1    1
    10     1     2    2
    11     1     3   am
    12     3     4    1
    13     4     5    1
    14     5     6    1
    15     6     9    1
    16     9    10   ar
    17    10    11    2
    18    10    12   ar
    19    12    20    1
    20    20    21   ar
    21    21    22   ar
    22    22    23   ar
    23    23    24    1
    24    23    25   ar
    25    25    26    1
    26    25    27   ar
    27    12    13   ar
    28    13    14   ar
    29    14    15   ar
    30    15    16    1
    31    15    17   ar
    32    17    18   ar
    33    18    19   ar
    34     6     7    1
    35     7     8    1
    36    31    32    1
    37    32    33    1
    38    38    39   ar
    39    39    40   ar
    40    40    41   ar
    41    41    36   ar
    42    33    28    1
    43     8     3    1
    44    19     9   ar
    45    27    20   ar
    46    19    13   ar
    47    35    42    1
    48    35    43    1
@<TRIPOS>MOLECULE
*****
 43 48 0 0 0
SMALL
GASTEIGER

@<TRIPOS>ATOM
      1 C           3.1667   -0.0994   30.7823 C.2     1  UNL1        0.2252
      2 O           1.7743    0.4255   30.5936 O.2     1  UNL1       -0.2749
      3 N           3.8737   -0.7757   29.6454 N.am    1  UNL1       -0.2794
      4 C           3.1883   -0.9272   28.3198 C.3     1  UNL1        0.0953
      5 C           3.8953   -1.6036   27.1828 C.3     1  UNL1        0.0442
      6 C           5.2878   -2.1285   27.3714 C.3     1  UNL1        0.0933
      7 C           5.9731   -1.9770   28.6970 C.3     1  UNL1        0.0442
      8 C           5.2661   -1.3006   29.8340 C.3     1  UNL1        0.0953
      9 N           5.9948   -2.8049   26.2345 N.ar    1  UNL1       -0.2814
     10 C           6.2539   -2.2134   24.8806 C.ar    1  UNL1        0.3354
     11 O           5.8516   -0.8418   24.4259 O.2     1  UNL1       -0.2459
     12 N           6.9860   -3.2345   24.0612 N.ar    1  UNL1       -0.2588
     13 C           7.1794   -4.4570   24.9087 C.ar    1  UNL1        0.0863
     14 C           7.8341   -5.7776   24.6308 C.ar    1  UNL1        0.0487
     15 C           7.8762   -6.8326   25.6961 C.ar    1  UNL1        0.1417
     16 F           8.5310   -8.1533   25.4183 F       1  UNL1       -0.2041
     17 C           7.2636   -6.5671   27.0393 C.ar    1  UNL1        0.0312
     18 C           6.6088   -5.2465   27.3172 C.ar    1  UNL1        0.0211
     19 C           6.5667   -4.1914   26.2518 C.ar    1  UNL1        0.0801
     20 C           7.4444   -3.0632   22.6432 C.ar    1  UNL1        0.0706
     21 C           8.8526   -2.6326   22.3570 C.ar    1  UNL1        0.0201
     22 C           9.3109   -2.4613   20.9391 C.ar    1  UNL1        0.0335
     23 C           8.3612   -2.7205   19.8073 C.ar    1  UNL1        0.1675
     24 F           8.8195   -2.5492   18.3894 F       1  UNL1       -0.2018
     25 C           6.9531   -3.1510   20.0936 C.ar    1  UNL1        0.1688
     26 F           6.0034   -3.4103   18.9618 F       1  UNL1       -0.2017
     27 C           6.4948   -3.3224   21.5115 C.ar    1  UNL1        0.0496
     28 N           5.2230    0.3551   34.7591 N.3     1  UNL1       -0.2689
     29 C           5.1027    1.5329   33.8380 C.3     1  UNL1        0.0729
     30 C           4.4172    1.3815   32.5124 C.3     1  UNL1        0.0264
     31 C           3.8522    0.0521   32.1079 C.3     1  UNL1        0.0795
     32 C           3.9725   -1.1257   33.0289 C.3     1  UNL1        0.0264
     33 C           4.6579   -0.9742   34.3545 C.3     1  UNL1        0.0729
     34 C           5.9085    0.5065   36.0847 C.3     1  UNL1        0.0993
     35 N           1.5099    1.3272   38.7265 N.pl3   1  UNL1       -0.3426
     36 C           2.9840    1.5475   38.5572 C.ar    1  UNL1        0.1251
     37 C           3.7092    0.9169   37.4055 C.ar    1  UNL1        0.0310
     38 C           5.1833    1.1372   37.2363 C.ar    1  UNL1       -0.0018
     39 C           5.9321    1.9882   38.2188 C.ar    1  UNL1        0.0179
     40 C           5.2068    2.6188   39.3704 C.ar    1  UNL1        0.1000
     41 N           3.7327    2.3985   39.5396 N.ar    1  UNL1       -0.2296
     42 H           1.0184    0.7687   38.0817 H       1  UNL1        0.1437
     43 H           1.0339    1.7412   39.4823 H       1  UNL1        0.1437
@<TRIPOS>BOND
     1    35    36    1
     2    36    37   ar
     3    37    38   ar
     4    38    34    1
     5    34    28    1
     6    28    29    1
     7    29    30    1
     8    30    31    1
     9    31     1    1
    10     1     2    2
    11     1     3   am
    12     3     4    1
    13     4     5    1
    14     5     6    1
    15     6     9    1
    16     9    10   ar
    17    10    11    2
    18    10    12   ar
    19    12    20    1
    20    20    21   ar
    21    21    22   ar
    22    22    23   ar
    23    23    24    1
    24    23    25   ar
    25    25    26    1
    26    25    27   ar
    27    12    13   ar
    28    13    14   ar
    29    14    15   ar
    30    15    16    1
    31    15    17   ar
    32    17    18   ar
    33    18    19   ar
    34     6     7    1
    35     7     8    1
    36    31    32    1
    37    32    33    1
    38    38    39   ar
    39    39    40   ar
    40    40    41   ar
    41    41    36   ar
    42    33    28    1
    43     8     3    1
    44    19     9   ar
    45    27    20   ar
    46    19    13   ar
    47    35    42    1
    48    35    43    1
@<TRIPOS>MOLECULE
*****
 43 48 0 0 0
SMALL
GASTEIGER

@<TRIPOS>ATOM
      1 C           7.1001   -4.3010   21.6716 C.2     1  UNL1        0.2252
      2 O           8.0009   -5.2933   20.9981 O.2     1  UNL1       -0.2749
      3 N           7.0998   -4.1827   23.1669 N.am    1  UNL1       -0.2794
      4 C           8.0002   -5.0567   23.9886 C.3     1  UNL1        0.0953
      5 C           7.9999   -4.9385   25.4840 C.3     1  UNL1        0.0442
      6 C           7.0990   -3.9461   26.1576 C.3     1  UNL1        0.0933
      7 C           6.1986   -3.0721   25.3359 C.3     1  UNL1        0.0442
      8 C           6.1989   -3.1904   23.8406 C.3     1  UNL1        0.0953
      9 N           7.0987   -3.8278   27.6530 N.ar    1  UNL1       -0.2814
     10 C           6.5288   -2.6901   28.4473 C.ar    1  UNL1        0.3354
     11 O           5.8592   -1.4710   27.8857 O.2     1  UNL1       -0.2459
     12 N           6.7461   -2.9856   29.9017 N.ar    1  UNL1       -0.2588
     13 C           7.4503   -4.3059   30.0063 C.ar    1  UNL1        0.0863
     14 C           7.9212   -5.1015   31.1875 C.ar    1  UNL1        0.0487
     15 C           8.6100   -6.4175   30.9789 C.ar    1  UNL1        0.1417
     16 F           9.0810   -7.2131   32.1602 F       1  UNL1       -0.2041
     17 C           8.8279   -6.9380   29.5891 C.ar    1  UNL1        0.0312
     18 C           8.3570   -6.1424   28.4079 C.ar    1  UNL1        0.0211
     19 C           7.6682   -4.8264   28.6165 C.ar    1  UNL1        0.0801
     20 C           6.3319   -2.1139   31.0500 C.ar    1  UNL1        0.0706
     21 C           6.8779   -0.7219   31.1699 C.ar    1  UNL1        0.0201
     22 C           6.4637    0.1498   32.3182 C.ar    1  UNL1        0.0335
     23 C           5.5036   -0.3704   33.3466 C.ar    1  UNL1        0.1675
     24 F           5.0895    0.5013   34.4949 F       1  UNL1       -0.2018
     25 C           4.9577   -1.7624   33.2267 C.ar    1  UNL1        0.1688
     26 F           3.9976   -2.2826   34.2551 F       1  UNL1       -0.2017
     27 C           5.3719   -2.6341   32.0784 C.ar    1  UNL1        0.0496
     28 N           4.3987   -1.6789   19.2065 N.3     1  UNL1       -0.2689
     29 C           5.6699   -1.1216   19.7753 C.3     1  UNL1        0.0729
     30 C           6.5704   -1.9957   20.5970 C.3     1  UNL1        0.0264
     31 C           6.1996   -3.4270   20.8499 C.3     1  UNL1        0.0795
     32 C           4.9285   -3.9843   20.2811 C.3     1  UNL1        0.0264
     33 C           4.0280   -3.1102   19.4594 C.3     1  UNL1        0.0729
     34 C           3.4982   -0.8049   18.3848 C.3     1  UNL1        0.0993
     35 N          -0.0400    2.9998   18.4597 N.pl3   1  UNL1       -0.3426
     36 C           0.5346    1.7481   19.0542 C.ar    1  UNL1        0.1251
     37 C           1.7291    1.0974   18.4223 C.ar    1  UNL1        0.0310
     38 C           2.3036   -0.1542   19.0168 C.ar    1  UNL1       -0.0018
     39 C           1.6835   -0.7550   20.2434 C.ar    1  UNL1        0.0179
     40 C           0.4889   -0.1043   20.8754 C.ar    1  UNL1        0.1000
     41 N          -0.0856    1.1473   20.2808 N.ar    1  UNL1       -0.2296
     42 H           0.3670    3.3941   17.6547 H       1  UNL1        0.1437
     43 H          -0.8241    3.4268   18.8746 H       1  UNL1        0.1437
@<TRIPOS>BOND
     1    35    36    1
     2    36    37   ar
     3    37    38   ar
     4    38    34    1
     5    34    28    1
     6    28    29    1
     7    29    30    1
     8    30    31    1
     9    31     1    1
    10     1     2    2
    11     1     3   am
    12     3     4    1
    13     4     5    1
    14     5     6    1
    15     6     9    1
    16     9    10   ar
    17    10    11    2
    18    10    12   ar
    19    12    20    1
    20    20    21   ar
    21    21    22   ar
    22    22    23   ar
    23    23    24    1
    24    23    25   ar
    25    25    26    1
    26    25    27   ar
    27    12    13   ar
    28    13    14   ar
    29    14    15   ar
    30    15    16    1
    31    15    17   ar
    32    17    18   ar
    33    18    19   ar
    34     6     7    1
    35     7     8    1
    36    31    32    1
    37    32    33    1
    38    38    39   ar
    39    39    40   ar
    40    40    41   ar
    41    41    36   ar
    42    33    28    1
    43     8     3    1
    44    19     9   ar
    45    27    20   ar
    46    19    13   ar
    47    35    42    1
    48    35    43    1
@<TRIPOS>MOLECULE
*****
 43 48 0 0 0
SMALL
GASTEIGER

@<TRIPOS>ATOM
      1 C           5.2748   -2.2060   20.0215 C.2     1  UNL1        0.2252
      2 O           6.0116   -2.6647   18.7981 O.2     1  UNL1       -0.2749
      3 N           5.7192   -2.6622   21.3796 N.am    1  UNL1       -0.2794
      4 C           6.9002   -3.5771   21.5143 C.3     1  UNL1        0.0953
      5 C           7.3446   -4.0333   22.8724 C.3     1  UNL1        0.0442
      6 C           6.6078   -3.5746   24.0959 C.3     1  UNL1        0.0933
      7 C           5.4268   -2.6598   23.9612 C.3     1  UNL1        0.0442
      8 C           4.9824   -2.2036   22.6031 C.3     1  UNL1        0.0953
      9 N           7.0521   -4.0309   25.4540 N.ar    1  UNL1       -0.2814
     10 C           7.1242   -3.1828   26.6891 C.ar    1  UNL1        0.3354
     11 O           6.7645   -1.7295   26.7830 O.2     1  UNL1       -0.2459
     12 N           7.6190   -4.0431   27.8139 N.ar    1  UNL1       -0.2588
     13 C           7.8527   -5.4229   27.2739 C.ar    1  UNL1        0.0863
     14 C           8.3394   -6.6851   27.9218 C.ar    1  UNL1        0.0487
     15 C           8.4756   -7.9398   27.1112 C.ar    1  UNL1        0.1417
     16 F           8.9622   -9.2022   27.7591 F       1  UNL1       -0.2041
     17 C           8.1253   -7.9323   25.6527 C.ar    1  UNL1        0.0312
     18 C           7.6387   -6.6700   25.0048 C.ar    1  UNL1        0.0211
     19 C           7.5024   -5.4153   25.8154 C.ar    1  UNL1        0.0801
     20 C           7.8411   -3.6012   29.2300 C.ar    1  UNL1        0.0706
     21 C           9.0375   -2.7650   29.5759 C.ar    1  UNL1        0.0201
     22 C           9.2596   -2.3231   30.9920 C.ar    1  UNL1        0.0335
     23 C           8.2853   -2.7174   32.0623 C.ar    1  UNL1        0.1675
     24 F           8.5074   -2.2756   33.4784 F       1  UNL1       -0.2018
     25 C           7.0890   -3.5536   31.7164 C.ar    1  UNL1        0.1688
     26 F           6.1148   -3.9478   32.7866 F       1  UNL1       -0.2017
     27 C           6.8669   -3.9954   30.3002 C.ar    1  UNL1        0.0496
     28 N           1.7317    0.5385   19.6176 N.3     1  UNL1       -0.2689
     29 C           1.5227   -0.9184   19.9074 C.3     1  UNL1        0.0729
     30 C           2.7037   -1.8332   20.0420 C.3     1  UNL1        0.0264
     31 C           4.0938   -1.2912   19.8869 C.3     1  UNL1        0.0795
     32 C           4.3028    0.1657   19.5971 C.3     1  UNL1        0.0264
     33 C           3.1217    1.0805   19.4625 C.3     1  UNL1        0.0729
     34 C           0.5506    1.4534   19.4830 C.3     1  UNL1        0.0993
     35 N           0.6674    2.3738   24.5956 N.pl3   1  UNL1       -0.3426
     36 C           0.0112    2.5509   23.2584 C.ar    1  UNL1        0.1251
     37 C           0.6090    1.9136   22.0392 C.ar    1  UNL1        0.0310
     38 C          -0.0473    2.0907   20.7021 C.ar    1  UNL1       -0.0018
     39 C          -1.3013    2.9053   20.5841 C.ar    1  UNL1        0.0179
     40 C          -1.8991    3.5426   21.8033 C.ar    1  UNL1        0.1000
     41 N          -1.2429    3.3654   23.1404 N.ar    1  UNL1       -0.2296
     42 H           1.4904    1.8392   24.6731 H       1  UNL1        0.1437
     43 H           0.2750    2.7921   25.3958 H       1  UNL1        0.1437
@<TRIPOS>BOND
     1    35    36    1
     2    36    37   ar
     3    37    38   ar
     4    38    34    1
     5    34    28    1
     6    28    29    1
     7    29    30    1
     8    30    31    1
     9    31     1    1
    10     1     2    2
    11     1     3   am
    12     3     4    1
    13     4     5    1
    14     5     6    1
    15     6     9    1
    16     9    10   ar
    17    10    11    2
    18    10    12   ar
    19    12    20    1
    20    20    21   ar
    21    21    22   ar
    22    22    23   ar
    23    23    24    1
    24    23    25   ar
    25    25    26    1
    26    25    27   ar
    27    12    13   ar
    28    13    14   ar
    29    14    15   ar
    30    15    16    1
    31    15    17   ar
    32    17    18   ar
    33    18    19   ar
    34     6     7    1
    35     7     8    1
    36    31    32    1
    37    32    33    1
    38    38    39   ar
    39    39    40   ar
    40    40    41   ar
    41    41    36   ar
    42    33    28    1
    43     8     3    1
    44    19     9   ar
    45    27    20   ar
    46    19    13   ar
    47    35    42    1
    48    35    43    1
@<TRIPOS>MOLECULE
*****
 43 48 0 0 0
SMALL
GASTEIGER

@<TRIPOS>ATOM
      1 C           0.8213    1.0450   29.9786 C.2     1  UNL1        0.2252
      2 O          -0.4410    1.3461   30.7308 O.2     1  UNL1       -0.2749
      3 N           0.8407    1.1312   28.4812 N.am    1  UNL1       -0.2794
      4 C          -0.4022    1.5185   27.7361 C.3     1  UNL1        0.0953
      5 C          -0.3828    1.6047   26.2387 C.3     1  UNL1        0.0442
      6 C           0.8796    1.3036   25.4863 C.3     1  UNL1        0.0933
      7 C           2.1224    0.9163   26.2315 C.3     1  UNL1        0.0442
      8 C           2.1030    0.8302   27.7289 C.3     1  UNL1        0.0953
      9 N           0.8990    1.3898   23.9889 N.ar    1  UNL1       -0.2814
     10 C           1.7931    0.6084   23.0724 C.ar    1  UNL1        0.3354
     11 O           2.8247   -0.3963   23.4922 O.2     1  UNL1       -0.2459
     12 N           1.4743    1.0082   21.6622 N.ar    1  UNL1       -0.2588
     13 C           0.3833    2.0366   21.7073 C.ar    1  UNL1        0.0863
     14 C          -0.3323    2.7888   20.6246 C.ar    1  UNL1        0.0487
     15 C          -1.4035    3.7768   20.9801 C.ar    1  UNL1        0.1417
     16 F          -2.1192    4.5291   19.8975 F       1  UNL1       -0.2041
     17 C          -1.7591    4.0126   22.4181 C.ar    1  UNL1        0.0312
     18 C          -1.0435    3.2604   23.5007 C.ar    1  UNL1        0.0211
     19 C           0.0277    2.2724   23.1453 C.ar    1  UNL1        0.0801
     20 C           2.1313    0.4735   20.4243 C.ar    1  UNL1        0.0706
     21 C           2.5057    1.4067   19.3110 C.ar    1  UNL1        0.0201
     22 C           3.1626    0.8719   18.0731 C.ar    1  UNL1        0.0335
     23 C           3.4452   -0.5959   17.9483 C.ar    1  UNL1        0.1675
     24 F           4.1021   -1.1306   16.7104 F       1  UNL1       -0.2018
     25 C           3.0708   -1.5290   19.0615 C.ar    1  UNL1        0.1688
     26 F           3.3534   -2.9969   18.9367 F       1  UNL1       -0.2017
     27 C           2.4139   -0.9943   20.2994 C.ar    1  UNL1        0.0496
     28 N           4.5500   -0.1167   32.2140 N.3     1  UNL1       -0.2689
     29 C           3.9929    1.2691   32.3535 C.3     1  UNL1        0.0729
     30 C           2.7500    1.6563   31.6084 C.3     1  UNL1        0.0264
     31 C           2.0642    0.6578   30.7237 C.3     1  UNL1        0.0795
     32 C           2.6212   -0.7279   30.5842 C.3     1  UNL1        0.0264
     33 C           3.8641   -1.1152   31.3293 C.3     1  UNL1        0.0729
     34 C           5.7929   -0.5040   32.9591 C.3     1  UNL1        0.0993
     35 N           6.5196   -5.5954   32.2180 N.pl3   1  UNL1       -0.3426
     36 C           7.0059   -4.1819   32.0927 C.ar    1  UNL1        0.1251
     37 C           6.1562   -3.0496   32.5886 C.ar    1  UNL1        0.0310
     38 C           6.6426   -1.6362   32.4632 C.ar    1  UNL1       -0.0018
     39 C           7.9786   -1.3551   31.8419 C.ar    1  UNL1        0.0179
     40 C           8.8283   -2.4874   31.3460 C.ar    1  UNL1        0.1000
     41 N           8.3419   -3.9008   31.4714 N.ar    1  UNL1       -0.2296
     42 H           5.6427   -5.7800   32.6257 H       1  UNL1        0.1437
     43 H           7.0773   -6.3386   31.8925 H       1  UNL1        0.1437
@<TRIPOS>BOND
     1    35    36    1
     2    36    37   ar
     3    37    38   ar
     4    38    34    1
     5    34    28    1
     6    28    29    1
     7    29    30    1
     8    30    31    1
     9    31     1    1
    10     1     2    2
    11     1     3   am
    12     3     4    1
    13     4     5    1
    14     5     6    1
    15     6     9    1
    16     9    10   ar
    17    10    11    2
    18    10    12   ar
    19    12    20    1
    20    20    21   ar
    21    21    22   ar
    22    22    23   ar
    23    23    24    1
    24    23    25   ar
    25    25    26    1
    26    25    27   ar
    27    12    13   ar
    28    13    14   ar
    29    14    15   ar
    30    15    16    1
    31    15    17   ar
    32    17    18   ar
    33    18    19   ar
    34     6     7    1
    35     7     8    1
    36    31    32    1
    37    32    33    1
    38    38    39   ar
    39    39    40   ar
    40    40    41   ar
    41    41    36   ar
    42    33    28    1
    43     8     3    1
    44    19     9   ar
    45    27    20   ar
    46    19    13   ar
    47    35    42    1
    48    35    43    1
@<TRIPOS>MOLECULE
*****
 43 48 0 0 0
SMALL
GASTEIGER

@<TRIPOS>ATOM
      1 C          -3.2299    4.4128   20.3167 C.2     1  UNL1        0.2252
      2 O          -4.0046    4.9797   19.1641 O.2     1  UNL1       -0.2749
      3 N          -1.8983    3.7645   20.0787 N.am    1  UNL1       -0.2794
      4 C          -1.3416    3.6831   18.6882 C.3     1  UNL1        0.0953
      5 C          -0.0100    3.0348   18.4502 C.3     1  UNL1        0.0442
      6 C           0.7648    2.4678   19.6028 C.3     1  UNL1        0.0933
      7 C           0.2080    2.5492   20.9931 C.3     1  UNL1        0.0442
      8 C          -1.1235    3.1975   21.2311 C.3     1  UNL1        0.0953
      9 N           2.0964    1.8194   19.3648 N.ar    1  UNL1       -0.2814
     10 C           2.4929    0.4373   19.7919 C.ar    1  UNL1        0.3354
     11 O           1.6276   -0.5392   20.5319 O.2     1  UNL1       -0.2459
     12 N           3.9068    0.2031   19.3489 N.ar    1  UNL1       -0.2588
     13 C           4.3840    1.4405   18.6481 C.ar    1  UNL1        0.0863
     14 C           5.6928    1.7867   18.0023 C.ar    1  UNL1        0.0487
     15 C           5.8827    3.1318   17.3663 C.ar    1  UNL1        0.1417
     16 F           7.1916    3.4780   16.7205 F       1  UNL1       -0.2041
     17 C           4.7638    4.1308   17.3761 C.ar    1  UNL1        0.0312
     18 C           3.4550    3.7846   18.0219 C.ar    1  UNL1        0.0211
     19 C           3.2651    2.4395   18.6579 C.ar    1  UNL1        0.0801
     20 C           4.7036   -1.0487   19.5683 C.ar    1  UNL1        0.0706
     21 C           5.8563   -1.0455   20.5282 C.ar    1  UNL1        0.0201
     22 C           6.6531   -2.2973   20.7476 C.ar    1  UNL1        0.0335
     23 C           6.2972   -3.5523   20.0071 C.ar    1  UNL1        0.1675
     24 F           7.0940   -4.8041   20.2265 F       1  UNL1       -0.2018
     25 C           5.1446   -3.5555   19.0473 C.ar    1  UNL1        0.1688
     26 F           4.7887   -4.8105   18.3068 F       1  UNL1       -0.2017
     27 C           4.3478   -2.3037   18.8279 C.ar    1  UNL1        0.0496
     28 N          -4.9001    4.6569   24.4880 N.3     1  UNL1       -0.2689
     29 C          -3.9164    5.6848   24.0126 C.3     1  UNL1        0.0729
     30 C          -3.3597    5.6035   22.6222 C.3     1  UNL1        0.0264
     31 C          -3.7866    4.4942   21.7071 C.3     1  UNL1        0.0795
     32 C          -4.7703    3.4664   22.1825 C.3     1  UNL1        0.0264
     33 C          -5.3270    3.5477   23.5729 C.3     1  UNL1        0.0729
     34 C          -5.4569    4.7383   25.8785 C.3     1  UNL1        0.0993
     35 N          -9.6371    7.4612   24.4252 N.pl3   1  UNL1       -0.3426
     36 C          -8.6270    7.0906   25.4705 C.ar    1  UNL1        0.1251
     37 C          -7.5469    6.0997   25.1519 C.ar    1  UNL1        0.0310
     38 C          -6.5369    5.7292   26.1972 C.ar    1  UNL1       -0.0018
     39 C          -6.6070    6.3496   27.5611 C.ar    1  UNL1        0.0179
     40 C          -7.6871    7.3405   27.8797 C.ar    1  UNL1        0.1000
     41 N          -8.6971    7.7110   26.8344 N.ar    1  UNL1       -0.2296
     42 H          -9.5911    7.0540   23.5300 H       1  UNL1        0.1437
     43 H         -10.3460    8.1115   24.6344 H       1  UNL1        0.1437
@<TRIPOS>BOND
     1    35    36    1
     2    36    37   ar
     3    37    38   ar
     4    38    34    1
     5    34    28    1
     6    28    29    1
     7    29    30    1
     8    30    31    1
     9    31     1    1
    10     1     2    2
    11     1     3   am
    12     3     4    1
    13     4     5    1
    14     5     6    1
    15     6     9    1
    16     9    10   ar
    17    10    11    2
    18    10    12   ar
    19    12    20    1
    20    20    21   ar
    21    21    22   ar
    22    22    23   ar
    23    23    24    1
    24    23    25   ar
    25    25    26    1
    26    25    27   ar
    27    12    13   ar
    28    13    14   ar
    29    14    15   ar
    30    15    16    1
    31    15    17   ar
    32    17    18   ar
    33    18    19   ar
    34     6     7    1
    35     7     8    1
    36    31    32    1
    37    32    33    1
    38    38    39   ar
    39    39    40   ar
    40    40    41   ar
    41    41    36   ar
    42    33    28    1
    43     8     3    1
    44    19     9   ar
    45    27    20   ar
    46    19    13   ar
    47    35    42    1
    48    35    43    1
@<TRIPOS>MOLECULE
*****
 43 48 0 0 0
SMALL
GASTEIGER

@<TRIPOS>ATOM
      1 C           6.1614   -1.9622   31.6709 C.2     1  UNL1        0.2252
      2 O           7.1432   -3.0899   31.5507 O.2     1  UNL1       -0.2749
      3 N           5.4317   -1.4706   30.4561 N.am    1  UNL1       -0.2794
      4 C           5.6837   -2.1066   29.1212 C.3     1  UNL1        0.0953
      5 C           4.9539   -1.6149   27.9064 C.3     1  UNL1        0.0442
      6 C           3.9721   -0.4871   28.0265 C.3     1  UNL1        0.0933
      7 C           3.7202    0.1488   29.3614 C.3     1  UNL1        0.0442
      8 C           4.4499   -0.3429   30.5762 C.3     1  UNL1        0.0953
      9 N           3.2424    0.0045   26.8117 N.ar    1  UNL1       -0.2814
     10 C           3.7294   -0.0816   25.3956 C.ar    1  UNL1        0.3354
     11 O           5.0316   -0.6746   24.9456 O.2     1  UNL1       -0.2459
     12 N           2.6854    0.5293   24.5085 N.ar    1  UNL1       -0.2588
     13 C           1.5532    0.9930   25.3763 C.ar    1  UNL1        0.0863
     14 C           0.2534    1.6687   25.0543 C.ar    1  UNL1        0.0487
     15 C          -0.7023    2.0200   26.1557 C.ar    1  UNL1        0.1417
     16 F          -2.0022    2.6957   25.8337 F       1  UNL1       -0.2041
     17 C          -0.3581    1.6957   27.5792 C.ar    1  UNL1        0.0312
     18 C           0.9418    1.0200   27.9013 C.ar    1  UNL1        0.0211
     19 C           1.8974    0.6687   26.7998 C.ar    1  UNL1        0.0801
     20 C           2.7605    0.6545   23.0156 C.ar    1  UNL1        0.0706
     21 C           2.9574    2.0012   22.3849 C.ar    1  UNL1        0.0201
     22 C           3.0324    2.1265   20.8920 C.ar    1  UNL1        0.0335
     23 C           2.9106    0.9051   20.0298 C.ar    1  UNL1        0.1675
     24 F           2.9856    1.0303   18.5370 F       1  UNL1       -0.2018
     25 C           2.7137   -0.4415   20.6606 C.ar    1  UNL1        0.1688
     26 F           2.5919   -1.6629   19.7984 F       1  UNL1       -0.2017
     27 C           2.6387   -0.5668   22.1534 C.ar    1  UNL1        0.0496
     28 N           5.4054   -0.0542   35.6756 N.3     1  UNL1       -0.2689
     29 C           6.6296    0.3117   34.8895 C.3     1  UNL1        0.0729
     30 C           6.8816   -0.3243   33.5546 C.3     1  UNL1        0.0264
     31 C           5.9094   -1.3262   33.0058 C.3     1  UNL1        0.0795
     32 C           4.6854   -1.6921   33.7918 C.3     1  UNL1        0.0264
     33 C           4.4334   -1.0561   35.1267 C.3     1  UNL1        0.0729
     34 C           5.1534    0.5818   37.0105 C.3     1  UNL1        0.0993
     35 N           0.9112    1.6932   39.7976 N.pl3   1  UNL1       -0.3426
     36 C           1.7999    1.9647   38.6201 C.ar    1  UNL1        0.1251
     37 C           3.0324    1.1375   38.4040 C.ar    1  UNL1        0.0310
     38 C           3.9210    1.4091   37.2265 C.ar    1  UNL1       -0.0018
     39 C           3.5772    2.5079   36.2650 C.ar    1  UNL1        0.0179
     40 C           2.3447    3.3351   36.4811 C.ar    1  UNL1        0.1000
     41 N           1.4561    3.0635   37.6587 N.ar    1  UNL1       -0.2296
     42 H           1.1368    0.9720   40.4287 H       1  UNL1        0.1437
     43 H           0.1023    2.2361   39.9394 H       1  UNL1        0.1437
@<TRIPOS>BOND
     1    35    36    1
     2    36    37   ar
     3    37    38   ar
     4    38    34    1
     5    34    28    1
     6    28    29    1
     7    29    30    1
     8    30    31    1
     9    31     1    1
    10     1     2    2
    11     1     3   am
    12     3     4    1
    13     4     5    1
    14     5     6    1
    15     6     9    1
    16     9    10   ar
    17    10    11    2
    18    10    12   ar
    19    12    20    1
    20    20    21   ar
    21    21    22   ar
    22    22    23   ar
    23    23    24    1
    24    23    25   ar
    25    25    26    1
    26    25    27   ar
    27    12    13   ar
    28    13    14   ar
    29    14    15   ar
    30    15    16    1
    31    15    17   ar
    32    17    18   ar
    33    18    19   ar
    34     6     7    1
    35     7     8    1
    36    31    32    1
    37    32    33    1
    38    38    39   ar
    39    39    40   ar
    40    40    41   ar
    41    41    36   ar
    42    33    28    1
    43     8     3    1
    44    19     9   ar
    45    27    20   ar
    46    19    13   ar
    47    35    42    1
    48    35    43    1
