@<TRIPOS>MOLECULE
*****
 28 29 0 0 0
SMALL
GASTEIGER

@<TRIPOS>ATOM
      1 C          -8.9679  -18.5281   21.9222 C.3     1  UNL1        0.1186
      2 C          -7.5898  -18.9698   21.5272 C.ar    1  UNL1        0.0752
      3 C          -6.9001  -20.0552   22.2992 C.ar    1  UNL1        0.0161
      4 C          -5.5221  -20.4969   21.9043 C.ar    1  UNL1        0.0028
      5 C          -4.8339  -19.8531   20.7373 C.ar    1  UNL1        0.0207
      6 C          -5.5236  -18.7677   19.9652 C.ar    1  UNL1        0.0985
      7 N          -6.9016  -18.3260   20.3602 N.ar    1  UNL1       -0.2468
      8 N         -10.1275  -19.4682   21.7760 N.3     1  UNL1       -0.2677
      9 C         -10.8099  -19.6168   20.4485 C.3     1  UNL1        0.0724
     10 C          -9.1469  -20.4853   18.6512 C.3     1  UNL1        0.0015
     11 C         -10.0383  -19.4011   19.1803 C.3     1  UNL1        0.0173
     12 C         -10.6048  -20.2599   22.9574 C.3     1  UNL1        0.0724
     13 C          -9.8494  -20.2043   24.2521 C.3     1  UNL1        0.0173
     14 C         -10.2941  -19.2728   25.3405 C.3     1  UNL1        0.0015
     15 C          -9.1863  -17.1463   22.4633 C.3     1  UNL1        0.1186
     16 C          -8.1978  -16.5513   23.4220 C.ar    1  UNL1        0.0752
     17 C          -8.5769  -16.3456   24.8586 C.ar    1  UNL1        0.0161
     18 C          -7.5885  -15.7507   25.8173 C.ar    1  UNL1        0.0028
     19 C          -6.2210  -15.3615   25.3393 C.ar    1  UNL1        0.0207
     20 C          -5.8419  -15.5672   23.9027 C.ar    1  UNL1        0.0985
     21 N          -6.8303  -16.1621   22.9440 N.ar    1  UNL1       -0.2468
     22 N         -10.3931  -16.3593   22.0457 N.3     1  UNL1       -0.2677
     23 C         -10.3686  -15.5684   20.7714 C.3     1  UNL1        0.0724
     24 C         -11.0972  -16.0731   19.5613 C.3     1  UNL1        0.0173
     25 C         -12.5294  -15.6894   19.3339 C.3     1  UNL1        0.0015
     26 C         -11.6243  -16.3633   22.9024 C.3     1  UNL1        0.0724
     27 C         -12.7385  -17.3240   22.6098 C.3     1  UNL1        0.0173
     28 C         -13.5094  -17.9443   23.7372 C.3     1  UNL1        0.0015
@<TRIPOS>BOND
     1    10    11    1
     2    11     9    1
     3     9     8    1
     4     8    12    1
     5    12    13    1
     6    13    14    1
     7     1     8    1
     8     1     2    1
     9     2     3   ar
    10     3     4   ar
    11     4     5   ar
    12     5     6   ar
    13     6     7   ar
    14     1    15    1
    15    15    16    1
    16    16    17   ar
    17    17    18   ar
    18    18    19   ar
    19    19    20   ar
    20    20    21   ar
    21    15    22    1
    22    22    23    1
    23    23    24    1
    24    24    25    1
    25    22    26    1
    26    26    27    1
    27    27    28    1
    28     7     2   ar
    29    21    16   ar
@<TRIPOS>MOLECULE
*****
 28 29 0 0 0
SMALL
GASTEIGER

@<TRIPOS>ATOM
      1 C          -9.2107  -17.1491   22.4523 C.3     1  UNL1        0.1186
      2 C          -8.2294  -16.5595   23.4216 C.ar    1  UNL1        0.0752
      3 C          -8.6171  -16.3670   24.8577 C.ar    1  UNL1        0.0161
      4 C          -7.6357  -15.7775   25.8269 C.ar    1  UNL1        0.0028
      5 C          -6.2667  -15.3805   25.3599 C.ar    1  UNL1        0.0207
      6 C          -5.8790  -15.5729   23.9238 C.ar    1  UNL1        0.0985
      7 N          -6.8603  -16.1625   22.9546 N.ar    1  UNL1       -0.2468
      8 N         -10.4097  -16.3563   22.0234 N.3     1  UNL1       -0.2677
      9 C         -10.3713  -15.5699   20.7466 C.3     1  UNL1        0.0724
     10 C         -12.5506  -15.7159   19.3397 C.3     1  UNL1        0.0015
     11 C         -11.1057  -16.0674   19.5370 C.3     1  UNL1        0.0173
     12 C         -11.6471  -16.3499   22.8713 C.3     1  UNL1        0.0724
     13 C         -12.7424  -17.3401   22.6070 C.3     1  UNL1        0.0173
     14 C         -13.5016  -17.9420   23.7521 C.3     1  UNL1        0.0015
     15 C          -8.9931  -18.5313   21.9120 C.3     1  UNL1        0.1186
     16 C          -7.6143  -18.9761   21.5232 C.ar    1  UNL1        0.0752
     17 C          -6.9307  -20.0636   22.2978 C.ar    1  UNL1        0.0161
     18 C          -5.5520  -20.5084   21.9090 C.ar    1  UNL1        0.0028
     19 C          -4.8568  -19.8657   20.7456 C.ar    1  UNL1        0.0207
     20 C          -5.5404  -18.7782   19.9709 C.ar    1  UNL1        0.0985
     21 N          -6.9191  -18.3335   20.3597 N.ar    1  UNL1       -0.2468
     22 N         -10.1542  -19.4688   21.7604 N.3     1  UNL1       -0.2677
     23 C         -10.6505  -20.2454   22.9439 C.3     1  UNL1        0.0724
     24 C          -9.8705  -20.2401   24.2251 C.3     1  UNL1        0.0173
     25 C         -10.2618  -19.3132   25.3376 C.3     1  UNL1        0.0015
     26 C         -10.8190  -19.6297   20.4255 C.3     1  UNL1        0.0724
     27 C         -10.0463  -19.3686   19.1665 C.3     1  UNL1        0.0173
     28 C          -9.1631  -20.4370   18.5934 C.3     1  UNL1        0.0015
@<TRIPOS>BOND
     1    10    11    1
     2    11     9    1
     3     9     8    1
     4     8    12    1
     5    12    13    1
     6    13    14    1
     7     1     8    1
     8     1     2    1
     9     2     3   ar
    10     3     4   ar
    11     4     5   ar
    12     5     6   ar
    13     6     7   ar
    14     1    15    1
    15    15    16    1
    16    16    17   ar
    17    17    18   ar
    18    18    19   ar
    19    19    20   ar
    20    20    21   ar
    21    15    22    1
    22    22    23    1
    23    23    24    1
    24    24    25    1
    25    22    26    1
    26    26    27    1
    27    27    28    1
    28     7     2   ar
    29    21    16   ar
@<TRIPOS>MOLECULE
*****
 28 29 0 0 0
SMALL
GASTEIGER

@<TRIPOS>ATOM
      1 C          -8.9355  -18.5700   21.9683 C.3     1  UNL1        0.1186
      2 C          -7.5616  -18.9947   21.5416 C.ar    1  UNL1        0.0752
      3 C          -6.8442  -20.0772   22.2921 C.ar    1  UNL1        0.0161
      4 C          -5.4704  -20.5018   21.8654 C.ar    1  UNL1        0.0028
      5 C          -4.8139  -19.8439   20.6880 C.ar    1  UNL1        0.0207
      6 C          -5.5312  -18.7613   19.9374 C.ar    1  UNL1        0.0985
      7 N          -6.9051  -18.3367   20.3642 N.ar    1  UNL1       -0.2468
      8 N         -10.0847  -19.5277   21.8577 N.3     1  UNL1       -0.2677
      9 C         -10.5253  -20.3122   23.0579 C.3     1  UNL1        0.0724
     10 C         -10.3389  -19.1856   25.3916 C.3     1  UNL1        0.0015
     11 C          -9.8114  -20.1453   24.3665 C.3     1  UNL1        0.0173
     12 C         -10.7932  -19.7009   20.5470 C.3     1  UNL1        0.0724
     13 C         -10.0785  -19.4011   19.2627 C.3     1  UNL1        0.0173
     14 C          -9.1773  -20.4306   18.6480 C.3     1  UNL1        0.0015
     15 C          -9.1602  -17.1877   22.5056 C.3     1  UNL1        0.1186
     16 C          -8.1628  -16.5767   23.4447 C.ar    1  UNL1        0.0752
     17 C          -8.5407  -16.3123   24.8720 C.ar    1  UNL1        0.0161
     18 C          -7.5433  -15.7013   25.8110 C.ar    1  UNL1        0.0028
     19 C          -6.1680  -15.3547   25.3228 C.ar    1  UNL1        0.0207
     20 C          -5.7901  -15.6191   23.8955 C.ar    1  UNL1        0.0985
     21 N          -6.7875  -16.2301   22.9564 N.ar    1  UNL1       -0.2468
     22 N         -10.3823  -16.4163   22.1038 N.3     1  UNL1       -0.2677
     23 C         -10.3806  -15.6159   20.8352 C.3     1  UNL1        0.0724
     24 C         -11.1023  -16.1282   19.6241 C.3     1  UNL1        0.0173
     25 C         -12.5123  -15.6949   19.3522 C.3     1  UNL1        0.0015
     26 C         -11.6062  -16.4454   22.9706 C.3     1  UNL1        0.0724
     27 C         -12.7330  -17.3808   22.6462 C.3     1  UNL1        0.0173
     28 C         -13.5864  -17.9373   23.7471 C.3     1  UNL1        0.0015
@<TRIPOS>BOND
     1    10    11    1
     2    11     9    1
     3     9     8    1
     4     8    12    1
     5    12    13    1
     6    13    14    1
     7     1     8    1
     8     1     2    1
     9     2     3   ar
    10     3     4   ar
    11     4     5   ar
    12     5     6   ar
    13     6     7   ar
    14     1    15    1
    15    15    16    1
    16    16    17   ar
    17    17    18   ar
    18    18    19   ar
    19    19    20   ar
    20    20    21   ar
    21    15    22    1
    22    22    23    1
    23    23    24    1
    24    24    25    1
    25    22    26    1
    26    26    27    1
    27    27    28    1
    28     7     2   ar
    29    21    16   ar
@<TRIPOS>MOLECULE
*****
 28 29 0 0 0
SMALL
GASTEIGER

@<TRIPOS>ATOM
      1 C          -9.1237  -17.3095   23.1586 C.3     1  UNL1        0.1186
      2 C          -8.0609  -16.5672   23.9132 C.ar    1  UNL1        0.0752
      3 C          -8.2834  -16.1920   25.3484 C.ar    1  UNL1        0.0161
      4 C          -7.2205  -15.4498   26.1030 C.ar    1  UNL1        0.0028
      5 C          -5.9352  -15.0827   25.4224 C.ar    1  UNL1        0.0207
      6 C          -5.7127  -15.4578   23.9872 C.ar    1  UNL1        0.0985
      7 N          -6.7755  -16.2001   23.2327 N.ar    1  UNL1       -0.2468
      8 N         -10.4395  -17.6074   23.8142 N.3     1  UNL1       -0.2677
      9 C         -11.6714  -16.8600   23.3974 C.3     1  UNL1        0.0724
     10 C         -13.9041  -17.9844   24.1054 C.3     1  UNL1        0.0015
     11 C         -12.9188  -17.6114   23.0376 C.3     1  UNL1        0.0173
     12 C         -10.5234  -18.6529   24.8866 C.3     1  UNL1        0.0724
     13 C         -10.6972  -20.0958   24.5154 C.3     1  UNL1        0.0173
     14 C          -9.5130  -21.0164   24.5087 C.3     1  UNL1        0.0015
     15 C          -8.8707  -17.7537   21.7484 C.3     1  UNL1        0.1186
     16 C          -7.6719  -18.5979   21.4317 C.ar    1  UNL1        0.0752
     17 C          -7.3879  -19.8300   22.2386 C.ar    1  UNL1        0.0161
     18 C          -6.1891  -20.6741   21.9218 C.ar    1  UNL1        0.0028
     19 C          -5.2743  -20.2861   20.7981 C.ar    1  UNL1        0.0207
     20 C          -5.5583  -19.0539   19.9912 C.ar    1  UNL1        0.0985
     21 N          -6.7571  -18.2098   20.3080 N.ar    1  UNL1       -0.2468
     22 N          -9.8165  -17.3539   20.6550 N.3     1  UNL1       -0.2677
     23 C         -10.2726  -15.9294   20.5416 C.3     1  UNL1        0.0724
     24 C         -11.2964  -15.5493   19.5133 C.3     1  UNL1        0.0173
     25 C         -12.7451  -15.8604   19.7466 C.3     1  UNL1        0.0015
     26 C         -10.3061  -18.3784   19.6750 C.3     1  UNL1        0.0724
     27 C         -10.4173  -19.8167   20.0862 C.3     1  UNL1        0.0173
     28 C         -11.2911  -20.2004   21.2435 C.3     1  UNL1        0.0015
@<TRIPOS>BOND
     1    10    11    1
     2    11     9    1
     3     9     8    1
     4     8    12    1
     5    12    13    1
     6    13    14    1
     7     1     8    1
     8     1     2    1
     9     2     3   ar
    10     3     4   ar
    11     4     5   ar
    12     5     6   ar
    13     6     7   ar
    14     1    15    1
    15    15    16    1
    16    16    17   ar
    17    17    18   ar
    18    18    19   ar
    19    19    20   ar
    20    20    21   ar
    21    15    22    1
    22    22    23    1
    23    23    24    1
    24    24    25    1
    25    22    26    1
    26    26    27    1
    27    27    28    1
    28     7     2   ar
    29    21    16   ar
@<TRIPOS>MOLECULE
*****
 28 29 0 0 0
SMALL
GASTEIGER

@<TRIPOS>ATOM
      1 C          -8.9335  -17.8171   21.7984 C.3     1  UNL1        0.1186
      2 C          -7.7163  -18.6241   21.4559 C.ar    1  UNL1        0.0752
      3 C          -7.3914  -19.8608   22.2400 C.ar    1  UNL1        0.0161
      4 C          -6.1742  -20.6678   21.8975 C.ar    1  UNL1        0.0028
      5 C          -5.2820  -20.2380   20.7708 C.ar    1  UNL1        0.0207
      6 C          -5.6070  -19.0013   19.9867 C.ar    1  UNL1        0.0985
      7 N          -6.8241  -18.1943   20.3293 N.ar    1  UNL1       -0.2468
      8 N          -9.9259  -17.4664   20.7297 N.3     1  UNL1       -0.2677
      9 C         -10.7322  -18.5463   20.0713 C.3     1  UNL1        0.0724
     10 C          -9.1570  -20.0199   18.6231 C.3     1  UNL1        0.0015
     11 C         -10.1050  -19.8767   19.7768 C.3     1  UNL1        0.0173
     12 C         -10.1120  -16.0356   20.3194 C.3     1  UNL1        0.0724
     13 C         -11.2221  -15.6625   19.3821 C.3     1  UNL1        0.0173
     14 C         -12.6504  -15.7928   19.8215 C.3     1  UNL1        0.0015
     15 C          -9.1582  -17.3608   23.2095 C.3     1  UNL1        0.1186
     16 C          -8.0859  -16.5999   23.9315 C.ar    1  UNL1        0.0752
     17 C          -8.2650  -16.2401   25.3766 C.ar    1  UNL1        0.0161
     18 C          -7.1927  -15.4793   26.0985 C.ar    1  UNL1        0.0028
     19 C          -5.9412  -15.0783   25.3754 C.ar    1  UNL1        0.0207
     20 C          -5.7620  -15.4381   23.9303 C.ar    1  UNL1        0.0985
     21 N          -6.8344  -16.1990   23.2083 N.ar    1  UNL1       -0.2468
     22 N         -10.4552  -17.6654   23.8987 N.3     1  UNL1       -0.2677
     23 C         -10.5086  -18.7192   24.9649 C.3     1  UNL1        0.0724
     24 C         -10.3039  -20.1610   24.6053 C.3     1  UNL1        0.0173
     25 C         -10.7277  -20.6653   23.2577 C.3     1  UNL1        0.0015
     26 C         -11.6988  -16.9162   23.5217 C.3     1  UNL1        0.0724
     27 C         -12.9198  -17.6653   23.0767 C.3     1  UNL1        0.0173
     28 C         -13.9739  -18.0423   24.0751 C.3     1  UNL1        0.0015
@<TRIPOS>BOND
     1    10    11    1
     2    11     9    1
     3     9     8    1
     4     8    12    1
     5    12    13    1
     6    13    14    1
     7     1     8    1
     8     1     2    1
     9     2     3   ar
    10     3     4   ar
    11     4     5   ar
    12     5     6   ar
    13     6     7   ar
    14     1    15    1
    15    15    16    1
    16    16    17   ar
    17    17    18   ar
    18    18    19   ar
    19    19    20   ar
    20    20    21   ar
    21    15    22    1
    22    22    23    1
    23    23    24    1
    24    24    25    1
    25    22    26    1
    26    26    27    1
    27    27    28    1
    28     7     2   ar
    29    21    16   ar
@<TRIPOS>MOLECULE
*****
 28 29 0 0 0
SMALL
GASTEIGER

@<TRIPOS>ATOM
      1 C          -8.5190  -18.0968   22.3217 C.3     1  UNL1        0.1186
      2 C          -7.0297  -18.1430   22.4951 C.ar    1  UNL1        0.0752
      3 C          -6.2765  -19.4010   22.1790 C.ar    1  UNL1        0.0161
      4 C          -4.7873  -19.4472   22.3524 C.ar    1  UNL1        0.0028
      5 C          -4.0513  -18.2353   22.8419 C.ar    1  UNL1        0.0207
      6 C          -4.8045  -16.9772   23.1581 C.ar    1  UNL1        0.0985
      7 N          -6.2937  -16.9311   22.9846 N.ar    1  UNL1       -0.2468
      8 N          -9.1976  -19.0693   21.4031 N.3     1  UNL1       -0.2677
      9 C          -8.6665  -19.2878   20.0174 C.3     1  UNL1        0.0724
     10 C          -8.9502  -21.0081   18.0912 C.3     1  UNL1        0.0015
     11 C          -9.5268  -19.9458   18.9796 C.3     1  UNL1        0.0173
     12 C         -10.4073  -19.8233   21.8703 C.3     1  UNL1        0.0724
     13 C         -10.4931  -20.2975   23.2907 C.3     1  UNL1        0.0173
     14 C          -9.2671  -20.8124   23.9849 C.3     1  UNL1        0.0015
     15 C          -9.3296  -17.0782   23.0668 C.3     1  UNL1        0.1186
     16 C          -9.0135  -16.7711   24.5007 C.ar    1  UNL1        0.0752
     17 C          -8.3949  -15.4547   24.8670 C.ar    1  UNL1        0.0161
     18 C          -8.0789  -15.1477   26.3008 C.ar    1  UNL1        0.0028
     19 C          -8.3815  -16.1571   27.3683 C.ar    1  UNL1        0.0207
     20 C          -9.0002  -17.4736   27.0019 C.ar    1  UNL1        0.0985
     21 N          -9.3162  -17.7805   25.5681 N.ar    1  UNL1       -0.2468
     22 N         -10.4562  -16.3665   22.3781 N.3     1  UNL1       -0.2677
     23 C         -11.8218  -16.3473   22.9986 C.3     1  UNL1        0.0724
     24 C         -12.7361  -17.5253   22.8361 C.3     1  UNL1        0.0173
     25 C         -13.7217  -17.8642   23.9148 C.3     1  UNL1        0.0015
     26 C         -10.2173  -15.6742   21.0691 C.3     1  UNL1        0.0724
     27 C         -11.2135  -15.8103   19.9559 C.3     1  UNL1        0.0173
     28 C         -11.6106  -17.1717   19.4672 C.3     1  UNL1        0.0015
@<TRIPOS>BOND
     1    10    11    1
     2    11     9    1
     3     9     8    1
     4     8    12    1
     5    12    13    1
     6    13    14    1
     7     1     8    1
     8     1     2    1
     9     2     3   ar
    10     3     4   ar
    11     4     5   ar
    12     5     6   ar
    13     6     7   ar
    14     1    15    1
    15    15    16    1
    16    16    17   ar
    17    17    18   ar
    18    18    19   ar
    19    19    20   ar
    20    20    21   ar
    21    15    22    1
    22    22    23    1
    23    23    24    1
    24    24    25    1
    25    22    26    1
    26    26    27    1
    27    27    28    1
    28     7     2   ar
    29    21    16   ar
@<TRIPOS>MOLECULE
*****
 28 29 0 0 0
SMALL
GASTEIGER

@<TRIPOS>ATOM
      1 C          -7.8422  -17.8434   22.2298 C.3     1  UNL1        0.1186
      2 C          -6.5086  -17.3836   22.7399 C.ar    1  UNL1        0.0752
      3 C          -5.3745  -18.3580   22.8591 C.ar    1  UNL1        0.0161
      4 C          -4.0410  -17.8982   23.3692 C.ar    1  UNL1        0.0028
      5 C          -3.8416  -16.4638   23.7601 C.ar    1  UNL1        0.0207
      6 C          -4.9756  -15.4893   23.6409 C.ar    1  UNL1        0.0985
      7 N          -6.3091  -15.9492   23.1308 N.ar    1  UNL1       -0.2468
      8 N          -7.9142  -18.8469   21.1173 N.3     1  UNL1       -0.2677
      9 C          -6.7148  -19.0935   20.2509 C.3     1  UNL1        0.0724
     10 C          -4.6365  -20.6463   20.1098 C.3     1  UNL1        0.0015
     11 C          -6.1253  -20.4699   20.1601 C.3     1  UNL1        0.0173
     12 C          -9.1856  -19.6039   20.8712 C.3     1  UNL1        0.0724
     13 C          -9.8350  -19.5599   19.5198 C.3     1  UNL1        0.0173
     14 C          -9.3675  -20.4815   18.4326 C.3     1  UNL1        0.0015
     15 C          -9.1037  -17.2997   22.8323 C.3     1  UNL1        0.1186
     16 C         -10.2411  -16.8873   21.9456 C.ar    1  UNL1        0.0752
     17 C         -11.6378  -17.3345   22.2605 C.ar    1  UNL1        0.0161
     18 C         -12.7752  -16.9220   21.3738 C.ar    1  UNL1        0.0028
     19 C         -12.5159  -16.0623   20.1723 C.ar    1  UNL1        0.0207
     20 C         -11.1192  -15.6151   19.8574 C.ar    1  UNL1        0.0985
     21 N          -9.9818  -16.0276   20.7441 N.ar    1  UNL1       -0.2468
     22 N          -9.2278  -17.1685   24.3213 N.3     1  UNL1       -0.2677
     23 C          -8.9740  -15.8456   24.9814 C.3     1  UNL1        0.0724
     24 C          -8.4852  -15.7962   26.3987 C.3     1  UNL1        0.0173
     25 C          -7.0303  -15.5670   26.6828 C.3     1  UNL1        0.0015
     26 C          -9.6058  -18.3601   25.1503 C.3     1  UNL1        0.0724
     27 C         -10.2491  -19.5505   24.5030 C.3     1  UNL1        0.0173
     28 C          -9.4625  -20.8120   24.3032 C.3     1  UNL1        0.0015
@<TRIPOS>BOND
     1    10    11    1
     2    11     9    1
     3     9     8    1
     4     8    12    1
     5    12    13    1
     6    13    14    1
     7     1     8    1
     8     1     2    1
     9     2     3   ar
    10     3     4   ar
    11     4     5   ar
    12     5     6   ar
    13     6     7   ar
    14     1    15    1
    15    15    16    1
    16    16    17   ar
    17    17    18   ar
    18    18    19   ar
    19    19    20   ar
    20    20    21   ar
    21    15    22    1
    22    22    23    1
    23    23    24    1
    24    24    25    1
    25    22    26    1
    26    26    27    1
    27    27    28    1
    28     7     2   ar
    29    21    16   ar
@<TRIPOS>MOLECULE
*****
 28 29 0 0 0
SMALL
GASTEIGER

@<TRIPOS>ATOM
      1 C          -7.0739  -17.6927   22.5858 C.3     1  UNL1        0.1186
      2 C          -6.5372  -18.8009   21.7290 C.ar    1  UNL1        0.0752
      3 C          -6.6269  -20.2226   22.1987 C.ar    1  UNL1        0.0161
      4 C          -6.0902  -21.3307   21.3419 C.ar    1  UNL1        0.0028
      5 C          -5.4638  -21.0171   20.0155 C.ar    1  UNL1        0.0207
      6 C          -5.3741  -19.5954   19.5459 C.ar    1  UNL1        0.0985
      7 N          -5.9108  -18.4873   20.4027 N.ar    1  UNL1       -0.2468
      8 N          -6.1403  -16.6667   23.1565 N.3     1  UNL1       -0.2677
      9 C          -4.6607  -16.8022   22.9511 C.3     1  UNL1        0.0724
     10 C          -3.0083  -18.7751   22.5938 C.3     1  UNL1        0.0015
     11 C          -3.9363  -18.0028   23.4840 C.3     1  UNL1        0.0173
     12 C          -6.6865  -15.5050   23.9327 C.3     1  UNL1        0.0724
     13 C          -5.8496  -14.8508   24.9919 C.3     1  UNL1        0.0173
     14 C          -5.3271  -15.6605   26.1413 C.3     1  UNL1        0.0015
     15 C          -8.5440  -17.6106   22.8718 C.3     1  UNL1        0.1186
     16 C          -9.5035  -17.2610   21.7730 C.ar    1  UNL1        0.0752
     17 C         -10.1880  -18.3494   21.0005 C.ar    1  UNL1        0.0161
     18 C         -11.1474  -17.9998   19.9018 C.ar    1  UNL1        0.0028
     19 C         -11.4222  -16.5617   19.5755 C.ar    1  UNL1        0.0207
     20 C         -10.7377  -15.4733   20.3479 C.ar    1  UNL1        0.0985
     21 N          -9.7783  -15.8229   21.4467 N.ar    1  UNL1       -0.2468
     22 N          -9.0548  -17.8780   24.2565 N.3     1  UNL1       -0.2677
     23 C          -9.0752  -16.7762   25.2742 C.3     1  UNL1        0.0724
     24 C          -8.7599  -17.0755   26.7099 C.3     1  UNL1        0.0173
     25 C          -8.3970  -15.9611   27.6461 C.3     1  UNL1        0.0015
     26 C          -9.5453  -19.2472   24.6236 C.3     1  UNL1        0.0724
     27 C         -10.9510  -19.6537   24.2941 C.3     1  UNL1        0.0173
     28 C         -12.0595  -18.6455   24.3652 C.3     1  UNL1        0.0015
@<TRIPOS>BOND
     1    10    11    1
     2    11     9    1
     3     9     8    1
     4     8    12    1
     5    12    13    1
     6    13    14    1
     7     1     8    1
     8     1     2    1
     9     2     3   ar
    10     3     4   ar
    11     4     5   ar
    12     5     6   ar
    13     6     7   ar
    14     1    15    1
    15    15    16    1
    16    16    17   ar
    17    17    18   ar
    18    18    19   ar
    19    19    20   ar
    20    20    21   ar
    21    15    22    1
    22    22    23    1
    23    23    24    1
    24    24    25    1
    25    22    26    1
    26    26    27    1
    27    27    28    1
    28     7     2   ar
    29    21    16   ar
@<TRIPOS>MOLECULE
*****
 28 29 0 0 0
SMALL
GASTEIGER

@<TRIPOS>ATOM
      1 C          -7.4923  -18.2673   22.0586 C.3     1  UNL1        0.1186
      2 C          -6.2520  -17.6589   22.6431 C.ar    1  UNL1        0.0752
      3 C          -4.9748  -18.4449   22.6758 C.ar    1  UNL1        0.0161
      4 C          -3.7346  -17.8365   23.2603 C.ar    1  UNL1        0.0028
      5 C          -3.7715  -16.4421   23.8120 C.ar    1  UNL1        0.0207
      6 C          -5.0486  -15.6561   23.7793 C.ar    1  UNL1        0.0985
      7 N          -6.2889  -16.2645   23.1948 N.ar    1  UNL1       -0.2468
      8 N          -7.3818  -19.3420   21.0180 N.3     1  UNL1       -0.2677
      9 C          -7.9380  -19.1152   19.6436 C.3     1  UNL1        0.0724
     10 C          -8.8521  -20.9463   18.0431 C.3     1  UNL1        0.0015
     11 C          -9.0767  -19.9560   19.1472 C.3     1  UNL1        0.0173
     12 C          -6.7150  -20.6436   21.3520 C.3     1  UNL1        0.0724
     13 C          -5.7967  -21.2922   20.3590 C.3     1  UNL1        0.0173
     14 C          -4.4683  -20.6692   20.0475 C.3     1  UNL1        0.0015
     15 C          -8.8430  -17.8010   22.5147 C.3     1  UNL1        0.1186
     16 C          -9.7793  -17.1483   21.5413 C.ar    1  UNL1        0.0752
     17 C         -10.9882  -17.8891   21.0517 C.ar    1  UNL1        0.0161
     18 C         -11.9244  -17.2364   20.0783 C.ar    1  UNL1        0.0028
     19 C         -11.6517  -15.8430   19.5946 C.ar    1  UNL1        0.0207
     20 C         -10.4429  -15.1022   20.0843 C.ar    1  UNL1        0.0985
     21 N          -9.5066  -15.7549   21.0576 N.ar    1  UNL1       -0.2468
     22 N          -9.2575  -17.9873   23.9442 N.3     1  UNL1       -0.2677
     23 C          -9.7166  -19.3328   24.4228 C.3     1  UNL1        0.0724
     24 C         -11.1369  -19.5274   24.8641 C.3     1  UNL1        0.0173
     25 C         -12.2126  -18.6152   24.3535 C.3     1  UNL1        0.0015
     26 C          -9.2129  -16.8282   24.8952 C.3     1  UNL1        0.0724
     27 C          -8.7447  -17.0326   26.3055 C.3     1  UNL1        0.0173
     28 C          -7.8272  -16.0321   26.9437 C.3     1  UNL1        0.0015
@<TRIPOS>BOND
     1    10    11    1
     2    11     9    1
     3     9     8    1
     4     8    12    1
     5    12    13    1
     6    13    14    1
     7     1     8    1
     8     1     2    1
     9     2     3   ar
    10     3     4   ar
    11     4     5   ar
    12     5     6   ar
    13     6     7   ar
    14     1    15    1
    15    15    16    1
    16    16    17   ar
    17    17    18   ar
    18    18    19   ar
    19    19    20   ar
    20    20    21   ar
    21    15    22    1
    22    22    23    1
    23    23    24    1
    24    24    25    1
    25    22    26    1
    26    26    27    1
    27    27    28    1
    28     7     2   ar
    29    21    16   ar
