@<TRIPOS>MOLECULE
*****
 34 37 0 0 0
SMALL
GASTEIGER

@<TRIPOS>ATOM
      1 C          -9.1738  -18.6738   21.0283 C.ar    1  UNL1        0.0949
      2 C          -9.8123  -19.1309   19.7503 C.ar    1  UNL1        0.1454
      3 F         -11.1990  -18.6781   19.4009 F       1  UNL1       -0.2040
      4 C          -9.0642  -20.0409   18.8217 C.ar    1  UNL1        0.0312
      5 C          -7.6775  -20.4937   19.1711 C.ar    1  UNL1        0.0204
      6 C          -7.0390  -20.0366   20.4491 C.ar    1  UNL1        0.0924
      7 C          -7.7871  -19.1267   21.3777 C.ar    1  UNL1        0.1598
      8 F          -7.1486  -18.6695   22.6558 F       1  UNL1       -0.2026
      9 C          -9.9219  -17.7639   21.9570 C.2     1  UNL1        0.2006
     10 O         -10.7689  -16.6574   21.4018 O.2     1  UNL1       -0.2866
     11 C          -8.1623  -15.9087   24.1778 C.2     1  UNL1        0.0659
     12 C          -7.4811  -15.2586   25.3454 C.2     1  UNL1        0.0573
     13 C          -7.6676  -15.8132   26.7266 C.2     1  UNL1        0.2361
     14 N          -8.5354  -17.0179   26.9401 N.2     1  UNL1       -0.0340
     15 C          -9.2166  -17.6680   25.7725 C.2     1  UNL1        0.3601
     16 N         -10.1249  -18.8578   25.6755 N.2     1  UNL1       -0.0342
     17 C         -10.4997  -19.0386   24.2343 C.2     1  UNL1        0.2354
     18 C          -9.8230  -17.9604   23.4407 C.2     1  UNL1        0.0799
     19 C          -9.0301  -17.1133   24.3914 C.3     1  UNL1        0.1729
     20 N          -7.7891  -14.7995   21.4155 N.1     1  UNL1       -0.1911
     21 C          -7.9757  -15.3541   22.7967 C.1     1  UNL1        0.0971
     22 N          -5.6523  -20.4895   20.7985 N.pl3   1  UNL1       -0.2127
     23 H          -5.4739  -21.4426   20.9685 H       1  UNL1        0.1738
     24 S          -4.5374  -19.4900   20.8889 S.O2    1  UNL1        0.0759
     25 O          -4.9640  -18.8958   19.5794 O.2     1  UNL1       -0.1499
     26 O          -4.1108  -20.0843   22.1984 O.2     1  UNL1       -0.1499
     27 C          -3.4225  -18.4907   20.9794 C.ar    1  UNL1        0.1547
     28 C          -2.2765  -18.5561   20.0137 C.ar    1  UNL1        0.0521
     29 C          -1.1615  -17.5568   20.1041 C.ar    1  UNL1        0.1416
     30 F          -0.0155  -17.6222   19.1385 F       1  UNL1       -0.2041
     31 C          -1.1926  -16.4919   21.1601 C.ar    1  UNL1        0.0320
     32 C          -2.3386  -16.4265   22.1257 C.ar    1  UNL1        0.0333
     33 C          -3.4536  -17.4259   22.0354 C.ar    1  UNL1        0.1590
     34 F          -4.5995  -17.3604   23.0010 F       1  UNL1       -0.2027
@<TRIPOS>BOND
     1    20    21    3
     2    21    11    1
     3    11    12    2
     4    12    13    1
     5    13    14    2
     6    14    15    1
     7    15    16    2
     8    16    17    1
     9    17    18    2
    10    18     9    1
    11     9    10    2
    12     9     1    1
    13     1     2   ar
    14     2     3    1
    15     2     4   ar
    16     4     5   ar
    17     5     6   ar
    18     6    22    1
    19    22    24    1
    20    24    25    2
    21    24    26    2
    22    24    27    1
    23    27    28   ar
    24    28    29   ar
    25    29    30    1
    26    29    31   ar
    27    31    32   ar
    28    32    33   ar
    29    33    34    1
    30     6     7   ar
    31     7     8    1
    32    18    19    1
    33    19    11    1
    34    19    15    1
    35     7     1   ar
    36    33    27   ar
    37    22    23    1
@<TRIPOS>MOLECULE
*****
 34 37 0 0 0
SMALL
GASTEIGER

@<TRIPOS>ATOM
      1 C         -10.1417  -18.0213   22.3361 C.ar    1  UNL1        0.0949
      2 C         -11.3757  -18.8479   22.1268 C.ar    1  UNL1        0.1454
      3 F         -12.6347  -18.5181   22.8725 F       1  UNL1       -0.2040
      4 C         -11.3507  -20.0043   21.1718 C.ar    1  UNL1        0.0312
      5 C         -10.0916  -20.3341   20.4261 C.ar    1  UNL1        0.0204
      6 C          -8.8576  -19.5074   20.6354 C.ar    1  UNL1        0.0924
      7 C          -8.8826  -18.3510   21.5904 C.ar    1  UNL1        0.1598
      8 F          -7.6486  -17.5243   21.7997 F       1  UNL1       -0.2026
      9 C         -10.1667  -16.8648   23.2911 C.2     1  UNL1        0.2006
     10 O         -10.9477  -15.6297   22.9529 O.2     1  UNL1       -0.2866
     11 C          -7.2320  -15.3631   24.0677 C.2     1  UNL1        0.0659
     12 C          -5.9620  -14.8187   24.6513 C.2     1  UNL1        0.0573
     13 C          -5.5700  -15.1720   26.0554 C.2     1  UNL1        0.2361
     14 N          -6.4480  -16.0697   26.8759 N.2     1  UNL1       -0.0340
     15 C          -7.7180  -16.6141   26.2922 C.2     1  UNL1        0.3601
     16 N          -8.7764  -17.5152   26.8561 N.2     1  UNL1       -0.0342
     17 C          -9.8225  -17.7188   25.8006 C.2     1  UNL1        0.2354
     18 C          -9.4106  -16.9435   24.5843 C.2     1  UNL1        0.0799
     19 C          -8.1100  -16.2608   24.8881 C.3     1  UNL1        0.1729
     20 N          -8.0160  -14.6564   21.2595 N.1     1  UNL1       -0.1911
     21 C          -7.6240  -15.0098   22.6636 C.1     1  UNL1        0.0971
     22 N          -7.5986  -19.8372   19.8897 N.pl3   1  UNL1       -0.2127
     23 H          -7.6487  -20.2181   18.9832 H       1  UNL1        0.1738
     24 S          -6.2631  -19.5867   20.5251 S.O2    1  UNL1        0.0759
     25 O          -6.4877  -20.7434   21.4532 O.2     1  UNL1       -0.1499
     26 O          -6.0385  -18.4299   19.5969 O.2     1  UNL1       -0.1499
     27 C          -4.9276  -19.3360   21.1604 C.ar    1  UNL1        0.1547
     28 C          -4.8425  -18.5841   22.4555 C.ar    1  UNL1        0.0521
     29 C          -3.5070  -18.3334   23.0909 C.ar    1  UNL1        0.1416
     30 F          -3.4219  -17.5814   24.3860 F       1  UNL1       -0.2041
     31 C          -2.2566  -18.8347   22.4312 C.ar    1  UNL1        0.0320
     32 C          -2.3418  -19.5866   21.1360 C.ar    1  UNL1        0.0333
     33 C          -3.6773  -19.8373   20.5006 C.ar    1  UNL1        0.1590
     34 F          -3.7623  -20.5893   19.2055 F       1  UNL1       -0.2027
@<TRIPOS>BOND
     1    20    21    3
     2    21    11    1
     3    11    12    2
     4    12    13    1
     5    13    14    2
     6    14    15    1
     7    15    16    2
     8    16    17    1
     9    17    18    2
    10    18     9    1
    11     9    10    2
    12     9     1    1
    13     1     2   ar
    14     2     3    1
    15     2     4   ar
    16     4     5   ar
    17     5     6   ar
    18     6    22    1
    19    22    24    1
    20    24    25    2
    21    24    26    2
    22    24    27    1
    23    27    28   ar
    24    28    29   ar
    25    29    30    1
    26    29    31   ar
    27    31    32   ar
    28    32    33   ar
    29    33    34    1
    30     6     7   ar
    31     7     8    1
    32    18    19    1
    33    19    11    1
    34    19    15    1
    35     7     1   ar
    36    33    27   ar
    37    22    23    1
@<TRIPOS>MOLECULE
*****
 34 37 0 0 0
SMALL
GASTEIGER

@<TRIPOS>ATOM
      1 C          -7.4359  -17.1771   23.1103 C.ar    1  UNL1        0.0949
      2 C          -7.7698  -15.8639   23.7537 C.ar    1  UNL1        0.1454
      3 F          -9.1890  -15.3785   23.7748 F       1  UNL1       -0.2040
      4 C          -6.6846  -15.0362   24.3759 C.ar    1  UNL1        0.0312
      5 C          -5.2655  -15.5216   24.3547 C.ar    1  UNL1        0.0204
      6 C          -4.9316  -16.8348   23.7113 C.ar    1  UNL1        0.0924
      7 C          -6.0168  -17.6625   23.0891 C.ar    1  UNL1        0.1598
      8 F          -5.6829  -18.9758   22.4457 F       1  UNL1       -0.2026
      9 C          -8.5211  -18.0049   22.4880 C.2     1  UNL1        0.2006
     10 O          -8.5355  -18.2303   21.0052 O.2     1  UNL1       -0.2866
     11 C         -11.7927  -17.1407   22.6301 C.2     1  UNL1        0.0659
     12 C         -13.2601  -16.9536   22.8783 C.2     1  UNL1        0.0573
     13 C         -13.9682  -17.8196   23.8776 C.2     1  UNL1        0.2361
     14 N         -13.2089  -18.8727   24.6288 N.2     1  UNL1       -0.0340
     15 C         -11.7414  -19.0599   24.3806 C.2     1  UNL1        0.3601
     16 N         -10.7375  -20.0085   24.9656 N.2     1  UNL1       -0.0342
     17 C          -9.4090  -19.7288   24.3278 C.2     1  UNL1        0.2354
     18 C          -9.5918  -18.6073   23.3487 C.2     1  UNL1        0.0799
     19 C         -11.0334  -18.1939   23.3813 C.3     1  UNL1        0.1729
     20 N         -10.3765  -15.4087   20.6315 N.1     1  UNL1       -0.1911
     21 C         -11.0846  -16.2747   21.6308 C.1     1  UNL1        0.0971
     22 N          -3.5125  -17.3202   23.6901 N.pl3   1  UNL1       -0.2127
     23 H          -3.0610  -17.5582   24.5320 H       1  UNL1        0.1738
     24 S          -2.7812  -17.4431   22.3862 S.O2    1  UNL1        0.0759
     25 O          -2.6569  -18.9232   22.5954 O.2     1  UNL1       -0.1499
     26 O          -2.9055  -15.9630   22.1771 O.2     1  UNL1       -0.1499
     27 C          -2.0500  -17.5658   21.0824 C.ar    1  UNL1        0.1547
     28 C          -0.6161  -17.1364   20.9832 C.ar    1  UNL1        0.0521
     29 C           0.1152  -17.2591   19.6794 C.ar    1  UNL1        0.1416
     30 F           1.5490  -16.8296   19.5803 F       1  UNL1       -0.2041
     31 C          -0.5873  -17.8112   18.4745 C.ar    1  UNL1        0.0320
     32 C          -2.0211  -18.2407   18.5737 C.ar    1  UNL1        0.0333
     33 C          -2.7524  -18.1180   19.8775 C.ar    1  UNL1        0.1590
     34 F          -4.1862  -18.5474   19.9766 F       1  UNL1       -0.2027
@<TRIPOS>BOND
     1    20    21    3
     2    21    11    1
     3    11    12    2
     4    12    13    1
     5    13    14    2
     6    14    15    1
     7    15    16    2
     8    16    17    1
     9    17    18    2
    10    18     9    1
    11     9    10    2
    12     9     1    1
    13     1     2   ar
    14     2     3    1
    15     2     4   ar
    16     4     5   ar
    17     5     6   ar
    18     6    22    1
    19    22    24    1
    20    24    25    2
    21    24    26    2
    22    24    27    1
    23    27    28   ar
    24    28    29   ar
    25    29    30    1
    26    29    31   ar
    27    31    32   ar
    28    32    33   ar
    29    33    34    1
    30     6     7   ar
    31     7     8    1
    32    18    19    1
    33    19    11    1
    34    19    15    1
    35     7     1   ar
    36    33    27   ar
    37    22    23    1
@<TRIPOS>MOLECULE
*****
 34 37 0 0 0
SMALL
GASTEIGER

@<TRIPOS>ATOM
      1 C          -8.0992  -17.7032   22.2312 C.ar    1  UNL1        0.0949
      2 C          -8.4107  -16.4214   22.9452 C.ar    1  UNL1        0.1454
      3 F          -9.7817  -15.8210   22.8448 F       1  UNL1       -0.2040
      4 C          -7.3513  -15.7399   23.7595 C.ar    1  UNL1        0.0312
      5 C          -5.9803  -16.3402   23.8599 C.ar    1  UNL1        0.0204
      6 C          -5.6688  -17.6221   23.1459 C.ar    1  UNL1        0.0924
      7 C          -6.7282  -18.3035   22.3315 C.ar    1  UNL1        0.1598
      8 F          -6.4168  -19.5854   21.6175 F       1  UNL1       -0.2026
      9 C          -9.1586  -18.3848   21.4168 C.2     1  UNL1        0.2006
     10 O          -8.8194  -19.6081   20.6180 O.2     1  UNL1       -0.2866
     11 C         -11.5673  -18.8049   23.7603 C.2     1  UNL1        0.0659
     12 C         -12.7858  -18.8394   24.6343 C.2     1  UNL1        0.0573
     13 C         -14.0332  -18.1221   24.2106 C.2     1  UNL1        0.2361
     14 N         -14.0620  -17.3702   22.9130 N.2     1  UNL1       -0.0340
     15 C         -12.8434  -17.3356   22.0391 C.2     1  UNL1        0.3601
     16 N         -12.5755  -16.6821   20.7158 N.2     1  UNL1       -0.0342
     17 C         -11.1626  -16.9956   20.3215 C.2     1  UNL1        0.2354
     18 C         -10.5572  -17.8428   21.4013 C.2     1  UNL1        0.0799
     19 C         -11.5960  -18.0530   22.4627 C.3     1  UNL1        0.1729
     20 N          -9.0725  -20.2396   24.6077 N.1     1  UNL1       -0.1911
     21 C         -10.3199  -19.5222   24.1840 C.1     1  UNL1        0.0971
     22 N          -4.2978  -18.2224   23.2462 N.pl3   1  UNL1       -0.2127
     23 H          -4.0242  -18.6900   24.0682 H       1  UNL1        0.1738
     24 S          -3.3438  -18.1103   22.0942 S.O2    1  UNL1        0.0759
     25 O          -3.2993  -16.6220   22.2759 O.2     1  UNL1       -0.1499
     26 O          -3.3884  -19.5986   21.9124 O.2     1  UNL1       -0.1499
     27 C          -2.3899  -17.9983   20.9421 C.ar    1  UNL1        0.1547
     28 C          -0.9387  -17.7145   21.1948 C.ar    1  UNL1        0.0521
     29 C           0.0153  -17.6025   20.0428 C.ar    1  UNL1        0.1416
     30 F           1.4664  -17.3188   20.2956 F       1  UNL1       -0.2041
     31 C          -0.4817  -17.7742   18.6380 C.ar    1  UNL1        0.0320
     32 C          -1.9328  -18.0579   18.3853 C.ar    1  UNL1        0.0333
     33 C          -2.8868  -18.1700   19.5373 C.ar    1  UNL1        0.1590
     34 F          -4.3379  -18.4537   19.2845 F       1  UNL1       -0.2027
@<TRIPOS>BOND
     1    20    21    3
     2    21    11    1
     3    11    12    2
     4    12    13    1
     5    13    14    2
     6    14    15    1
     7    15    16    2
     8    16    17    1
     9    17    18    2
    10    18     9    1
    11     9    10    2
    12     9     1    1
    13     1     2   ar
    14     2     3    1
    15     2     4   ar
    16     4     5   ar
    17     5     6   ar
    18     6    22    1
    19    22    24    1
    20    24    25    2
    21    24    26    2
    22    24    27    1
    23    27    28   ar
    24    28    29   ar
    25    29    30    1
    26    29    31   ar
    27    31    32   ar
    28    32    33   ar
    29    33    34    1
    30     6     7   ar
    31     7     8    1
    32    18    19    1
    33    19    11    1
    34    19    15    1
    35     7     1   ar
    36    33    27   ar
    37    22    23    1
@<TRIPOS>MOLECULE
*****
 34 37 0 0 0
SMALL
GASTEIGER

@<TRIPOS>ATOM
      1 C          -4.3102  -17.1916   22.6404 C.ar    1  UNL1        0.0949
      2 C          -2.9245  -17.5440   22.1867 C.ar    1  UNL1        0.1454
      3 F          -1.7768  -16.6316   22.5035 F       1  UNL1       -0.2040
      4 C          -2.6867  -18.8087   21.4161 C.ar    1  UNL1        0.0312
      5 C          -3.8344  -19.7210   21.0992 C.ar    1  UNL1        0.0204
      6 C          -5.2200  -19.3686   21.5529 C.ar    1  UNL1        0.0924
      7 C          -5.4579  -18.1039   22.3235 C.ar    1  UNL1        0.1598
      8 F          -6.8435  -17.7515   22.7773 F       1  UNL1       -0.2026
      9 C          -4.5481  -15.9268   23.4111 C.2     1  UNL1        0.2006
     10 O          -4.3024  -14.5965   22.7633 O.2     1  UNL1       -0.2866
     11 C          -7.6676  -15.2902   24.5659 C.2     1  UNL1        0.0659
     12 C          -8.9451  -15.0668   25.3195 C.2     1  UNL1        0.0573
     13 C          -8.9810  -15.2551   26.8072 C.2     1  UNL1        0.2361
     14 N          -7.7394  -15.6667   27.5413 N.2     1  UNL1       -0.0340
     15 C          -6.4619  -15.8902   26.7876 C.2     1  UNL1        0.3601
     16 N          -5.0897  -16.2971   27.2366 N.2     1  UNL1       -0.0342
     17 C          -4.2058  -16.3604   26.0264 C.2     1  UNL1        0.2354
     18 C          -5.0317  -15.9925   24.8295 C.2     1  UNL1        0.0799
     19 C          -6.4260  -15.7019   25.2999 C.3     1  UNL1        0.1729
     20 N          -7.5958  -14.9137   21.5905 N.1     1  UNL1       -0.1911
     21 C          -7.6317  -15.1020   23.0782 C.1     1  UNL1        0.0971
     22 N          -6.3677  -20.2810   21.2360 N.pl3   1  UNL1       -0.2127
     23 H          -6.2094  -21.2437   21.1045 H       1  UNL1        0.1738
     24 S          -7.7566  -19.7264   21.1196 S.O2    1  UNL1        0.0759
     25 O          -8.1179  -20.3558   22.4323 O.2     1  UNL1       -0.1499
     26 O          -7.3952  -19.0971   19.8069 O.2     1  UNL1       -0.1499
     27 C          -9.1454  -19.1719   21.0031 C.ar    1  UNL1        0.1547
     28 C          -9.6752  -18.2482   22.0596 C.ar    1  UNL1        0.0521
     29 C         -11.0640  -17.6936   21.9431 C.ar    1  UNL1        0.1416
     30 F         -11.5938  -16.7699   22.9997 F       1  UNL1       -0.2041
     31 C         -11.9231  -18.0626   20.7702 C.ar    1  UNL1        0.0320
     32 C         -11.3932  -18.9863   19.7137 C.ar    1  UNL1        0.0333
     33 C         -10.0044  -19.5409   19.8301 C.ar    1  UNL1        0.1590
     34 F          -9.4747  -20.4646   18.7736 F       1  UNL1       -0.2027
@<TRIPOS>BOND
     1    20    21    3
     2    21    11    1
     3    11    12    2
     4    12    13    1
     5    13    14    2
     6    14    15    1
     7    15    16    2
     8    16    17    1
     9    17    18    2
    10    18     9    1
    11     9    10    2
    12     9     1    1
    13     1     2   ar
    14     2     3    1
    15     2     4   ar
    16     4     5   ar
    17     5     6   ar
    18     6    22    1
    19    22    24    1
    20    24    25    2
    21    24    26    2
    22    24    27    1
    23    27    28   ar
    24    28    29   ar
    25    29    30    1
    26    29    31   ar
    27    31    32   ar
    28    32    33   ar
    29    33    34    1
    30     6     7   ar
    31     7     8    1
    32    18    19    1
    33    19    11    1
    34    19    15    1
    35     7     1   ar
    36    33    27   ar
    37    22    23    1
@<TRIPOS>MOLECULE
*****
 34 37 0 0 0
SMALL
GASTEIGER

@<TRIPOS>ATOM
      1 C           6.1087   -1.8363   32.5844 C.ar    1  UNL1        0.0949
      2 C           6.7858   -0.6596   31.9464 C.ar    1  UNL1        0.1454
      3 F           6.2150    0.7171   32.1165 F       1  UNL1       -0.2040
      4 C           8.0335   -0.8596   31.1384 C.ar    1  UNL1        0.0312
      5 C           8.6043   -2.2363   30.9683 C.ar    1  UNL1        0.0204
      6 C           7.9273   -3.4130   31.6063 C.ar    1  UNL1        0.0924
      7 C           6.6795   -3.2130   32.4143 C.ar    1  UNL1        0.1598
      8 F           6.0025   -4.3897   33.0524 F       1  UNL1       -0.2026
      9 C           4.8609   -1.6363   33.3926 C.2     1  UNL1        0.2006
     10 O           3.6760   -2.5301   33.1760 O.2     1  UNL1       -0.2866
     11 C           3.0096    1.1976   33.2840 C.2     1  UNL1        0.0659
     12 C           2.3023    2.5064   33.4754 C.2     1  UNL1        0.0573
     13 C           2.5477    3.3176   34.7131 C.2     1  UNL1        0.2361
     14 N           3.5005    2.8200   35.7593 N.2     1  UNL1       -0.0340
     15 C           4.2078    1.5112   35.5678 C.2     1  UNL1        0.3601
     16 N           5.1953    0.7700   36.4196 N.2     1  UNL1       -0.0342
     17 C           5.5601   -0.4993   35.7085 C.2     1  UNL1        0.2354
     18 C           4.7981   -0.5425   34.4171 C.2     1  UNL1        0.0799
     19 C           3.9624    0.7000   34.3302 C.3     1  UNL1        0.1729
     20 N           2.5187   -0.4248   30.8088 N.1     1  UNL1       -0.1911
     21 C           2.7642    0.3864   32.0464 C.1     1  UNL1        0.0971
     22 N           8.4981   -4.7897   31.4362 N.pl3   1  UNL1       -0.2127
     23 H           9.0399   -5.1901   32.1540 H       1  UNL1        0.1738
     24 S           8.2433   -5.5564   30.1723 S.O2    1  UNL1        0.0759
     25 O           9.5344   -5.0473   29.6033 O.2     1  UNL1       -0.1499
     26 O           6.9521   -6.0654   30.7414 O.2     1  UNL1       -0.1499
     27 C           7.9884   -6.3230   28.9085 C.ar    1  UNL1        0.1547
     28 C           8.6568   -7.6475   28.6870 C.ar    1  UNL1        0.0521
     29 C           8.4020   -8.4142   27.4232 C.ar    1  UNL1        0.1416
     30 F           9.0704   -9.7387   27.2018 F       1  UNL1       -0.2041
     31 C           7.4787   -7.8565   26.3809 C.ar    1  UNL1        0.0320
     32 C           6.8103   -6.5321   26.6024 C.ar    1  UNL1        0.0333
     33 C           7.0651   -5.7653   27.8662 C.ar    1  UNL1        0.1590
     34 F           6.3967   -4.4409   28.0876 F       1  UNL1       -0.2027
@<TRIPOS>BOND
     1    20    21    3
     2    21    11    1
     3    11    12    2
     4    12    13    1
     5    13    14    2
     6    14    15    1
     7    15    16    2
     8    16    17    1
     9    17    18    2
    10    18     9    1
    11     9    10    2
    12     9     1    1
    13     1     2   ar
    14     2     3    1
    15     2     4   ar
    16     4     5   ar
    17     5     6   ar
    18     6    22    1
    19    22    24    1
    20    24    25    2
    21    24    26    2
    22    24    27    1
    23    27    28   ar
    24    28    29   ar
    25    29    30    1
    26    29    31   ar
    27    31    32   ar
    28    32    33   ar
    29    33    34    1
    30     6     7   ar
    31     7     8    1
    32    18    19    1
    33    19    11    1
    34    19    15    1
    35     7     1   ar
    36    33    27   ar
    37    22    23    1
