@<TRIPOS>MOLECULE
*****
 33 37 0 0 0
SMALL
GASTEIGER

@<TRIPOS>ATOM
      1 C         -11.9989   -5.6230   18.7755 C.ar    1  UNL1        0.1569
      2 N         -11.2225   -6.6205   17.9681 N.ar    1  UNL1       -0.1326
      3 N         -11.9099   -7.8310   17.4095 N.ar    1  UNL1       -0.1436
      4 C         -13.3737   -8.0440   17.6584 C.ar    1  UNL1        0.1414
      5 C         -14.1501   -7.0465   18.4659 C.ar    1  UNL1        0.1081
      6 C         -13.4627   -5.8359   19.0245 C.ar    1  UNL1        0.0736
      7 C         -14.4803   -5.0310   19.7772 C.ar    1  UNL1        0.1249
      8 N         -15.7966   -5.7441   19.6838 N.ar    1  UNL1       -0.1632
      9 N         -15.5925   -6.9897   18.8734 N.ar    1  UNL1       -0.2235
     10 C         -16.6460   -8.0010   18.5307 C.ar    1  UNL1        0.1375
     11 C         -17.3289   -7.9499   17.1961 C.ar    1  UNL1        0.1599
     12 F         -16.9584   -6.8873   16.2043 F       1  UNL1       -0.2025
     13 C         -18.3823   -8.9612   16.8534 C.ar    1  UNL1        0.0313
     14 C         -18.7528  -10.0238   17.8452 C.ar    1  UNL1        0.0047
     15 C         -18.0699  -10.0749   19.1797 C.ar    1  UNL1        0.0313
     16 C         -17.0165   -9.0636   19.5225 C.ar    1  UNL1        0.1599
     17 F         -16.3337   -9.1148   20.8570 F       1  UNL1       -0.2025
     18 N         -11.3115   -4.4124   19.3342 N.pl3   1  UNL1       -0.2958
     19 H         -10.8481   -4.4656   20.2012 H       1  UNL1        0.1537
     20 C         -12.3769   -0.7845   18.1284 C.ar    1  UNL1        0.0546
     21 C         -11.3673   -0.5374   17.0469 C.ar    1  UNL1        0.0055
     22 C         -10.3391   -1.5819   16.7278 C.ar    1  UNL1        0.0128
     23 C         -10.3204   -2.8736   17.4902 C.ar    1  UNL1        0.0711
     24 CL         -9.2923   -3.9181   17.1711 Cl      1  UNL1       -0.0810
     25 C         -11.3301   -3.1207   18.5717 C.ar    1  UNL1        0.0602
     26 C         -12.3582   -2.0762   18.8908 C.ar    1  UNL1        0.0200
     27 O         -13.0920    1.7110   18.2320 O.2     1  UNL1       -0.2701
     28 C         -13.4051    0.2600   18.4475 C.2     1  UNL1        0.2458
     29 N         -14.7463   -0.1466   18.9821 N.am    1  UNL1       -0.3025
     30 H         -14.9518   -1.0989   19.1236 H       1  UNL1        0.1497
     31 C         -15.7744    0.8979   19.3012 C.3     1  UNL1        0.0720
     32 C         -16.7140    1.5400   20.2784 C.3     1  UNL1        0.0213
     33 C         -16.6157    2.0650   18.8767 C.3     1  UNL1        0.0213
@<TRIPOS>BOND
     1    27    28    2
     2    28    29   am
     3    29    31    1
     4    31    32    1
     5    32    33    1
     6    28    20    1
     7    20    21   ar
     8    21    22   ar
     9    22    23   ar
    10    23    24    1
    11    23    25   ar
    12    25    18    1
    13    18     1    1
    14     1     2   ar
    15     2     3   ar
    16     3     4   ar
    17     4     5   ar
    18     5     6   ar
    19     6     7   ar
    20     7     8   ar
    21     8     9   ar
    22     9    10    1
    23    10    11   ar
    24    11    12    1
    25    11    13   ar
    26    13    14   ar
    27    14    15   ar
    28    15    16   ar
    29    16    17    1
    30    25    26   ar
    31    33    31    1
    32    26    20   ar
    33     6     1   ar
    34    16    10   ar
    35     9     5   ar
    36    29    30    1
    37    18    19    1
@<TRIPOS>MOLECULE
*****
 33 37 0 0 0
SMALL
GASTEIGER

@<TRIPOS>ATOM
      1 C          -0.4925    2.8421   20.1402 C.ar    1  UNL1        0.1569
      2 N           0.3331    2.5038   21.3460 N.ar    1  UNL1       -0.1326
      3 N          -0.1851    2.8107   22.7198 N.ar    1  UNL1       -0.1436
      4 C          -1.5288    3.4558   22.8878 C.ar    1  UNL1        0.1414
      5 C          -2.3543    3.7941   21.6820 C.ar    1  UNL1        0.1081
      6 C          -1.8362    3.4872   20.3082 C.ar    1  UNL1        0.0736
      7 C          -2.8672    3.9324   19.3137 C.ar    1  UNL1        0.1249
      8 N          -4.0225    4.5144   20.0730 N.ar    1  UNL1       -0.1632
      9 N          -3.7056    4.4290   21.5366 N.ar    1  UNL1       -0.2235
     10 C          -4.5854    4.8963   22.6580 C.ar    1  UNL1        0.1375
     11 C          -5.1992    3.8990   23.5953 C.ar    1  UNL1        0.1599
     12 F          -4.9332    2.4342   23.4112 F       1  UNL1       -0.2025
     13 C          -6.0790    4.3663   24.7167 C.ar    1  UNL1        0.0313
     14 C          -6.3450    5.8310   24.9009 C.ar    1  UNL1        0.0047
     15 C          -5.7312    6.8283   23.9636 C.ar    1  UNL1        0.0313
     16 C          -4.8514    6.3610   22.8422 C.ar    1  UNL1        0.1599
     17 F          -4.2376    7.3583   21.9049 F       1  UNL1       -0.2025
     18 N           0.0257    2.5352   18.7664 N.pl3   1  UNL1       -0.2958
     19 H          -0.5818    2.5686   17.9923 H       1  UNL1        0.1537
     20 C           3.3238    0.3796   18.2917 C.ar    1  UNL1        0.0546
     21 C           4.3567    1.4619   18.1830 C.ar    1  UNL1        0.0055
     22 C           3.9459    2.9020   18.2687 C.ar    1  UNL1        0.0128
     23 C           2.5022    3.2598   18.4632 C.ar    1  UNL1        0.0711
     24 CL          2.0914    4.6998   18.5489 Cl      1  UNL1       -0.0810
     25 C           1.4693    2.1774   18.5719 C.ar    1  UNL1        0.0602
     26 C           1.8802    0.7374   18.4862 C.ar    1  UNL1        0.0200
     27 O           4.5456   -1.5409   17.0391 O.2     1  UNL1       -0.2701
     28 C           3.7346   -1.0606   18.2059 C.2     1  UNL1        0.2458
     29 N           3.3345   -2.0203   19.2870 N.am    1  UNL1       -0.3025
     30 H           2.8022   -1.7050   20.0529 H       1  UNL1        0.1497
     31 C           3.7453   -3.4604   19.2012 C.3     1  UNL1        0.0720
     32 C           4.7807   -4.4994   18.8879 C.3     1  UNL1        0.0213
     33 C           3.4213   -4.9156   19.3660 C.3     1  UNL1        0.0213
@<TRIPOS>BOND
     1    27    28    2
     2    28    29   am
     3    29    31    1
     4    31    32    1
     5    32    33    1
     6    28    20    1
     7    20    21   ar
     8    21    22   ar
     9    22    23   ar
    10    23    24    1
    11    23    25   ar
    12    25    18    1
    13    18     1    1
    14     1     2   ar
    15     2     3   ar
    16     3     4   ar
    17     4     5   ar
    18     5     6   ar
    19     6     7   ar
    20     7     8   ar
    21     8     9   ar
    22     9    10    1
    23    10    11   ar
    24    11    12    1
    25    11    13   ar
    26    13    14   ar
    27    14    15   ar
    28    15    16   ar
    29    16    17    1
    30    25    26   ar
    31    33    31    1
    32    26    20   ar
    33     6     1   ar
    34    16    10   ar
    35     9     5   ar
    36    29    30    1
    37    18    19    1
@<TRIPOS>MOLECULE
*****
 33 37 0 0 0
SMALL
GASTEIGER

@<TRIPOS>ATOM
      1 C           0.9806    1.9052   22.3907 C.ar    1  UNL1        0.1569
      2 N          -0.2250    1.6279   21.5424 N.ar    1  UNL1       -0.1326
      3 N          -0.1929    0.5186   20.5333 N.ar    1  UNL1       -0.1436
      4 C           1.0448   -0.3134   20.3725 C.ar    1  UNL1        0.1414
      5 C           2.2504   -0.0362   21.2208 C.ar    1  UNL1        0.1081
      6 C           2.2183    1.0732   22.2299 C.ar    1  UNL1        0.0736
      7 C           3.5500    1.1114   22.9193 C.ar    1  UNL1        0.1249
      8 N           4.4051    0.0257   22.3363 N.ar    1  UNL1       -0.1632
      9 N           3.6019   -0.6835   21.2865 N.ar    1  UNL1       -0.2235
     10 C           4.0683   -1.8375   20.4495 C.ar    1  UNL1        0.1375
     11 C           4.3060   -3.1761   21.0833 C.ar    1  UNL1        0.1599
     12 F           4.0772   -3.3607   22.5542 F       1  UNL1       -0.2025
     13 C           4.7724   -4.3301   20.2462 C.ar    1  UNL1        0.0313
     14 C           5.0011   -4.1456   18.7753 C.ar    1  UNL1        0.0047
     15 C           4.7635   -2.8070   18.1415 C.ar    1  UNL1        0.0313
     16 C           4.2971   -1.6530   18.9786 C.ar    1  UNL1        0.1599
     17 F           4.0594   -0.3145   18.3447 F       1  UNL1       -0.2025
     18 N           0.9485    3.0146   23.3999 N.pl3   1  UNL1       -0.2958
     19 H           1.5532    3.7855   23.3034 H       1  UNL1        0.1537
     20 C          -2.3900    3.2920   25.5276 C.ar    1  UNL1        0.0546
     21 C          -1.9118    2.8190   26.8683 C.ar    1  UNL1        0.0055
     22 C          -0.4801    2.4113   27.0530 C.ar    1  UNL1        0.0128
     23 C           0.4733    2.4765   25.8968 C.ar    1  UNL1        0.0711
     24 CL          1.9050    2.0688   26.0814 Cl      1  UNL1       -0.0810
     25 C          -0.0049    2.9494   24.5560 C.ar    1  UNL1        0.0602
     26 C          -1.4366    3.3571   24.3714 C.ar    1  UNL1        0.0200
     27 O          -4.6764    3.9993   26.5387 O.2     1  UNL1       -0.2701
     28 C          -3.8217    3.6997   25.3429 C.2     1  UNL1        0.2458
     29 N          -4.3987    3.8078   23.9626 N.am    1  UNL1       -0.3025
     30 H          -3.8378    3.6111   23.1778 H       1  UNL1        0.1497
     31 C          -5.8303    4.2155   23.7780 C.3     1  UNL1        0.0720
     32 C          -7.0623    4.9007   24.2905 C.3     1  UNL1        0.0213
     33 C          -7.0781    4.2366   22.9457 C.3     1  UNL1        0.0213
@<TRIPOS>BOND
     1    27    28    2
     2    28    29   am
     3    29    31    1
     4    31    32    1
     5    32    33    1
     6    28    20    1
     7    20    21   ar
     8    21    22   ar
     9    22    23   ar
    10    23    24    1
    11    23    25   ar
    12    25    18    1
    13    18     1    1
    14     1     2   ar
    15     2     3   ar
    16     3     4   ar
    17     4     5   ar
    18     5     6   ar
    19     6     7   ar
    20     7     8   ar
    21     8     9   ar
    22     9    10    1
    23    10    11   ar
    24    11    12    1
    25    11    13   ar
    26    13    14   ar
    27    14    15   ar
    28    15    16   ar
    29    16    17    1
    30    25    26   ar
    31    33    31    1
    32    26    20   ar
    33     6     1   ar
    34    16    10   ar
    35     9     5   ar
    36    29    30    1
    37    18    19    1
@<TRIPOS>MOLECULE
*****
 33 37 0 0 0
SMALL
GASTEIGER

@<TRIPOS>ATOM
      1 C           0.9275    1.8228   22.4602 C.ar    1  UNL1        0.1569
      2 N          -0.2496    1.5959   21.5586 N.ar    1  UNL1       -0.1326
      3 N          -0.1904    0.5340   20.5008 N.ar    1  UNL1       -0.1436
      4 C           1.0459   -0.3009   20.3446 C.ar    1  UNL1        0.1414
      5 C           2.2230   -0.0741   21.2463 C.ar    1  UNL1        0.1081
      6 C           2.1638    0.9878   22.3040 C.ar    1  UNL1        0.0736
      7 C           3.4707    0.9820   23.0403 C.ar    1  UNL1        0.1249
      8 N           4.3376   -0.0834   22.4375 N.ar    1  UNL1       -0.1632
      9 N           3.5664   -0.7361   21.3287 N.ar    1  UNL1       -0.2235
     10 C           4.0533   -1.8545   20.4557 C.ar    1  UNL1        0.1375
     11 C           4.2889   -1.6165   18.9936 C.ar    1  UNL1        0.1599
     12 F           4.0376   -0.2601   18.4044 F       1  UNL1       -0.2025
     13 C           4.7757   -2.7349   18.1206 C.ar    1  UNL1        0.0313
     14 C           5.0270   -4.0913   18.7097 C.ar    1  UNL1        0.0047
     15 C           4.7915   -4.3292   20.1718 C.ar    1  UNL1        0.0313
     16 C           4.3046   -3.2109   21.0448 C.ar    1  UNL1        0.1599
     17 F           4.0691   -3.4489   22.5069 F       1  UNL1       -0.2025
     18 N           0.8683    2.8846   23.5180 N.pl3   1  UNL1       -0.2958
     19 H           1.2828    3.7631   23.3574 H       1  UNL1        0.1537
     20 C           0.1612    1.4898   27.1655 C.ar    1  UNL1        0.0546
     21 C          -1.2037    2.0549   27.4255 C.ar    1  UNL1        0.0055
     22 C          -1.8780    2.8967   26.3830 C.ar    1  UNL1        0.0128
     23 C          -1.1873    3.1733   25.0805 C.ar    1  UNL1        0.0711
     24 CL         -1.8615    4.0150   24.0380 Cl      1  UNL1       -0.0810
     25 C           0.1776    2.6081   24.8205 C.ar    1  UNL1        0.0602
     26 C           0.8518    1.7663   25.8630 C.ar    1  UNL1        0.0200
     27 O           0.0578   -0.4059   28.9392 O.2     1  UNL1       -0.2701
     28 C           0.8354    0.6480   28.2081 C.2     1  UNL1        0.2458
     29 N           2.2873    0.8601   28.5194 N.am    1  UNL1       -0.3025
     30 H           2.7977    1.5518   28.0396 H       1  UNL1        0.1497
     31 C           2.9615    0.0183   29.5619 C.3     1  UNL1        0.0720
     32 C           2.9203   -0.6986   30.8788 C.3     1  UNL1        0.0213
     33 C           4.1706   -0.7228   30.0506 C.3     1  UNL1        0.0213
@<TRIPOS>BOND
     1    27    28    2
     2    28    29   am
     3    29    31    1
     4    31    32    1
     5    32    33    1
     6    28    20    1
     7    20    21   ar
     8    21    22   ar
     9    22    23   ar
    10    23    24    1
    11    23    25   ar
    12    25    18    1
    13    18     1    1
    14     1     2   ar
    15     2     3   ar
    16     3     4   ar
    17     4     5   ar
    18     5     6   ar
    19     6     7   ar
    20     7     8   ar
    21     8     9   ar
    22     9    10    1
    23    10    11   ar
    24    11    12    1
    25    11    13   ar
    26    13    14   ar
    27    14    15   ar
    28    15    16   ar
    29    16    17    1
    30    25    26   ar
    31    33    31    1
    32    26    20   ar
    33     6     1   ar
    34    16    10   ar
    35     9     5   ar
    36    29    30    1
    37    18    19    1
@<TRIPOS>MOLECULE
*****
 33 37 0 0 0
SMALL
GASTEIGER

@<TRIPOS>ATOM
      1 C           1.6445    1.3964   23.7873 C.ar    1  UNL1        0.1569
      2 N           0.4427    1.5588   22.9046 N.ar    1  UNL1       -0.1326
      3 N           0.3629    0.8185   21.6025 N.ar    1  UNL1       -0.1436
      4 C           1.4851   -0.0843   21.1831 C.ar    1  UNL1        0.1414
      5 C           2.6869   -0.2467   22.0657 C.ar    1  UNL1        0.1081
      6 C           2.7666    0.4936   23.3679 C.ar    1  UNL1        0.0736
      7 C           4.0674    0.1375   24.0247 C.ar    1  UNL1        0.1249
      8 N           4.7915   -0.8229   23.1284 N.ar    1  UNL1       -0.1632
      9 N           3.9383   -1.0603   21.9178 N.ar    1  UNL1       -0.2235
     10 C           4.2771   -1.9545   20.7620 C.ar    1  UNL1        0.1375
     11 C           4.3943   -3.4355   20.9687 C.ar    1  UNL1        0.1599
     12 F           4.1728   -4.0225   22.3312 F       1  UNL1       -0.2025
     13 C           4.7331   -4.3296   19.8129 C.ar    1  UNL1        0.0313
     14 C           4.9546   -3.7427   18.4504 C.ar    1  UNL1        0.0047
     15 C           4.8374   -2.2617   18.2437 C.ar    1  UNL1        0.0313
     16 C           4.4986   -1.3675   19.3995 C.ar    1  UNL1        0.1599
     17 F           4.3814    0.1135   19.1927 F       1  UNL1       -0.2025
     18 N           1.7243    2.1367   25.0895 N.pl3   1  UNL1       -0.2958
     19 H           2.0362    3.0703   25.1066 H       1  UNL1        0.1537
     20 C           1.9755    0.1065   28.4902 C.ar    1  UNL1        0.0546
     21 C           0.5378    0.0901   28.9175 C.ar    1  UNL1        0.0055
     22 C          -0.5046    0.7560   28.0688 C.ar    1  UNL1        0.0128
     23 C          -0.1090    1.4382   26.7928 C.ar    1  UNL1        0.0711
     24 CL         -1.1513    2.1040   25.9440 Cl      1  UNL1       -0.0810
     25 C           1.3288    1.4545   26.3655 C.ar    1  UNL1        0.0602
     26 C           2.3710    0.7887   27.2142 C.ar    1  UNL1        0.0200
     27 O           4.2275   -1.1723   28.6980 O.2     1  UNL1       -0.2701
     28 C           3.0178   -0.5594   29.3390 C.2     1  UNL1        0.2458
     29 N           2.8503   -0.6124   30.8286 N.am    1  UNL1       -0.3025
     30 H           2.0563   -0.2101   31.2493 H       1  UNL1        0.1497
     31 C           3.8926   -1.2782   31.6773 C.3     1  UNL1        0.0720
     32 C           5.3329   -1.4877   32.0400 C.3     1  UNL1        0.0213
     33 C           4.2576   -2.2220   32.7845 C.3     1  UNL1        0.0213
@<TRIPOS>BOND
     1    27    28    2
     2    28    29   am
     3    29    31    1
     4    31    32    1
     5    32    33    1
     6    28    20    1
     7    20    21   ar
     8    21    22   ar
     9    22    23   ar
    10    23    24    1
    11    23    25   ar
    12    25    18    1
    13    18     1    1
    14     1     2   ar
    15     2     3   ar
    16     3     4   ar
    17     4     5   ar
    18     5     6   ar
    19     6     7   ar
    20     7     8   ar
    21     8     9   ar
    22     9    10    1
    23    10    11   ar
    24    11    12    1
    25    11    13   ar
    26    13    14   ar
    27    14    15   ar
    28    15    16   ar
    29    16    17    1
    30    25    26   ar
    31    33    31    1
    32    26    20   ar
    33     6     1   ar
    34    16    10   ar
    35     9     5   ar
    36    29    30    1
    37    18    19    1
@<TRIPOS>MOLECULE
*****
 33 37 0 0 0
SMALL
GASTEIGER

@<TRIPOS>ATOM
      1 C         -12.7242   -2.7452   19.3583 C.ar    1  UNL1        0.1569
      2 N         -13.7711   -2.8731   20.4249 N.ar    1  UNL1       -0.1326
      3 N         -14.9572   -1.9549   20.4255 N.ar    1  UNL1       -0.1436
      4 C         -15.0964   -0.9088   19.3595 C.ar    1  UNL1        0.1414
      5 C         -14.0495   -0.7810   18.2929 C.ar    1  UNL1        0.1081
      6 C         -12.8635   -1.6992   18.2922 C.ar    1  UNL1        0.0736
      7 C         -11.9985   -1.3384   17.1210 C.ar    1  UNL1        0.1249
      8 N         -12.6500   -0.1972   16.3978 N.ar    1  UNL1       -0.1632
      9 N         -13.9176    0.1473   17.1220 N.ar    1  UNL1       -0.2235
     10 C         -14.8838    1.2301   16.7422 C.ar    1  UNL1        0.1375
     11 C         -14.4420    2.6635   16.7424 C.ar    1  UNL1        0.1599
     12 F         -13.0339    3.0143   17.1226 F       1  UNL1       -0.2025
     13 C         -15.4081    3.7462   16.3625 C.ar    1  UNL1        0.0313
     14 C         -16.8161    3.3955   15.9824 C.ar    1  UNL1        0.0047
     15 C         -17.2579    1.9621   15.9821 C.ar    1  UNL1        0.0313
     16 C         -16.2918    0.8794   16.3620 C.ar    1  UNL1        0.1599
     17 F         -16.7337   -0.5541   16.3617 F       1  UNL1       -0.2025
     18 N         -11.5381   -3.6635   19.3576 N.pl3   1  UNL1       -0.2958
     19 H         -10.6878   -3.3695   19.7573 H       1  UNL1        0.1537
     20 C         -13.0235   -7.1852   18.2895 C.ar    1  UNL1        0.0546
     21 C         -11.8666   -7.7620   17.5287 C.ar    1  UNL1        0.0055
     22 C         -10.6000   -6.9725   17.3775 C.ar    1  UNL1        0.0128
     23 C         -10.4905   -5.6064   17.9872 C.ar    1  UNL1        0.0711
     24 CL         -9.2241   -4.8169   17.8360 Cl      1  UNL1       -0.0810
     25 C         -11.6476   -5.0296   18.7480 C.ar    1  UNL1        0.0602
     26 C         -12.9140   -5.8191   18.8991 C.ar    1  UNL1        0.0200
     27 O         -14.6386   -9.0329   17.4364 O.2     1  UNL1       -0.2701
     28 C         -14.2900   -7.9747   18.4407 C.2     1  UNL1        0.2458
     29 N         -15.2079   -7.7059   19.5962 N.am    1  UNL1       -0.3025
     30 H         -14.9791   -7.0114   20.2554 H       1  UNL1        0.1497
     31 C         -16.4744   -8.4953   19.7473 C.3     1  UNL1        0.0720
     32 C         -17.2038   -9.8046   19.6882 C.3     1  UNL1        0.0213
     33 C         -17.9385   -8.5533   20.0682 C.3     1  UNL1        0.0213
@<TRIPOS>BOND
     1    27    28    2
     2    28    29   am
     3    29    31    1
     4    31    32    1
     5    32    33    1
     6    28    20    1
     7    20    21   ar
     8    21    22   ar
     9    22    23   ar
    10    23    24    1
    11    23    25   ar
    12    25    18    1
    13    18     1    1
    14     1     2   ar
    15     2     3   ar
    16     3     4   ar
    17     4     5   ar
    18     5     6   ar
    19     6     7   ar
    20     7     8   ar
    21     8     9   ar
    22     9    10    1
    23    10    11   ar
    24    11    12    1
    25    11    13   ar
    26    13    14   ar
    27    14    15   ar
    28    15    16   ar
    29    16    17    1
    30    25    26   ar
    31    33    31    1
    32    26    20   ar
    33     6     1   ar
    34    16    10   ar
    35     9     5   ar
    36    29    30    1
    37    18    19    1
@<TRIPOS>MOLECULE
*****
 33 37 0 0 0
SMALL
GASTEIGER

@<TRIPOS>ATOM
      1 C           0.0759    2.5511   19.6805 C.ar    1  UNL1        0.1569
      2 N          -0.7249    1.5762   20.4919 N.ar    1  UNL1       -0.1326
      3 N          -0.1565    0.2270   20.8181 N.ar    1  UNL1       -0.1436
      4 C           1.2126   -0.1475   20.3329 C.ar    1  UNL1        0.1414
      5 C           2.0133    0.8274   19.5215 C.ar    1  UNL1        0.1081
      6 C           1.4450    2.1767   19.1953 C.ar    1  UNL1        0.0736
      7 C           2.4608    2.9234   18.3825 C.ar    1  UNL1        0.1249
      8 N           3.6569    2.0356   18.2064 N.ar    1  UNL1       -0.1632
      9 N           3.3803    0.7402   18.9103 N.ar    1  UNL1       -0.2235
     10 C           4.3080   -0.4359   18.9892 C.ar    1  UNL1        0.1375
     11 C           4.5556   -1.2787   17.7734 C.ar    1  UNL1        0.1599
     12 F           3.8756   -0.9455   16.4785 F       1  UNL1       -0.2025
     13 C           5.4832   -2.4549   17.8523 C.ar    1  UNL1        0.0313
     14 C           6.1633   -2.7882   19.1471 C.ar    1  UNL1        0.0047
     15 C           5.9156   -1.9454   20.3629 C.ar    1  UNL1        0.0313
     16 C           4.9880   -0.7693   20.2840 C.ar    1  UNL1        0.1599
     17 F           4.7404    0.0735   21.4999 F       1  UNL1       -0.2025
     18 N          -0.4924    3.9004   19.3543 N.pl3   1  UNL1       -0.2958
     19 H           0.0721    4.7035   19.4291 H       1  UNL1        0.1537
     20 C          -4.4402    4.2816   19.4950 C.ar    1  UNL1        0.0546
     21 C          -4.7777    4.2774   18.0335 C.ar    1  UNL1        0.0055
     22 C          -3.6867    4.1476   17.0121 C.ar    1  UNL1        0.0128
     23 C          -2.2583    4.0219   17.4524 C.ar    1  UNL1        0.0711
     24 CL         -1.1674    3.8921   16.4312 Cl      1  UNL1       -0.0810
     25 C          -1.9209    4.0261   18.9140 C.ar    1  UNL1        0.0602
     26 C          -3.0118    4.1559   19.9352 C.ar    1  UNL1        0.0200
     27 O          -6.9375    4.6964   20.0793 O.2     1  UNL1       -0.2701
     28 C          -5.5312    4.4114   20.5163 C.2     1  UNL1        0.2458
     29 N          -5.2157    4.2563   21.9745 N.am    1  UNL1       -0.3025
     30 H          -4.2927    4.0692   22.2613 H       1  UNL1        0.1497
     31 C          -6.3067    4.3861   22.9957 C.3     1  UNL1        0.0720
     32 C          -6.7447    4.6967   24.3963 C.3     1  UNL1        0.0213
     33 C          -7.7582    4.3003   23.3640 C.3     1  UNL1        0.0213
@<TRIPOS>BOND
     1    27    28    2
     2    28    29   am
     3    29    31    1
     4    31    32    1
     5    32    33    1
     6    28    20    1
     7    20    21   ar
     8    21    22   ar
     9    22    23   ar
    10    23    24    1
    11    23    25   ar
    12    25    18    1
    13    18     1    1
    14     1     2   ar
    15     2     3   ar
    16     3     4   ar
    17     4     5   ar
    18     5     6   ar
    19     6     7   ar
    20     7     8   ar
    21     8     9   ar
    22     9    10    1
    23    10    11   ar
    24    11    12    1
    25    11    13   ar
    26    13    14   ar
    27    14    15   ar
    28    15    16   ar
    29    16    17    1
    30    25    26   ar
    31    33    31    1
    32    26    20   ar
    33     6     1   ar
    34    16    10   ar
    35     9     5   ar
    36    29    30    1
    37    18    19    1
@<TRIPOS>MOLECULE
*****
 33 37 0 0 0
SMALL
GASTEIGER

@<TRIPOS>ATOM
      1 C           7.0106   -2.5730   27.9753 C.ar    1  UNL1        0.1569
      2 N           7.2399   -4.0396   28.1906 N.ar    1  UNL1       -0.1326
      3 N           7.1235   -4.9939   27.0392 N.ar    1  UNL1       -0.1436
      4 C           6.7778   -4.4815   25.6724 C.ar    1  UNL1        0.1414
      5 C           6.5485   -3.0149   25.4571 C.ar    1  UNL1        0.1081
      6 C           6.6649   -2.0607   26.6086 C.ar    1  UNL1        0.0736
      7 C           6.3851   -0.6790   26.0957 C.ar    1  UNL1        0.1249
      8 N           6.0958   -0.7795   24.6273 N.ar    1  UNL1       -0.1632
      9 N           6.1968   -2.2231   24.2327 N.ar    1  UNL1       -0.2235
     10 C           5.9835   -2.7776   22.8553 C.ar    1  UNL1        0.1375
     11 C           7.1215   -3.4242   22.1226 C.ar    1  UNL1        0.1599
     12 F           8.4728   -3.5163   22.7672 F       1  UNL1       -0.2025
     13 C           6.9082   -3.9787   20.7453 C.ar    1  UNL1        0.0313
     14 C           5.5569   -3.8866   20.1006 C.ar    1  UNL1        0.0047
     15 C           4.4190   -3.2400   20.8334 C.ar    1  UNL1        0.0313
     16 C           4.6322   -2.6855   22.2107 C.ar    1  UNL1        0.1599
     17 F           3.4942   -2.0389   22.9433 F       1  UNL1       -0.2025
     18 N           7.1269   -1.6187   29.1268 N.pl3   1  UNL1       -0.2958
     19 H           7.9240   -1.0475   29.2141 H       1  UNL1        0.1537
     20 C           3.6083   -0.8476   30.7925 C.ar    1  UNL1        0.0546
     21 C           3.8325   -1.3666   32.1818 C.ar    1  UNL1        0.0055
     22 C           5.1549   -1.9697   32.5528 C.ar    1  UNL1        0.0128
     23 C           6.2530   -2.0537   31.5345 C.ar    1  UNL1        0.0711
     24 CL          7.5754   -2.6568   31.9055 Cl      1  UNL1       -0.0810
     25 C           6.0288   -1.5347   30.1451 C.ar    1  UNL1        0.0602
     26 C           4.7064   -0.9316   29.7741 C.ar    1  UNL1        0.0200
     27 O           1.7029    0.8566   31.2568 O.2     1  UNL1       -0.2701
     28 C           2.2859   -0.2444   30.4214 C.2     1  UNL1        0.2458
     29 N           1.5465   -0.7424   29.2151 N.am    1  UNL1       -0.3025
     30 H           1.9291   -1.4651   28.6668 H       1  UNL1        0.1497
     31 C           0.2242   -0.1393   28.8441 C.3     1  UNL1        0.0720
     32 C          -0.5669    0.9443   28.1735 C.3     1  UNL1        0.0213
     33 C          -1.2750   -0.1784   28.8721 C.3     1  UNL1        0.0213
@<TRIPOS>BOND
     1    27    28    2
     2    28    29   am
     3    29    31    1
     4    31    32    1
     5    32    33    1
     6    28    20    1
     7    20    21   ar
     8    21    22   ar
     9    22    23   ar
    10    23    24    1
    11    23    25   ar
    12    25    18    1
    13    18     1    1
    14     1     2   ar
    15     2     3   ar
    16     3     4   ar
    17     4     5   ar
    18     5     6   ar
    19     6     7   ar
    20     7     8   ar
    21     8     9   ar
    22     9    10    1
    23    10    11   ar
    24    11    12    1
    25    11    13   ar
    26    13    14   ar
    27    14    15   ar
    28    15    16   ar
    29    16    17    1
    30    25    26   ar
    31    33    31    1
    32    26    20   ar
    33     6     1   ar
    34    16    10   ar
    35     9     5   ar
    36    29    30    1
    37    18    19    1
@<TRIPOS>MOLECULE
*****
 33 37 0 0 0
SMALL
GASTEIGER

@<TRIPOS>ATOM
      1 C          -6.8973  -19.5855   20.0595 C.ar    1  UNL1        0.1569
      2 N          -7.6009  -19.5721   18.7349 N.ar    1  UNL1       -0.1326
      3 N          -9.0595  -19.2295   18.6639 N.ar    1  UNL1       -0.1436
      4 C          -9.8145  -18.9002   19.9175 C.ar    1  UNL1        0.1414
      5 C          -9.1109  -18.9136   21.2422 C.ar    1  UNL1        0.1081
      6 C          -7.6523  -19.2562   21.3132 C.ar    1  UNL1        0.0736
      7 C          -7.2297  -19.1887   22.7509 C.ar    1  UNL1        0.1249
      8 N          -8.4271  -18.8043   23.5684 N.ar    1  UNL1       -0.1632
      9 N          -9.5898  -18.6343   22.6359 N.ar    1  UNL1       -0.2235
     10 C         -10.9862  -18.2521   23.0284 C.ar    1  UNL1        0.1375
     11 C         -11.7042  -19.0260   24.0939 C.ar    1  UNL1        0.1599
     12 F         -11.0259  -20.1822   24.7671 F       1  UNL1       -0.2025
     13 C         -13.1006  -18.6438   24.4863 C.ar    1  UNL1        0.0313
     14 C         -13.7790  -17.4877   23.8132 C.ar    1  UNL1        0.0047
     15 C         -13.0609  -16.7138   22.7477 C.ar    1  UNL1        0.0313
     16 C         -11.6645  -17.0960   22.3552 C.ar    1  UNL1        0.1599
     17 F         -10.9465  -16.3220   21.2897 F       1  UNL1       -0.2025
     18 N          -5.4386  -19.9281   20.1306 N.pl3   1  UNL1       -0.2958
     19 H          -5.0981  -20.7291   19.6704 H       1  UNL1        0.1537
     20 C          -3.9538  -17.6577   23.0273 C.ar    1  UNL1        0.0546
     21 C          -2.6192  -17.2947   22.4470 C.ar    1  UNL1        0.0055
     22 C          -2.2242  -17.8095   21.0945 C.ar    1  UNL1        0.0128
     23 C          -3.1640  -18.6873   20.3224 C.ar    1  UNL1        0.0711
     24 CL         -2.7692  -19.2021   18.9700 Cl      1  UNL1       -0.0810
     25 C          -4.4988  -19.0503   20.9027 C.ar    1  UNL1        0.0602
     26 C          -4.8937  -18.5355   22.2551 C.ar    1  UNL1        0.0200
     27 O          -3.6904  -17.6895   25.6118 O.2     1  UNL1       -0.2701
     28 C          -4.3488  -17.1430   24.3797 C.2     1  UNL1        0.2458
     29 N          -5.4020  -16.0818   24.5001 N.am    1  UNL1       -0.3025
     30 H          -5.8341  -15.7231   23.6915 H       1  UNL1        0.1497
     31 C          -5.7969  -15.5671   25.8525 C.3     1  UNL1        0.0720
     32 C          -5.7383  -14.4988   26.9038 C.3     1  UNL1        0.0213
     33 C          -6.5395  -15.7439   27.1438 C.3     1  UNL1        0.0213
@<TRIPOS>BOND
     1    27    28    2
     2    28    29   am
     3    29    31    1
     4    31    32    1
     5    32    33    1
     6    28    20    1
     7    20    21   ar
     8    21    22   ar
     9    22    23   ar
    10    23    24    1
    11    23    25   ar
    12    25    18    1
    13    18     1    1
    14     1     2   ar
    15     2     3   ar
    16     3     4   ar
    17     4     5   ar
    18     5     6   ar
    19     6     7   ar
    20     7     8   ar
    21     8     9   ar
    22     9    10    1
    23    10    11   ar
    24    11    12    1
    25    11    13   ar
    26    13    14   ar
    27    14    15   ar
    28    15    16   ar
    29    16    17    1
    30    25    26   ar
    31    33    31    1
    32    26    20   ar
    33     6     1   ar
    34    16    10   ar
    35     9     5   ar
    36    29    30    1
    37    18    19    1
