@<TRIPOS>MOLECULE
*****
 18 20 0 0 0
SMALL
GASTEIGER

@<TRIPOS>ATOM
      1 C         -11.1264  -15.5442   19.2270 C.3     1  UNL1        0.0896
      2 N         -11.3723  -16.3082   20.4942 N.3     1  UNL1       -0.2712
      3 C         -12.6952  -16.4729   21.1819 C.3     1  UNL1        0.0725
      4 C         -12.4789  -17.3082   22.4089 C.3     1  UNL1        0.0210
      5 C         -13.4201  -17.7941   23.4710 C.3     1  UNL1        0.0017
      6 C         -12.9048  -18.6316   24.6037 C.3     1  UNL1        0.0001
      7 C         -11.4483  -18.9832   24.6743 C.3     1  UNL1        0.0004
      8 C         -10.5071  -18.4973   23.6122 C.3     1  UNL1        0.0054
      9 C         -11.0224  -17.6598   22.4795 C.3     1  UNL1        0.0349
     10 C         -10.3385  -17.0418   21.2962 C.3     1  UNL1        0.0762
     11 C          -9.5482  -17.9296   22.4173 C.ar    1  UNL1       -0.0206
     12 C          -9.0393  -19.1594   21.7255 C.ar    1  UNL1       -0.0033
     13 C          -7.5652  -19.4292   21.6632 C.ar    1  UNL1        0.0119
     14 C          -6.5998  -18.4692   22.2928 C.ar    1  UNL1        0.0682
     15 CL         -5.1256  -18.7390   22.2306 Cl      1  UNL1       -0.0814
     16 C          -7.1086  -17.2395   22.9847 C.ar    1  UNL1        0.0679
     17 CL         -6.1432  -16.2794   23.6143 Cl      1  UNL1       -0.0814
     18 C          -8.5828  -16.9696   23.0469 C.ar    1  UNL1        0.0080
@<TRIPOS>BOND
     1     1     2    1
     2     2     3    1
     3     4     3    1
     4     4     5    1
     5     5     6    1
     6     6     7    1
     7     7     8    1
     8     8     9    1
     9     9    11    1
    10    11    12   ar
    11    12    13   ar
    12    13    14   ar
    13    14    15    1
    14    14    16   ar
    15    16    17    1
    16    16    18   ar
    17     9    10    1
    18    10     2    1
    19     9     4    1
    20    18    11   ar
@<TRIPOS>MOLECULE
*****
 18 20 0 0 0
SMALL
GASTEIGER

@<TRIPOS>ATOM
      1 C          -6.8503  -19.7159   20.9092 C.3     1  UNL1        0.0896
      2 N          -8.1132  -18.9408   21.1422 N.3     1  UNL1       -0.2712
      3 C          -9.3707  -19.0393   20.3305 C.3     1  UNL1        0.0725
      4 C         -10.3750  -18.0904   20.9145 C.3     1  UNL1        0.0210
      5 C         -11.7871  -17.7616   20.5300 C.3     1  UNL1        0.0017
      6 C         -12.5623  -16.7478   21.3181 C.3     1  UNL1        0.0001
      7 C         -11.9254  -16.0628   22.4908 C.3     1  UNL1        0.0004
      8 C         -10.5134  -16.3916   22.8753 C.3     1  UNL1        0.0054
      9 C          -9.7381  -17.4054   22.0872 C.3     1  UNL1        0.0349
     10 C          -8.3403  -17.9310   22.2279 C.3     1  UNL1        0.0762
     11 C          -8.9728  -16.8052   23.2291 C.ar    1  UNL1       -0.0206
     12 C          -7.9261  -15.7636   22.9653 C.ar    1  UNL1       -0.0033
     13 C          -7.1608  -15.1634   24.1071 C.ar    1  UNL1        0.0119
     14 C          -7.4420  -15.6047   25.5128 C.ar    1  UNL1        0.0682
     15 CL         -6.6766  -15.0045   26.6547 Cl      1  UNL1       -0.0814
     16 C          -8.4886  -16.6463   25.7767 C.ar    1  UNL1        0.0679
     17 CL         -8.7700  -17.0876   27.1825 Cl      1  UNL1       -0.0814
     18 C          -9.2540  -17.2465   24.6348 C.ar    1  UNL1        0.0080
@<TRIPOS>BOND
     1     1     2    1
     2     2     3    1
     3     4     3    1
     4     4     5    1
     5     5     6    1
     6     6     7    1
     7     7     8    1
     8     8     9    1
     9     9    11    1
    10    11    12   ar
    11    12    13   ar
    12    13    14   ar
    13    14    15    1
    14    14    16   ar
    15    16    17    1
    16    16    18   ar
    17     9    10    1
    18    10     2    1
    19     9     4    1
    20    18    11   ar
@<TRIPOS>MOLECULE
*****
 18 20 0 0 0
SMALL
GASTEIGER

@<TRIPOS>ATOM
      1 C          -6.7329  -20.0130   21.3514 C.3     1  UNL1        0.0896
      2 N          -8.0065  -19.2223   21.4047 N.3     1  UNL1       -0.2712
      3 C          -9.0506  -19.1589   20.3297 C.3     1  UNL1        0.0725
      4 C         -10.1490  -18.2536   20.8030 C.3     1  UNL1        0.0210
      5 C         -11.4346  -17.8169   20.1654 C.3     1  UNL1        0.0017
      6 C         -12.3548  -16.8842   20.8955 C.3     1  UNL1        0.0001
      7 C         -11.9896  -16.3881   22.2631 C.3     1  UNL1        0.0004
      8 C         -10.7040  -16.8248   22.9008 C.3     1  UNL1        0.0054
      9 C          -9.7837  -17.7576   22.1707 C.3     1  UNL1        0.0349
     10 C          -8.4596  -18.3563   22.5426 C.3     1  UNL1        0.0762
     11 C          -9.2873  -17.3469   23.5253 C.ar    1  UNL1       -0.0206
     12 C          -9.8299  -18.0110   24.7560 C.ar    1  UNL1       -0.0033
     13 C          -9.3335  -17.6003   26.1105 C.ar    1  UNL1        0.0119
     14 C          -8.2945  -16.5255   26.2345 C.ar    1  UNL1        0.0682
     15 CL         -7.7981  -16.1149   27.5891 Cl      1  UNL1       -0.0814
     16 C          -7.7519  -15.8614   25.0039 C.ar    1  UNL1        0.0679
     17 CL         -6.7129  -14.7866   25.1278 Cl      1  UNL1       -0.0814
     18 C          -8.2483  -16.2721   23.6492 C.ar    1  UNL1        0.0080
@<TRIPOS>BOND
     1     1     2    1
     2     2     3    1
     3     4     3    1
     4     4     5    1
     5     5     6    1
     6     6     7    1
     7     7     8    1
     8     8     9    1
     9     9    11    1
    10    11    12   ar
    11    12    13   ar
    12    13    14   ar
    13    14    15    1
    14    14    16   ar
    15    16    17    1
    16    16    18   ar
    17     9    10    1
    18    10     2    1
    19     9     4    1
    20    18    11   ar
@<TRIPOS>MOLECULE
*****
 18 20 0 0 0
SMALL
GASTEIGER

@<TRIPOS>ATOM
      1 C         -10.0060  -14.7241   20.1259 C.3     1  UNL1        0.0896
      2 N         -10.0537  -15.9960   20.9197 N.3     1  UNL1       -0.2712
      3 C         -10.9005  -17.1955   20.6130 C.3     1  UNL1        0.0725
      4 C         -10.6332  -18.2325   21.6633 C.3     1  UNL1        0.0210
      5 C         -11.1806  -19.6132   21.8728 C.3     1  UNL1        0.0017
      6 C         -10.7159  -20.4353   23.0382 C.3     1  UNL1        0.0001
      7 C          -9.7040  -19.8767   23.9941 C.3     1  UNL1        0.0004
      8 C          -9.1566  -18.4959   23.7847 C.3     1  UNL1        0.0054
      9 C          -9.6212  -17.6738   22.6192 C.3     1  UNL1        0.0349
     10 C          -9.2631  -16.2916   22.1597 C.3     1  UNL1        0.0762
     11 C          -8.6098  -16.9853   23.4870 C.ar    1  UNL1       -0.0206
     12 C          -7.1953  -16.8309   23.0123 C.ar    1  UNL1       -0.0033
     13 C          -6.1839  -16.1424   23.8799 C.ar    1  UNL1        0.0119
     14 C          -6.5870  -15.6083   25.2224 C.ar    1  UNL1        0.0682
     15 CL         -5.5756  -14.9197   26.0901 Cl      1  UNL1       -0.0814
     16 C          -8.0014  -15.7626   25.6972 C.ar    1  UNL1        0.0679
     17 CL         -8.4045  -15.2284   27.0397 Cl      1  UNL1       -0.0814
     18 C          -9.0129  -16.4511   24.8294 C.ar    1  UNL1        0.0080
@<TRIPOS>BOND
     1     1     2    1
     2     2     3    1
     3     4     3    1
     4     4     5    1
     5     5     6    1
     6     6     7    1
     7     7     8    1
     8     8     9    1
     9     9    11    1
    10    11    12   ar
    11    12    13   ar
    12    13    14   ar
    13    14    15    1
    14    14    16   ar
    15    16    17    1
    16    16    18   ar
    17     9    10    1
    18    10     2    1
    19     9     4    1
    20    18    11   ar
@<TRIPOS>MOLECULE
*****
 18 20 0 0 0
SMALL
GASTEIGER

@<TRIPOS>ATOM
      1 C          -5.1100  -15.9469   24.3061 C.3     1  UNL1        0.0896
      2 N          -5.1451  -17.0945   23.3409 N.3     1  UNL1       -0.2712
      3 C          -3.9553  -17.7388   22.6934 C.3     1  UNL1        0.0725
      4 C          -4.4511  -18.8418   21.8060 C.3     1  UNL1        0.0210
      5 C          -3.7335  -19.8170   20.9206 C.3     1  UNL1        0.0017
      6 C          -4.5120  -20.8295   20.1341 C.3     1  UNL1        0.0001
      7 C          -6.0083  -20.8669   20.2331 C.3     1  UNL1        0.0004
      8 C          -6.7260  -19.8918   21.1185 C.3     1  UNL1        0.0054
      9 C          -5.9474  -18.8792   21.9049 C.3     1  UNL1        0.0349
     10 C          -6.3763  -17.7993   22.8536 C.3     1  UNL1        0.0762
     11 C          -7.4318  -18.7965   22.1043 C.ar    1  UNL1       -0.0206
     12 C          -8.1524  -19.8897   22.8361 C.ar    1  UNL1       -0.0033
     13 C          -9.6367  -19.8069   23.0355 C.ar    1  UNL1        0.0119
     14 C         -10.4005  -18.6309   22.5030 C.ar    1  UNL1        0.0682
     15 CL        -11.8849  -18.5482   22.7023 Cl      1  UNL1       -0.0814
     16 C          -9.6800  -17.5377   21.7711 C.ar    1  UNL1        0.0679
     17 CL        -10.4439  -16.3616   21.2386 Cl      1  UNL1       -0.0814
     18 C          -8.1956  -17.6205   21.5718 C.ar    1  UNL1        0.0080
@<TRIPOS>BOND
     1     1     2    1
     2     2     3    1
     3     4     3    1
     4     4     5    1
     5     5     6    1
     6     6     7    1
     7     7     8    1
     8     8     9    1
     9     9    11    1
    10    11    12   ar
    11    12    13   ar
    12    13    14   ar
    13    14    15    1
    14    14    16   ar
    15    16    17    1
    16    16    18   ar
    17     9    10    1
    18    10     2    1
    19     9     4    1
    20    18    11   ar
@<TRIPOS>MOLECULE
*****
 18 20 0 0 0
SMALL
GASTEIGER

@<TRIPOS>ATOM
      1 C          -8.4786  -14.8012   21.2760 C.3     1  UNL1        0.0896
      2 N          -8.8253  -16.0783   21.9821 N.3     1  UNL1       -0.2712
      3 C          -9.9731  -16.2802   22.9265 C.3     1  UNL1        0.0725
      4 C          -9.9422  -17.7045   23.3959 C.3     1  UNL1        0.0210
      5 C         -10.8259  -18.4713   24.3345 C.3     1  UNL1        0.0017
      6 C         -10.5427  -19.9166   24.6188 C.3     1  UNL1        0.0001
      7 C          -9.3758  -20.5951   23.9645 C.3     1  UNL1        0.0004
      8 C          -8.4922  -19.8283   23.0258 C.3     1  UNL1        0.0054
      9 C          -8.7754  -18.3830   22.7415 C.3     1  UNL1        0.0349
     10 C          -8.0851  -17.3780   21.8678 C.3     1  UNL1        0.0762
     11 C          -7.5787  -18.9243   22.0170 C.ar    1  UNL1       -0.0206
     12 C          -7.7582  -19.6900   20.7397 C.ar    1  UNL1       -0.0033
     13 C          -6.5616  -20.2312   20.0152 C.ar    1  UNL1        0.0119
     14 C          -5.1854  -20.0068   20.5679 C.ar    1  UNL1        0.0682
     15 CL         -3.9887  -20.5480   19.8433 Cl      1  UNL1       -0.0814
     16 C          -5.0057  -19.2411   21.8451 C.ar    1  UNL1        0.0679
     17 CL         -3.6294  -19.0166   22.3979 Cl      1  UNL1       -0.0814
     18 C          -6.2024  -18.6998   22.5697 C.ar    1  UNL1        0.0080
@<TRIPOS>BOND
     1     1     2    1
     2     2     3    1
     3     4     3    1
     4     4     5    1
     5     5     6    1
     6     6     7    1
     7     7     8    1
     8     8     9    1
     9     9    11    1
    10    11    12   ar
    11    12    13   ar
    12    13    14   ar
    13    14    15    1
    14    14    16   ar
    15    16    17    1
    16    16    18   ar
    17     9    10    1
    18    10     2    1
    19     9     4    1
    20    18    11   ar
@<TRIPOS>MOLECULE
*****
 18 20 0 0 0
SMALL
GASTEIGER

@<TRIPOS>ATOM
      1 C          -9.2602  -14.1049   19.9988 C.3     1  UNL1        0.0896
      2 N          -9.6929  -15.2467   20.8701 N.3     1  UNL1       -0.2712
      3 C         -10.8375  -16.1777   20.5996 C.3     1  UNL1        0.0725
      4 C         -10.9090  -17.1643   21.7272 C.3     1  UNL1        0.0210
      5 C         -11.8339  -18.3137   21.9981 C.3     1  UNL1        0.0017
      6 C         -11.6584  -19.1418   23.2363 C.3     1  UNL1        0.0001
      7 C         -10.5580  -18.8206   24.2038 C.3     1  UNL1        0.0004
      8 C          -9.6331  -17.6712   23.9329 C.3     1  UNL1        0.0054
      9 C          -9.8086  -16.8430   22.6947 C.3     1  UNL1        0.0349
     10 C          -9.0571  -15.6579   22.1649 C.3     1  UNL1        0.0762
     11 C          -8.6690  -16.4042   23.5658 C.ar    1  UNL1       -0.0206
     12 C          -8.9434  -15.7010   24.8620 C.ar    1  UNL1       -0.0033
     13 C          -7.8039  -15.2621   25.7330 C.ar    1  UNL1        0.0119
     14 C          -6.3899  -15.5265   25.3078 C.ar    1  UNL1        0.0682
     15 CL         -5.2503  -15.0876   26.1789 Cl      1  UNL1       -0.0814
     16 C          -6.1154  -16.2297   24.0117 C.ar    1  UNL1        0.0679
     17 CL         -4.7014  -16.4941   23.5865 Cl      1  UNL1       -0.0814
     18 C          -7.2550  -16.6685   23.1406 C.ar    1  UNL1        0.0080
@<TRIPOS>BOND
     1     1     2    1
     2     2     3    1
     3     4     3    1
     4     4     5    1
     5     5     6    1
     6     6     7    1
     7     7     8    1
     8     8     9    1
     9     9    11    1
    10    11    12   ar
    11    12    13   ar
    12    13    14   ar
    13    14    15    1
    14    14    16   ar
    15    16    17    1
    16    16    18   ar
    17     9    10    1
    18    10     2    1
    19     9     4    1
    20    18    11   ar
@<TRIPOS>MOLECULE
*****
 18 20 0 0 0
SMALL
GASTEIGER

@<TRIPOS>ATOM
      1 C          -7.0164  -14.8911   24.9076 C.3     1  UNL1        0.0896
      2 N          -7.0009  -16.1081   24.0309 N.3     1  UNL1       -0.2712
      3 C          -5.7855  -16.7367   23.4163 C.3     1  UNL1        0.0725
      4 C          -6.2315  -17.9273   22.6204 C.3     1  UNL1        0.0210
      5 C          -5.4726  -18.9276   21.7998 C.3     1  UNL1        0.0017
      6 C          -6.2047  -20.0352   21.1019 C.3     1  UNL1        0.0001
      7 C          -7.6959  -20.1425   21.2246 C.3     1  UNL1        0.0004
      8 C          -8.4548  -19.1423   22.0452 C.3     1  UNL1        0.0054
      9 C          -7.7226  -18.0346   22.7431 C.3     1  UNL1        0.0349
     10 C          -8.1981  -16.9103   23.6148 C.3     1  UNL1        0.0762
     11 C          -9.2072  -18.0142   22.9567 C.ar    1  UNL1       -0.0206
     12 C          -9.8094  -18.7612   24.1097 C.ar    1  UNL1       -0.0033
     13 C         -11.2939  -18.7407   24.3234 C.ar    1  UNL1        0.0119
     14 C         -12.1763  -17.9732   23.3840 C.ar    1  UNL1        0.0682
     15 CL        -13.6609  -17.9527   23.5977 Cl      1  UNL1       -0.0814
     16 C         -11.5742  -17.2262   22.2311 C.ar    1  UNL1        0.0679
     17 CL        -12.4566  -16.4587   21.2917 Cl      1  UNL1       -0.0814
     18 C         -10.0896  -17.2467   22.0174 C.ar    1  UNL1        0.0080
@<TRIPOS>BOND
     1     1     2    1
     2     2     3    1
     3     4     3    1
     4     4     5    1
     5     5     6    1
     6     6     7    1
     7     7     8    1
     8     8     9    1
     9     9    11    1
    10    11    12   ar
    11    12    13   ar
    12    13    14   ar
    13    14    15    1
    14    14    16   ar
    15    16    17    1
    16    16    18   ar
    17     9    10    1
    18    10     2    1
    19     9     4    1
    20    18    11   ar
@<TRIPOS>MOLECULE
*****
 18 20 0 0 0
SMALL
GASTEIGER

@<TRIPOS>ATOM
      1 C          -8.9116  -20.0198   18.4952 C.3     1  UNL1        0.0896
      2 N          -9.3224  -19.6246   19.8827 N.3     1  UNL1       -0.2712
      3 C         -10.7248  -19.6031   20.4146 C.3     1  UNL1        0.0725
      4 C         -10.6721  -19.1467   21.8425 C.3     1  UNL1        0.0210
      5 C         -11.7453  -18.9347   22.8687 C.3     1  UNL1        0.0017
      6 C         -11.3835  -18.4622   24.2456 C.3     1  UNL1        0.0001
      7 C          -9.9485  -18.2016   24.5962 C.3     1  UNL1        0.0004
      8 C          -8.8753  -18.4136   23.5700 C.3     1  UNL1        0.0054
      9 C          -9.2371  -18.8861   22.1931 C.3     1  UNL1        0.0349
     10 C          -8.4030  -19.1815   20.9819 C.3     1  UNL1        0.0762
     11 C          -7.7670  -18.6683   22.3968 C.ar    1  UNL1       -0.0206
     12 C          -6.7937  -19.7596   22.0627 C.ar    1  UNL1       -0.0033
     13 C          -5.3237  -19.5418   22.2663 C.ar    1  UNL1        0.0119
     14 C          -4.8270  -18.2326   22.8041 C.ar    1  UNL1        0.0682
     15 CL         -3.3569  -18.0148   23.0078 Cl      1  UNL1       -0.0814
     16 C          -5.8002  -17.1413   23.1383 C.ar    1  UNL1        0.0679
     17 CL         -5.3034  -15.8320   23.6761 Cl      1  UNL1       -0.0814
     18 C          -7.2702  -17.3591   22.9346 C.ar    1  UNL1        0.0080
@<TRIPOS>BOND
     1     1     2    1
     2     2     3    1
     3     4     3    1
     4     4     5    1
     5     5     6    1
     6     6     7    1
     7     7     8    1
     8     8     9    1
     9     9    11    1
    10    11    12   ar
    11    12    13   ar
    12    13    14   ar
    13    14    15    1
    14    14    16   ar
    15    16    17    1
    16    16    18   ar
    17     9    10    1
    18    10     2    1
    19     9     4    1
    20    18    11   ar
