@<TRIPOS>MOLECULE
*****
 28 30 0 0 0
SMALL
GASTEIGER

@<TRIPOS>ATOM
      1 C          -8.4124  -16.4885   23.9388 C.ar    1  UNL1        0.1363
      2 C          -8.4643  -15.3791   24.9469 C.ar    1  UNL1        0.0366
      3 C          -7.1921  -14.8039   25.4953 C.ar    1  UNL1        0.0028
      4 C          -5.8680  -15.3382   25.0356 C.ar    1  UNL1       -0.0043
      5 C          -5.8162  -16.4476   24.0274 C.ar    1  UNL1       -0.0197
      6 C          -7.0884  -17.0228   23.4790 C.ar    1  UNL1        0.0300
      7 C          -7.0365  -18.1323   22.4708 C.3     1  UNL1        0.1231
      8 N          -5.7124  -18.6666   22.0111 N.am    1  UNL1       -0.2721
      9 C          -5.6605  -19.7761   21.0029 C.2     1  UNL1        0.2422
     10 O          -6.9327  -20.3513   20.4545 O.2     1  UNL1       -0.2733
     11 C          -4.4402  -18.0914   22.5595 C.3     1  UNL1        0.0987
     12 C          -4.4921  -16.9820   23.5676 C.3     1  UNL1        0.0477
     13 C          -8.3087  -18.7075   21.9225 C.ar    1  UNL1       -0.0000
     14 C          -9.0514  -19.7571   22.6950 C.ar    1  UNL1       -0.0023
     15 C         -10.3236  -20.3323   22.1466 C.ar    1  UNL1       -0.0003
     16 C         -10.8530  -19.8578   20.8257 C.ar    1  UNL1       -0.0000
     17 C         -10.1103  -18.8083   20.0533 C.ar    1  UNL1       -0.0003
     18 C          -8.8381  -18.2331   20.6017 C.ar    1  UNL1       -0.0023
     19 C         -10.7964  -16.1524   22.9624 C.3     1  UNL1        0.2525
     20 O          -9.6846  -17.0637   23.3904 O.3     1  UNL1       -0.4717
     21 C          -4.3365  -20.3104   20.5431 C.3     1  UNL1        0.1552
     22 N          -3.6708  -19.7249   19.3332 N.3     1  UNL1       -0.2878
     23 H          -4.3447  -19.7822   18.5697 H       1  UNL1        0.1238
     24 C          -3.1694  -18.3115   19.3631 C.3     1  UNL1        0.0985
     25 C          -1.7282  -18.0205   19.0664 C.3     1  UNL1        0.1263
     26 C          -0.7298  -17.9597   20.1842 C.3     1  UNL1        0.0332
     27 O          -1.2853  -17.7902   17.6519 O.3     1  UNL1       -0.3830
     28 H          -2.0486  -17.8644   17.0579 H       1  UNL1        0.2104
@<TRIPOS>BOND
     1    19    20    1
     2    20     1    1
     3     1     2   ar
     4     2     3   ar
     5     3     4   ar
     6     4     5   ar
     7     5     6   ar
     8     6     7    1
     9     7    13    1
    10    13    14   ar
    11    14    15   ar
    12    15    16   ar
    13    16    17   ar
    14    17    18   ar
    15     7     8    1
    16     8     9   am
    17     9    10    2
    18     9    21    1
    19    21    22    1
    20    22    24    1
    21    24    25    1
    22    25    26    1
    23    25    27    1
    24     8    11    1
    25    11    12    1
    26     6     1   ar
    27    18    13   ar
    28    12     5    1
    29    22    23    1
    30    27    28    1
@<TRIPOS>MOLECULE
*****
 28 30 0 0 0
SMALL
GASTEIGER

@<TRIPOS>ATOM
      1 C          -7.2449  -19.6174   20.9239 C.ar    1  UNL1        0.1363
      2 C          -6.7039  -20.7474   20.0992 C.ar    1  UNL1        0.0366
      3 C          -5.2327  -21.0400   20.1012 C.ar    1  UNL1        0.0028
      4 C          -4.3026  -20.2025   20.9278 C.ar    1  UNL1       -0.0043
      5 C          -4.8436  -19.0725   21.7525 C.ar    1  UNL1       -0.0197
      6 C          -6.3148  -18.7799   21.7506 C.ar    1  UNL1        0.0300
      7 C          -6.8558  -17.6498   22.5754 C.3     1  UNL1        0.1231
      8 N          -5.9257  -16.8123   23.4020 N.am    1  UNL1       -0.2721
      9 C          -6.4667  -15.6822   24.2268 C.2     1  UNL1        0.2422
     10 O          -7.9379  -15.3896   24.2248 O.2     1  UNL1       -0.2733
     11 C          -4.4545  -17.1048   23.4040 C.3     1  UNL1        0.0987
     12 C          -3.9135  -18.2349   22.5793 C.3     1  UNL1        0.0477
     13 C          -8.3270  -17.3572   22.5734 C.ar    1  UNL1       -0.0000
     14 C          -9.2316  -18.0540   23.5463 C.ar    1  UNL1       -0.0023
     15 C         -10.7028  -17.7614   23.5443 C.ar    1  UNL1       -0.0003
     16 C         -11.2694  -16.7721   22.5695 C.ar    1  UNL1       -0.0000
     17 C         -10.3649  -16.0753   21.5967 C.ar    1  UNL1       -0.0003
     18 C          -8.8937  -16.3679   21.5987 C.ar    1  UNL1       -0.0023
     19 C          -9.5194  -19.5271   19.6715 C.3     1  UNL1        0.2525
     20 O          -8.7161  -19.3248   20.9220 O.3     1  UNL1       -0.4717
     21 C          -5.5366  -14.8447   25.0534 C.3     1  UNL1        0.1552
     22 N          -5.8681  -14.5471   26.4858 N.3     1  UNL1       -0.2878
     23 H          -6.5052  -13.7507   26.4812 H       1  UNL1        0.1238
     24 C          -6.5002  -15.6025   27.3442 C.3     1  UNL1        0.0985
     25 C          -7.9936  -15.6781   27.4621 C.3     1  UNL1        0.1263
     26 C          -8.7042  -16.9676   27.1757 C.3     1  UNL1        0.0332
     27 O          -8.7764  -14.4641   27.8665 O.3     1  UNL1       -0.3830
     28 H          -8.1693  -13.7219   28.0130 H       1  UNL1        0.2104
@<TRIPOS>BOND
     1    19    20    1
     2    20     1    1
     3     1     2   ar
     4     2     3   ar
     5     3     4   ar
     6     4     5   ar
     7     5     6   ar
     8     6     7    1
     9     7    13    1
    10    13    14   ar
    11    14    15   ar
    12    15    16   ar
    13    16    17   ar
    14    17    18   ar
    15     7     8    1
    16     8     9   am
    17     9    10    2
    18     9    21    1
    19    21    22    1
    20    22    24    1
    21    24    25    1
    22    25    26    1
    23    25    27    1
    24     8    11    1
    25    11    12    1
    26     6     1   ar
    27    18    13   ar
    28    12     5    1
    29    22    23    1
    30    27    28    1
@<TRIPOS>MOLECULE
*****
 28 30 0 0 0
SMALL
GASTEIGER

@<TRIPOS>ATOM
      1 C          -9.5857  -18.1746   21.2392 C.ar    1  UNL1        0.1363
      2 C         -10.5644  -18.7361   20.2510 C.ar    1  UNL1        0.0366
      3 C         -10.0940  -19.6755   19.1804 C.ar    1  UNL1        0.0028
      4 C          -8.6448  -20.0535   19.0981 C.ar    1  UNL1       -0.0043
      5 C          -7.6660  -19.4920   20.0864 C.ar    1  UNL1       -0.0197
      6 C          -8.1364  -18.5525   21.1569 C.ar    1  UNL1        0.0300
      7 C          -7.1576  -17.9910   22.1452 C.3     1  UNL1        0.1231
      8 N          -5.7083  -18.3690   22.0629 N.am    1  UNL1       -0.2721
      9 C          -4.7295  -17.8075   23.0512 C.2     1  UNL1        0.2422
     10 O          -5.1999  -16.8680   24.1217 O.2     1  UNL1       -0.2733
     11 C          -5.2379  -19.3085   20.9924 C.3     1  UNL1        0.0987
     12 C          -6.2167  -19.8699   20.0041 C.3     1  UNL1        0.0477
     13 C          -7.6280  -17.0516   23.2158 C.ar    1  UNL1       -0.0000
     14 C          -8.2548  -17.5931   24.4664 C.ar    1  UNL1       -0.0023
     15 C          -8.7253  -16.6536   25.5370 C.ar    1  UNL1       -0.0003
     16 C          -8.5689  -15.1727   25.3569 C.ar    1  UNL1       -0.0000
     17 C          -7.9422  -14.6312   24.1063 C.ar    1  UNL1       -0.0003
     18 C          -7.4718  -15.5707   23.0357 C.ar    1  UNL1       -0.0023
     19 C         -11.1812  -16.2831   22.0308 C.3     1  UNL1        0.2525
     20 O         -10.0561  -17.2351   22.3098 O.3     1  UNL1       -0.4717
     21 C          -3.2802  -18.1855   22.9689 C.3     1  UNL1        0.1552
     22 N          -2.2524  -17.1469   22.6300 N.3     1  UNL1       -0.2878
     23 H          -1.3572  -17.4959   22.9724 H       1  UNL1        0.1238
     24 C          -2.0407  -16.7390   21.2021 C.3     1  UNL1        0.0985
     25 C          -1.2990  -17.6456   20.2652 C.3     1  UNL1        0.1263
     26 C          -1.9466  -18.0989   18.9905 C.3     1  UNL1        0.0332
     27 O           0.0904  -18.0988   20.6031 O.3     1  UNL1       -0.3830
     28 H           0.3568  -17.7178   21.4544 H       1  UNL1        0.2104
@<TRIPOS>BOND
     1    19    20    1
     2    20     1    1
     3     1     2   ar
     4     2     3   ar
     5     3     4   ar
     6     4     5   ar
     7     5     6   ar
     8     6     7    1
     9     7    13    1
    10    13    14   ar
    11    14    15   ar
    12    15    16   ar
    13    16    17   ar
    14    17    18   ar
    15     7     8    1
    16     8     9   am
    17     9    10    2
    18     9    21    1
    19    21    22    1
    20    22    24    1
    21    24    25    1
    22    25    26    1
    23    25    27    1
    24     8    11    1
    25    11    12    1
    26     6     1   ar
    27    18    13   ar
    28    12     5    1
    29    22    23    1
    30    27    28    1
@<TRIPOS>MOLECULE
*****
 28 30 0 0 0
SMALL
GASTEIGER

@<TRIPOS>ATOM
      1 C          -5.6389  -16.9471   23.4775 C.ar    1  UNL1        0.1363
      2 C          -4.8056  -15.9981   24.2868 C.ar    1  UNL1        0.0366
      3 C          -5.4676  -15.0196   25.2111 C.ar    1  UNL1        0.0028
      4 C          -6.9629  -14.9902   25.3262 C.ar    1  UNL1       -0.0043
      5 C          -7.7961  -15.9392   24.5169 C.ar    1  UNL1       -0.0197
      6 C          -7.1342  -16.9177   23.5926 C.ar    1  UNL1        0.0300
      7 C          -7.9675  -17.8667   22.7832 C.3     1  UNL1        0.1231
      8 N          -9.4628  -17.8373   22.8983 N.am    1  UNL1       -0.2721
      9 C         -10.2961  -18.7863   22.0890 C.2     1  UNL1        0.2422
     10 O          -9.6341  -19.7648   21.1647 O.2     1  UNL1       -0.2733
     11 C         -10.1248  -16.8588   23.8227 C.3     1  UNL1        0.0987
     12 C          -9.2915  -15.9098   24.6319 C.3     1  UNL1        0.0477
     13 C          -7.3055  -18.8451   21.8589 C.ar    1  UNL1       -0.0000
     14 C          -7.0859  -18.4861   20.4191 C.ar    1  UNL1       -0.0023
     15 C          -6.4239  -19.4646   19.4948 C.ar    1  UNL1       -0.0003
     16 C          -5.9815  -20.8020   20.0102 C.ar    1  UNL1       -0.0000
     17 C          -6.2012  -21.1610   21.4499 C.ar    1  UNL1       -0.0003
     18 C          -6.8632  -20.1825   22.3743 C.ar    1  UNL1       -0.0023
     19 C          -3.5486  -18.3234   22.7801 C.3     1  UNL1        0.2525
     20 O          -4.9769  -17.9255   22.5531 O.3     1  UNL1       -0.4717
     21 C         -11.7914  -18.7569   22.2041 C.3     1  UNL1        0.1552
     22 N         -12.6076  -18.0192   21.1846 N.3     1  UNL1       -0.2878
     23 H         -13.5784  -18.2980   21.3269 H       1  UNL1        0.1238
     24 C         -12.5883  -16.5196   21.1507 C.3     1  UNL1        0.0985
     25 C         -11.7885  -15.8034   20.1032 C.3     1  UNL1        0.1263
     26 C         -10.3412  -15.4933   20.3464 C.3     1  UNL1        0.0332
     27 O         -12.4359  -15.3972   18.8126 O.3     1  UNL1       -0.3830
     28 H         -13.3665  -15.6709   18.8175 H       1  UNL1        0.2104
@<TRIPOS>BOND
     1    19    20    1
     2    20     1    1
     3     1     2   ar
     4     2     3   ar
     5     3     4   ar
     6     4     5   ar
     7     5     6   ar
     8     6     7    1
     9     7    13    1
    10    13    14   ar
    11    14    15   ar
    12    15    16   ar
    13    16    17   ar
    14    17    18   ar
    15     7     8    1
    16     8     9   am
    17     9    10    2
    18     9    21    1
    19    21    22    1
    20    22    24    1
    21    24    25    1
    22    25    26    1
    23    25    27    1
    24     8    11    1
    25    11    12    1
    26     6     1   ar
    27    18    13   ar
    28    12     5    1
    29    22    23    1
    30    27    28    1
@<TRIPOS>MOLECULE
*****
 28 30 0 0 0
SMALL
GASTEIGER

@<TRIPOS>ATOM
      1 C          -5.2984  -17.1807   23.6390 C.ar    1  UNL1        0.1363
      2 C          -4.6416  -16.3575   24.7071 C.ar    1  UNL1        0.0366
      3 C          -5.4215  -15.2919   25.4187 C.ar    1  UNL1        0.0028
      4 C          -6.8581  -15.0496   25.0622 C.ar    1  UNL1       -0.0043
      5 C          -7.5149  -15.8728   23.9941 C.ar    1  UNL1       -0.0197
      6 C          -6.7350  -16.9383   23.2825 C.ar    1  UNL1        0.0300
      7 C          -7.3919  -17.7616   22.2143 C.3     1  UNL1        0.1231
      8 N          -8.8286  -17.5192   21.8578 N.am    1  UNL1       -0.2721
      9 C          -9.4855  -18.3424   20.7896 C.2     1  UNL1        0.2422
     10 O          -8.7056  -19.4080   20.0780 O.2     1  UNL1       -0.2733
     11 C          -9.6085  -16.4536   22.5694 C.3     1  UNL1        0.0987
     12 C          -8.9517  -15.6304   23.6375 C.3     1  UNL1        0.0477
     13 C          -6.6120  -18.8271   21.5027 C.ar    1  UNL1       -0.0000
     14 C          -5.8033  -18.4798   20.2880 C.ar    1  UNL1       -0.0023
     15 C          -5.0235  -19.5454   19.5764 C.ar    1  UNL1       -0.0003
     16 C          -5.0523  -20.9583   20.0796 C.ar    1  UNL1       -0.0000
     17 C          -5.8609  -21.3055   21.2942 C.ar    1  UNL1       -0.0003
     18 C          -6.6408  -20.2399   22.0058 C.ar    1  UNL1       -0.0023
     19 C          -3.0478  -18.0685   22.6921 C.3     1  UNL1        0.2525
     20 O          -4.5185  -18.2463   22.9274 O.3     1  UNL1       -0.4717
     21 C         -10.9221  -18.1000   20.4331 C.3     1  UNL1        0.1552
     22 N         -12.0138  -18.6641   21.2933 N.3     1  UNL1       -0.2878
     23 H         -11.5963  -19.4136   21.8451 H       1  UNL1        0.1238
     24 C         -12.7463  -17.7754   22.2543 C.3     1  UNL1        0.0985
     25 C         -12.8506  -18.1593   23.7006 C.3     1  UNL1        0.1263
     26 C         -14.1853  -18.1481   24.3851 C.3     1  UNL1        0.0332
     27 O         -11.6203  -18.5545   24.4623 O.3     1  UNL1       -0.3830
     28 H         -10.8486  -18.5084   23.8764 H       1  UNL1        0.2104
@<TRIPOS>BOND
     1    19    20    1
     2    20     1    1
     3     1     2   ar
     4     2     3   ar
     5     3     4   ar
     6     4     5   ar
     7     5     6   ar
     8     6     7    1
     9     7    13    1
    10    13    14   ar
    11    14    15   ar
    12    15    16   ar
    13    16    17   ar
    14    17    18   ar
    15     7     8    1
    16     8     9   am
    17     9    10    2
    18     9    21    1
    19    21    22    1
    20    22    24    1
    21    24    25    1
    22    25    26    1
    23    25    27    1
    24     8    11    1
    25    11    12    1
    26     6     1   ar
    27    18    13   ar
    28    12     5    1
    29    22    23    1
    30    27    28    1
@<TRIPOS>MOLECULE
*****
 28 30 0 0 0
SMALL
GASTEIGER

@<TRIPOS>ATOM
      1 C           2.5342   -0.7124   21.6825 C.ar    1  UNL1        0.1363
      2 C           1.5040    0.3674   21.8334 C.ar    1  UNL1        0.0366
      3 C           1.2849    1.0137   23.1691 C.ar    1  UNL1        0.0028
      4 C           2.0960    0.5802   24.3541 C.ar    1  UNL1       -0.0043
      5 C           3.1262   -0.4995   24.2033 C.ar    1  UNL1       -0.0197
      6 C           3.3453   -1.1458   22.8675 C.ar    1  UNL1        0.0300
      7 C           4.3755   -2.2256   22.7167 C.3     1  UNL1        0.1231
      8 N           5.1866   -2.6591   23.9017 N.am    1  UNL1       -0.2721
      9 C           6.2169   -3.7389   23.7509 C.2     1  UNL1        0.2422
     10 O           6.4360   -4.3852   22.4152 O.2     1  UNL1       -0.2733
     11 C           4.9675   -2.0128   25.2375 C.3     1  UNL1        0.0987
     12 C           3.9374   -0.9330   25.3883 C.3     1  UNL1        0.0477
     13 C           4.5946   -2.8719   21.3810 C.ar    1  UNL1       -0.0000
     14 C           3.8053   -4.0887   20.9980 C.ar    1  UNL1       -0.0023
     15 C           4.0244   -4.7350   19.6622 C.ar    1  UNL1       -0.0003
     16 C           5.0328   -4.1645   18.7094 C.ar    1  UNL1       -0.0000
     17 C           5.8221   -2.9478   19.0924 C.ar    1  UNL1       -0.0003
     18 C           5.6030   -2.3016   20.4282 C.ar    1  UNL1       -0.0023
     19 C           2.6479   -0.5428   19.0925 C.3     1  UNL1        0.2525
     20 O           2.7533   -1.3587   20.3468 O.3     1  UNL1       -0.4717
     21 C           7.0280   -4.1723   24.9359 C.3     1  UNL1        0.1552
     22 N           6.4261   -5.0841   25.9637 N.3     1  UNL1       -0.2878
     23 H           5.6619   -5.5805   25.5055 H       1  UNL1        0.1238
     24 C           7.2758   -6.1221   26.6351 C.3     1  UNL1        0.0985
     25 C           7.4153   -7.4857   26.0260 C.3     1  UNL1        0.1263
     26 C           8.2640   -7.6780   24.8043 C.3     1  UNL1        0.0332
     27 O           6.7061   -8.6569   26.6385 O.3     1  UNL1       -0.3830
     28 H           6.2054   -8.3617   27.4151 H       1  UNL1        0.2104
@<TRIPOS>BOND
     1    19    20    1
     2    20     1    1
     3     1     2   ar
     4     2     3   ar
     5     3     4   ar
     6     4     5   ar
     7     5     6   ar
     8     6     7    1
     9     7    13    1
    10    13    14   ar
    11    14    15   ar
    12    15    16   ar
    13    16    17   ar
    14    17    18   ar
    15     7     8    1
    16     8     9   am
    17     9    10    2
    18     9    21    1
    19    21    22    1
    20    22    24    1
    21    24    25    1
    22    25    26    1
    23    25    27    1
    24     8    11    1
    25    11    12    1
    26     6     1   ar
    27    18    13   ar
    28    12     5    1
    29    22    23    1
    30    27    28    1
@<TRIPOS>MOLECULE
*****
 28 30 0 0 0
SMALL
GASTEIGER

@<TRIPOS>ATOM
      1 C           3.7882   -1.9375   19.6448 C.ar    1  UNL1        0.1363
      2 C           4.5281   -3.0306   18.9324 C.ar    1  UNL1        0.0366
      3 C           5.3214   -4.0337   19.7164 C.ar    1  UNL1        0.0028
      4 C           5.3747   -3.9436   21.2127 C.ar    1  UNL1       -0.0043
      5 C           4.6347   -2.8505   21.9251 C.ar    1  UNL1       -0.0197
      6 C           3.8415   -1.8475   21.1411 C.ar    1  UNL1        0.0300
      7 C           3.1015   -0.7543   21.8536 C.3     1  UNL1        0.1231
      8 N           3.1548   -0.6643   23.3499 N.am    1  UNL1       -0.2721
      9 C           2.4148    0.4288   24.0624 C.2     1  UNL1        0.2422
     10 O           1.6215    1.4319   23.2784 O.2     1  UNL1       -0.2733
     11 C           3.9481   -1.6674   24.1338 C.3     1  UNL1        0.0987
     12 C           4.6880   -2.7605   23.4215 C.3     1  UNL1        0.0477
     13 C           2.3082    0.2487   21.0697 C.ar    1  UNL1       -0.0000
     14 C           0.8671   -0.0188   20.7505 C.ar    1  UNL1       -0.0023
     15 C           0.0738    0.9843   19.9666 C.ar    1  UNL1       -0.0003
     16 C           0.7216    2.2549   19.5018 C.ar    1  UNL1       -0.0000
     17 C           2.1626    2.5224   19.8209 C.ar    1  UNL1       -0.0003
     18 C           2.9559    1.5193   20.6049 C.ar    1  UNL1       -0.0023
     19 C           3.4688   -0.4963   17.5069 C.3     1  UNL1        0.2525
     20 O           2.9949   -0.9344   18.8609 O.3     1  UNL1       -0.4717
     21 C           2.4681    0.5189   25.5587 C.3     1  UNL1        0.1552
     22 N           1.1993    0.4826   26.3579 N.3     1  UNL1       -0.2878
     23 H           0.8355   -0.4679   26.2899 H       1  UNL1        0.1238
     24 C           1.2208    0.8348   27.8158 C.3     1  UNL1        0.0985
     25 C           0.5438   -0.0579   28.8131 C.3     1  UNL1        0.1263
     26 C          -0.9239   -0.3420   28.6905 C.3     1  UNL1        0.0332
     27 O           1.3345   -0.6665   29.9331 O.3     1  UNL1       -0.3830
     28 H           2.2599   -0.3834   29.8666 H       1  UNL1        0.2104
@<TRIPOS>BOND
     1    19    20    1
     2    20     1    1
     3     1     2   ar
     4     2     3   ar
     5     3     4   ar
     6     4     5   ar
     7     5     6   ar
     8     6     7    1
     9     7    13    1
    10    13    14   ar
    11    14    15   ar
    12    15    16   ar
    13    16    17   ar
    14    17    18   ar
    15     7     8    1
    16     8     9   am
    17     9    10    2
    18     9    21    1
    19    21    22    1
    20    22    24    1
    21    24    25    1
    22    25    26    1
    23    25    27    1
    24     8    11    1
    25    11    12    1
    26     6     1   ar
    27    18    13   ar
    28    12     5    1
    29    22    23    1
    30    27    28    1
@<TRIPOS>MOLECULE
*****
 28 30 0 0 0
SMALL
GASTEIGER

@<TRIPOS>ATOM
      1 C           3.0592   -0.7027   23.0133 C.ar    1  UNL1        0.1363
      2 C           4.0004   -1.8180   22.6667 C.ar    1  UNL1        0.0366
      3 C           4.0193   -2.3784   21.2755 C.ar    1  UNL1        0.0028
      4 C           3.0969   -1.8236   20.2308 C.ar    1  UNL1       -0.0043
      5 C           2.1557   -0.7083   20.5774 C.ar    1  UNL1       -0.0197
      6 C           2.1368   -0.1479   21.9687 C.ar    1  UNL1        0.0300
      7 C           1.1955    0.9675   22.3152 C.3     1  UNL1        0.1231
      8 N           0.2732    1.5223   21.2706 N.am    1  UNL1       -0.2721
      9 C          -0.6682    2.6377   21.6171 C.2     1  UNL1        0.2422
     10 O          -0.6870    3.1981   23.0084 O.2     1  UNL1       -0.2733
     11 C           0.2920    0.9619   19.8793 C.3     1  UNL1        0.0987
     12 C           1.2333   -0.1534   19.5327 C.3     1  UNL1        0.0477
     13 C           1.1766    1.5279   23.7065 C.ar    1  UNL1       -0.0000
     14 C           2.0961    2.6548   24.0737 C.ar    1  UNL1       -0.0023
     15 C           2.0772    3.2152   25.4649 C.ar    1  UNL1       -0.0003
     16 C           1.1388    2.6488   26.4890 C.ar    1  UNL1       -0.0000
     17 C           0.2194    1.5219   26.1218 C.ar    1  UNL1       -0.0003
     18 C           0.2383    0.9615   24.7305 C.ar    1  UNL1       -0.0023
     19 C           4.1035   -0.5365   25.3864 C.3     1  UNL1        0.2525
     20 O           3.0403   -0.1423   24.4046 O.3     1  UNL1       -0.4717
     21 C          -1.5905    3.1925   20.5725 C.3     1  UNL1        0.1552
     22 N          -3.0383    2.8003   20.5656 N.3     1  UNL1       -0.2878
     23 H          -3.1030    1.9049   21.0498 H       1  UNL1        0.1238
     24 C          -4.0629    3.7032   21.1861 C.3     1  UNL1        0.0985
     25 C          -4.0843    3.9035   22.6725 C.3     1  UNL1        0.1263
     26 C          -5.0692    3.1503   23.5166 C.3     1  UNL1        0.0332
     27 O          -3.1208    4.8570   23.3147 O.3     1  UNL1       -0.3830
     28 H          -2.5588    5.2571   22.6328 H       1  UNL1        0.2104
@<TRIPOS>BOND
     1    19    20    1
     2    20     1    1
     3     1     2   ar
     4     2     3   ar
     5     3     4   ar
     6     4     5   ar
     7     5     6   ar
     8     6     7    1
     9     7    13    1
    10    13    14   ar
    11    14    15   ar
    12    15    16   ar
    13    16    17   ar
    14    17    18   ar
    15     7     8    1
    16     8     9   am
    17     9    10    2
    18     9    21    1
    19    21    22    1
    20    22    24    1
    21    24    25    1
    22    25    26    1
    23    25    27    1
    24     8    11    1
    25    11    12    1
    26     6     1   ar
    27    18    13   ar
    28    12     5    1
    29    22    23    1
    30    27    28    1
@<TRIPOS>MOLECULE
*****
 28 30 0 0 0
SMALL
GASTEIGER

@<TRIPOS>ATOM
      1 C          -8.6371  -16.4250   25.2004 C.ar    1  UNL1        0.1363
      2 C          -9.0346  -15.7141   26.4600 C.ar    1  UNL1        0.0366
      3 C          -7.9868  -15.0801   27.3260 C.ar    1  UNL1        0.0028
      4 C          -6.5414  -15.1569   26.9324 C.ar    1  UNL1       -0.0043
      5 C          -6.1439  -15.8678   25.6728 C.ar    1  UNL1       -0.0197
      6 C          -7.1918  -16.5018   24.8068 C.ar    1  UNL1        0.0300
      7 C          -6.7942  -17.2127   23.5472 C.3     1  UNL1        0.1231
      8 N          -5.3488  -17.2895   23.1536 N.am    1  UNL1       -0.2721
      9 C          -4.9513  -18.0004   21.8939 C.2     1  UNL1        0.2422
     10 O          -5.9991  -18.6344   21.0279 O.2     1  UNL1       -0.2733
     11 C          -4.3010  -16.6554   24.0196 C.3     1  UNL1        0.0987
     12 C          -4.6985  -15.9446   25.2792 C.3     1  UNL1        0.0477
     13 C          -7.8421  -17.8467   22.6812 C.ar    1  UNL1       -0.0000
     14 C          -8.6235  -17.0080   21.7136 C.ar    1  UNL1       -0.0023
     15 C          -9.6713  -17.6421   20.8476 C.ar    1  UNL1       -0.0003
     16 C          -9.9378  -19.1148   20.9491 C.ar    1  UNL1       -0.0000
     17 C          -9.1565  -19.9533   21.9167 C.ar    1  UNL1       -0.0003
     18 C          -8.1086  -19.3193   22.7827 C.ar    1  UNL1       -0.0023
     19 C         -10.5238  -18.1806   24.8715 C.3     1  UNL1        0.2525
     20 O          -9.6850  -17.0590   24.3344 O.3     1  UNL1       -0.4717
     21 C          -3.5059  -18.0772   21.5003 C.3     1  UNL1        0.1552
     22 N          -2.7215  -16.8183   21.2770 N.3     1  UNL1       -0.2878
     23 H          -2.6276  -16.3648   22.1858 H       1  UNL1        0.1238
     24 C          -1.3457  -16.8871   20.6832 C.3     1  UNL1        0.0985
     25 C          -1.0484  -17.8723   19.5919 C.3     1  UNL1        0.1263
     26 C          -1.8478  -17.8498   18.3230 C.3     1  UNL1        0.0332
     27 O           0.0485  -18.8799   19.7695 O.3     1  UNL1       -0.3830
     28 H           0.4617  -18.7583   20.6387 H       1  UNL1        0.2104
@<TRIPOS>BOND
     1    19    20    1
     2    20     1    1
     3     1     2   ar
     4     2     3   ar
     5     3     4   ar
     6     4     5   ar
     7     5     6   ar
     8     6     7    1
     9     7    13    1
    10    13    14   ar
    11    14    15   ar
    12    15    16   ar
    13    16    17   ar
    14    17    18   ar
    15     7     8    1
    16     8     9   am
    17     9    10    2
    18     9    21    1
    19    21    22    1
    20    22    24    1
    21    24    25    1
    22    25    26    1
    23    25    27    1
    24     8    11    1
    25    11    12    1
    26     6     1   ar
    27    18    13   ar
    28    12     5    1
    29    22    23    1
    30    27    28    1
