@<TRIPOS>MOLECULE
*****
 25 27 0 0 0
SMALL
GASTEIGER

@<TRIPOS>ATOM
      1 C          -7.9465  -19.2898   21.7975 C.ar    1  UNL1        0.3220
      2 S          -8.6886  -18.1664   21.1362 S.2     1  UNL1       -0.0010
      3 C         -10.0296  -18.0442   21.7972 C.ar    1  UNL1        0.1688
      4 C         -11.1829  -17.1141   21.5632 C.ar    1  UNL1        0.3018
      5 C         -12.4228  -17.2319   22.3990 C.ar    1  UNL1        0.0801
      6 C         -12.5095  -18.2797   23.4688 C.ar    1  UNL1        0.0835
      7 C         -11.3562  -19.2098   23.7028 C.ar    1  UNL1        0.0753
      8 C         -10.1162  -19.0920   22.8671 C.ar    1  UNL1        0.2492
      9 N          -8.8288  -19.8618   22.8672 N.ar    1  UNL1       -0.1519
     10 O          -8.4842  -21.0033   23.7773 O.co2   1  UNL1       -0.6185
     11 O          -6.3793  -20.9510   20.5589 O.2     1  UNL1       -0.2627
     12 C          -6.5647  -19.7588   21.4500 C.2     1  UNL1        0.3210
     13 N          -5.3684  -19.0355   21.9937 N.am    1  UNL1       -0.2707
     14 C          -5.5538  -17.8432   22.8848 C.3     1  UNL1        0.0939
     15 C          -4.3574  -17.1199   23.4285 C.3     1  UNL1        0.0216
     16 C          -2.9756  -17.5889   23.0810 C.3     1  UNL1        0.0035
     17 C          -2.7902  -18.7812   22.1900 C.3     1  UNL1        0.0216
     18 C          -3.9866  -19.5045   21.6462 C.3     1  UNL1        0.0939
     19 C         -13.7495  -18.3975   24.3046 C.3     1  UNL1        0.4190
     20 F         -14.9894  -18.5152   25.1405 F       1  UNL1       -0.1659
     21 F         -14.5927  -18.1579   23.0875 F       1  UNL1       -0.1659
     22 F         -12.9063  -18.6371   25.5218 F       1  UNL1       -0.1659
     23 N         -11.0962  -16.0663   20.4934 N.pl3   1  UNL1        0.0817
     24 O          -9.9410  -15.1097   20.4723 O.2     1  UNL1        0.0415
     25 O         -12.1647  -15.9750   19.4447 O.co2   1  UNL1       -0.5760
@<TRIPOS>UNITY_ATOM_ATTR
9 1
charge 1
10 1
charge -1
23 1
charge 1
25 1
charge -1
@<TRIPOS>BOND
     1    11    12    2
     2    12     1    1
     3     1     2   ar
     4     2     3   ar
     5     3     4   ar
     6     4    23    1
     7    23    24    2
     8    23    25    1
     9     4     5   ar
    10     5     6   ar
    11     6    19    1
    12    19    20    1
    13    19    21    1
    14    19    22    1
    15     6     7   ar
    16     7     8   ar
    17     8     9   ar
    18     9    10    1
    19    12    13   am
    20    13    14    1
    21    14    15    1
    22    15    16    1
    23    16    17    1
    24    17    18    1
    25     9     1   ar
    26    18    13    1
    27     8     3   ar
@<TRIPOS>MOLECULE
*****
 25 27 0 0 0
SMALL
GASTEIGER

@<TRIPOS>ATOM
      1 C          -8.7142  -17.2489   22.0263 C.ar    1  UNL1        0.3220
      2 S          -7.7933  -16.6537   23.0498 S.2     1  UNL1       -0.0010
      3 C          -6.4398  -17.2756   22.8729 C.ar    1  UNL1        0.1688
      4 C          -5.1413  -17.0765   23.5970 C.ar    1  UNL1        0.3018
      5 C          -3.9273  -17.8569   23.1883 C.ar    1  UNL1        0.0801
      6 C          -4.0118  -18.8364   22.0554 C.ar    1  UNL1        0.0835
      7 C          -5.3102  -19.0355   21.3312 C.ar    1  UNL1        0.0753
      8 C          -6.5242  -18.2551   21.7400 C.ar    1  UNL1        0.2492
      9 N          -7.9299  -18.2386   21.2168 N.ar    1  UNL1       -0.1519
     10 O          -8.4584  -19.0664   20.0831 O.co2   1  UNL1       -0.6185
     11 O         -10.5912  -16.0116   20.7239 O.2     1  UNL1       -0.2627
     12 C         -10.1648  -16.9133   21.8443 C.2     1  UNL1        0.3210
     13 N         -11.1891  -17.4793   22.7825 N.am    1  UNL1       -0.2707
     14 C         -10.7628  -18.3810   23.9030 C.3     1  UNL1        0.0939
     15 C         -11.7871  -18.9470   24.8413 C.3     1  UNL1        0.0216
     16 C         -13.2377  -18.6114   24.6592 C.3     1  UNL1        0.0035
     17 C         -13.6640  -17.7098   23.5389 C.3     1  UNL1        0.0216
     18 C         -12.6397  -17.1437   22.6005 C.3     1  UNL1        0.0939
     19 C          -2.7977  -19.6168   21.6466 C.3     1  UNL1        0.4190
     20 F          -1.5836  -20.3971   21.2379 F       1  UNL1       -0.1659
     21 F          -3.6540  -20.4989   20.7873 F       1  UNL1       -0.1659
     22 F          -1.9414  -18.7346   22.5059 F       1  UNL1       -0.1659
     23 N          -5.0569  -16.0970   24.7300 N.pl3   1  UNL1        0.0817
     24 O          -5.3266  -14.6419   24.4850 O.2     1  UNL1        0.0415
     25 O          -4.7028  -16.5726   26.1078 O.co2   1  UNL1       -0.5760
@<TRIPOS>UNITY_ATOM_ATTR
9 1
charge 1
10 1
charge -1
23 1
charge 1
25 1
charge -1
@<TRIPOS>BOND
     1    11    12    2
     2    12     1    1
     3     1     2   ar
     4     2     3   ar
     5     3     4   ar
     6     4    23    1
     7    23    24    2
     8    23    25    1
     9     4     5   ar
    10     5     6   ar
    11     6    19    1
    12    19    20    1
    13    19    21    1
    14    19    22    1
    15     6     7   ar
    16     7     8   ar
    17     8     9   ar
    18     9    10    1
    19    12    13   am
    20    13    14    1
    21    14    15    1
    22    15    16    1
    23    16    17    1
    24    17    18    1
    25     9     1   ar
    26    18    13    1
    27     8     3   ar
@<TRIPOS>MOLECULE
*****
 25 27 0 0 0
SMALL
GASTEIGER

@<TRIPOS>ATOM
      1 C          -8.0082  -18.8579   22.3529 C.ar    1  UNL1        0.3220
      2 S          -7.2520  -17.9059   23.2313 S.2     1  UNL1       -0.0010
      3 C          -5.8187  -17.9059   22.7890 C.ar    1  UNL1        0.1688
      4 C          -4.6148  -17.1620   23.2862 C.ar    1  UNL1        0.3018
      5 C          -3.2814  -17.3702   22.6317 C.ar    1  UNL1        0.0801
      6 C          -3.1518  -18.3224   21.4799 C.ar    1  UNL1        0.0835
      7 C          -4.3556  -19.0663   20.9826 C.ar    1  UNL1        0.0753
      8 C          -5.6891  -18.8581   21.6372 C.ar    1  UNL1        0.2492
      9 N          -7.0423  -19.4464   21.3677 N.ar    1  UNL1       -0.1519
     10 O          -7.3717  -20.4476   20.3004 O.co2   1  UNL1       -0.6185
     11 O          -9.9331  -20.4310   23.1082 O.2     1  UNL1       -0.2627
     12 C          -9.4732  -19.1672   22.4438 C.2     1  UNL1        0.3210
     13 N         -10.4782  -18.2128   21.8703 N.am    1  UNL1       -0.2707
     14 C         -10.0183  -16.9490   21.2059 C.3     1  UNL1        0.0939
     15 C         -11.0233  -15.9946   20.6324 C.3     1  UNL1        0.0216
     16 C         -12.4883  -16.3039   20.7233 C.3     1  UNL1        0.0035
     17 C         -12.9482  -17.5676   21.3876 C.3     1  UNL1        0.0216
     18 C         -11.9431  -18.5221   21.9612 C.3     1  UNL1        0.0939
     19 C          -1.8182  -18.5306   20.8253 C.3     1  UNL1        0.4190
     20 F          -0.4848  -18.7387   20.1707 F       1  UNL1       -0.1659
     21 F          -1.9761  -20.0146   20.9756 F       1  UNL1       -0.1659
     22 F          -1.6604  -17.0465   20.6750 F       1  UNL1       -0.1659
     23 N          -4.7444  -16.2099   24.4380 N.pl3   1  UNL1        0.0817
     24 O          -4.4862  -16.6855   25.8370 O.2     1  UNL1        0.0415
     25 O          -5.1322  -14.7821   24.1909 O.co2   1  UNL1       -0.5760
@<TRIPOS>UNITY_ATOM_ATTR
9 1
charge 1
10 1
charge -1
23 1
charge 1
25 1
charge -1
@<TRIPOS>BOND
     1    11    12    2
     2    12     1    1
     3     1     2   ar
     4     2     3   ar
     5     3     4   ar
     6     4    23    1
     7    23    24    2
     8    23    25    1
     9     4     5   ar
    10     5     6   ar
    11     6    19    1
    12    19    20    1
    13    19    21    1
    14    19    22    1
    15     6     7   ar
    16     7     8   ar
    17     8     9   ar
    18     9    10    1
    19    12    13   am
    20    13    14    1
    21    14    15    1
    22    15    16    1
    23    16    17    1
    24    17    18    1
    25     9     1   ar
    26    18    13    1
    27     8     3   ar
@<TRIPOS>MOLECULE
*****
 25 27 0 0 0
SMALL
GASTEIGER

@<TRIPOS>ATOM
      1 C         -15.2880   -8.1759   18.7513 C.ar    1  UNL1        0.3220
      2 S         -13.9104   -8.4378   18.2188 S.2     1  UNL1       -0.0010
      3 C         -13.1290   -7.1604   18.3063 C.ar    1  UNL1        0.1688
      4 C         -11.7184   -6.8187   17.9277 C.ar    1  UNL1        0.3018
      5 C         -11.2025   -5.4257   18.1356 C.ar    1  UNL1        0.0801
      6 C         -12.0972   -4.3743   18.7222 C.ar    1  UNL1        0.0835
      7 C         -13.5078   -4.7160   19.1009 C.ar    1  UNL1        0.0753
      8 C         -14.0237   -6.1090   18.8930 C.ar    1  UNL1        0.2492
      9 N         -15.3580   -6.7367   19.1680 N.ar    1  UNL1       -0.1519
     10 O         -16.5526   -6.0462   19.7564 O.co2   1  UNL1       -0.6185
     11 O         -16.3340  -10.2738   19.8715 O.2     1  UNL1       -0.2627
     12 C         -16.4003   -9.1775   18.8499 C.2     1  UNL1        0.3210
     13 N         -17.5789   -9.0827   17.9270 N.am    1  UNL1       -0.2707
     14 C         -17.6452   -7.9863   16.9053 C.3     1  UNL1        0.0939
     15 C         -18.8238   -7.8915   15.9824 C.3     1  UNL1        0.0216
     16 C         -19.9361   -8.8931   16.0809 C.3     1  UNL1        0.0035
     17 C         -19.8698   -9.9894   17.1025 C.3     1  UNL1        0.0216
     18 C         -18.6912  -10.0843   18.0255 C.3     1  UNL1        0.0939
     19 C         -11.5813   -2.9812   18.9302 C.3     1  UNL1        0.4190
     20 F         -11.0653   -1.5882   19.1381 F       1  UNL1       -0.1659
     21 F         -12.6034   -2.7632   20.0061 F       1  UNL1       -0.1659
     22 F         -10.5591   -3.1993   17.8543 F       1  UNL1       -0.1659
     23 N         -10.8237   -7.8701   17.3410 N.pl3   1  UNL1        0.0817
     24 O         -11.1182   -8.4325   15.9820 O.2     1  UNL1        0.0415
     25 O          -9.6345   -8.3590   18.1134 O.co2   1  UNL1       -0.5760
@<TRIPOS>UNITY_ATOM_ATTR
9 1
charge 1
10 1
charge -1
23 1
charge 1
25 1
charge -1
@<TRIPOS>BOND
     1    11    12    2
     2    12     1    1
     3     1     2   ar
     4     2     3   ar
     5     3     4   ar
     6     4    23    1
     7    23    24    2
     8    23    25    1
     9     4     5   ar
    10     5     6   ar
    11     6    19    1
    12    19    20    1
    13    19    21    1
    14    19    22    1
    15     6     7   ar
    16     7     8   ar
    17     8     9   ar
    18     9    10    1
    19    12    13   am
    20    13    14    1
    21    14    15    1
    22    15    16    1
    23    16    17    1
    24    17    18    1
    25     9     1   ar
    26    18    13    1
    27     8     3   ar
@<TRIPOS>MOLECULE
*****
 25 27 0 0 0
SMALL
GASTEIGER

@<TRIPOS>ATOM
      1 C         -15.7296   -6.1852   17.7902 C.ar    1  UNL1        0.3220
      2 S         -15.0675   -4.9764   18.3821 S.2     1  UNL1       -0.0010
      3 C         -13.6201   -5.3021   18.6031 C.ar    1  UNL1        0.1688
      4 C         -12.4838   -4.4969   19.1601 C.ar    1  UNL1        0.3018
      5 C         -11.1150   -5.1018   19.2618 C.ar    1  UNL1        0.0801
      6 C         -10.8825   -6.5120   18.8065 C.ar    1  UNL1        0.0835
      7 C         -12.0188   -7.3173   18.2495 C.ar    1  UNL1        0.0753
      8 C         -13.3876   -6.7123   18.1478 C.ar    1  UNL1        0.2492
      9 N         -14.6913   -7.2581   17.6454 N.ar    1  UNL1       -0.1519
     10 O         -14.9172   -8.6350   17.0949 O.co2   1  UNL1       -0.6185
     11 O         -17.7015   -5.5504   16.2223 O.2     1  UNL1       -0.2627
     12 C         -17.1760   -6.3009   17.4099 C.2     1  UNL1        0.3210
     13 N         -18.0968   -7.1671   18.2172 N.am    1  UNL1       -0.2707
     14 C         -17.5713   -7.9177   19.4049 C.3     1  UNL1        0.0939
     15 C         -18.4921   -8.7839   20.2121 C.3     1  UNL1        0.0216
     16 C         -19.9384   -8.8995   19.8318 C.3     1  UNL1        0.0035
     17 C         -20.4640   -8.1490   18.6442 C.3     1  UNL1        0.0216
     18 C         -19.5432   -7.2828   17.8369 C.3     1  UNL1        0.0939
     19 C          -9.5136   -7.1169   18.9082 C.3     1  UNL1        0.4190
     20 F          -8.1448   -7.7218   19.0100 F       1  UNL1       -0.1659
     21 F          -9.9921   -8.3257   18.1600 F       1  UNL1       -0.1659
     22 F          -9.0351   -5.9082   19.6565 F       1  UNL1       -0.1659
     23 N         -12.7163   -3.0867   19.6154 N.pl3   1  UNL1        0.0817
     24 O         -11.9498   -1.9601   18.9884 O.2     1  UNL1        0.0415
     25 O         -13.7153   -2.8031   20.6977 O.co2   1  UNL1       -0.5760
@<TRIPOS>UNITY_ATOM_ATTR
9 1
charge 1
10 1
charge -1
23 1
charge 1
25 1
charge -1
@<TRIPOS>BOND
     1    11    12    2
     2    12     1    1
     3     1     2   ar
     4     2     3   ar
     5     3     4   ar
     6     4    23    1
     7    23    24    2
     8    23    25    1
     9     4     5   ar
    10     5     6   ar
    11     6    19    1
    12    19    20    1
    13    19    21    1
    14    19    22    1
    15     6     7   ar
    16     7     8   ar
    17     8     9   ar
    18     9    10    1
    19    12    13   am
    20    13    14    1
    21    14    15    1
    22    15    16    1
    23    16    17    1
    24    17    18    1
    25     9     1   ar
    26    18    13    1
    27     8     3   ar
@<TRIPOS>MOLECULE
*****
 25 27 0 0 0
SMALL
GASTEIGER

@<TRIPOS>ATOM
      1 C         -14.3727   -4.7081   19.5434 C.ar    1  UNL1        0.3220
      2 S         -15.8626   -4.7446   19.3743 S.2     1  UNL1       -0.0010
      3 C         -16.2720   -6.1742   19.1776 C.ar    1  UNL1        0.1688
      4 C         -17.6113   -6.8140   18.9613 C.ar    1  UNL1        0.3018
      5 C         -17.7136   -8.3009   18.7926 C.ar    1  UNL1        0.0801
      6 C         -16.4766   -9.1480   18.8402 C.ar    1  UNL1        0.0835
      7 C         -15.1373   -8.5082   19.0565 C.ar    1  UNL1        0.0753
      8 C         -15.0350   -7.0213   19.2251 C.ar    1  UNL1        0.2492
      9 N         -13.8612   -6.1152   19.4512 N.ar    1  UNL1       -0.1519
     10 O         -12.4275   -6.5414   19.5651 O.co2   1  UNL1       -0.6185
     11 O         -13.5640   -2.7889   21.0966 O.2     1  UNL1       -0.2627
     12 C         -13.5403   -3.4802   19.7656 C.2     1  UNL1        0.3210
     13 N         -12.6843   -2.9435   18.6569 N.am    1  UNL1       -0.2707
     14 C         -12.6606   -3.6349   17.3259 C.3     1  UNL1        0.0939
     15 C         -11.8047   -3.0982   16.2172 C.3     1  UNL1        0.0216
     16 C         -10.9723   -1.8703   16.4394 C.3     1  UNL1        0.0035
     17 C         -10.9960   -1.1790   17.7704 C.3     1  UNL1        0.0216
     18 C         -11.8520   -1.7156   18.8792 C.3     1  UNL1        0.0939
     19 C         -16.5790  -10.6351   18.6715 C.3     1  UNL1        0.4190
     20 F         -16.6814  -12.1220   18.5028 F       1  UNL1       -0.1659
     21 F         -15.3192  -10.6295   17.8575 F       1  UNL1       -0.1659
     22 F         -17.8388  -10.6406   19.4856 F       1  UNL1       -0.1659
     23 N         -18.8483   -5.9669   18.9138 N.pl3   1  UNL1        0.0817
     24 O         -19.7544   -5.8950   20.1070 O.2     1  UNL1        0.0415
     25 O         -19.1792   -5.1917   17.6730 O.co2   1  UNL1       -0.5760
@<TRIPOS>UNITY_ATOM_ATTR
9 1
charge 1
10 1
charge -1
23 1
charge 1
25 1
charge -1
@<TRIPOS>BOND
     1    11    12    2
     2    12     1    1
     3     1     2   ar
     4     2     3   ar
     5     3     4   ar
     6     4    23    1
     7    23    24    2
     8    23    25    1
     9     4     5   ar
    10     5     6   ar
    11     6    19    1
    12    19    20    1
    13    19    21    1
    14    19    22    1
    15     6     7   ar
    16     7     8   ar
    17     8     9   ar
    18     9    10    1
    19    12    13   am
    20    13    14    1
    21    14    15    1
    22    15    16    1
    23    16    17    1
    24    17    18    1
    25     9     1   ar
    26    18    13    1
    27     8     3   ar
@<TRIPOS>MOLECULE
*****
 25 27 0 0 0
SMALL
GASTEIGER

@<TRIPOS>ATOM
      1 C         -13.9946   -2.3234   18.8613 C.ar    1  UNL1        0.3220
      2 S         -14.6586   -3.6372   18.5731 S.2     1  UNL1       -0.0010
      3 C         -13.6034   -4.7032   18.5886 C.ar    1  UNL1        0.1688
      4 C         -13.6710   -6.1857   18.3701 C.ar    1  UNL1        0.3018
      5 C         -12.4225   -7.0131   18.4493 C.ar    1  UNL1        0.0801
      6 C         -11.1063   -6.3582   18.7470 C.ar    1  UNL1        0.0835
      7 C         -11.0386   -4.8757   18.9655 C.ar    1  UNL1        0.0753
      8 C         -12.2872   -4.0483   18.8863 C.ar    1  UNL1        0.2492
      9 N         -12.5290   -2.5775   19.0548 N.ar    1  UNL1       -0.1519
     10 O         -11.4879   -1.5425   19.3628 O.co2   1  UNL1       -0.6185
     11 O         -15.7307   -0.7479   19.9809 O.2     1  UNL1       -0.2627
     12 C         -14.6764   -0.9898   18.9417 C.2     1  UNL1        0.3210
     13 N         -14.3040    0.1020   17.9830 N.am    1  UNL1       -0.2707
     14 C         -13.2496   -0.1398   16.9437 C.3     1  UNL1        0.0939
     15 C         -12.8772    0.9520   15.9850 C.3     1  UNL1        0.0216
     16 C         -13.5590    2.2856   16.0654 C.3     1  UNL1        0.0035
     17 C         -14.6133    2.5275   17.1046 C.3     1  UNL1        0.0216
     18 C         -14.9858    1.4356   18.0634 C.3     1  UNL1        0.0939
     19 C          -9.8576   -7.1857   18.8261 C.3     1  UNL1        0.4190
     20 F          -8.6091   -8.0132   18.9053 F       1  UNL1       -0.1659
     21 F         -10.4674   -8.1945   17.8986 F       1  UNL1       -0.1659
     22 F          -9.2479   -6.1769   19.7537 F       1  UNL1       -0.1659
     23 N         -14.9873   -6.8406   18.0724 N.pl3   1  UNL1        0.0817
     24 O         -15.5608   -6.7764   16.6879 O.2     1  UNL1        0.0415
     25 O         -15.7299   -7.5598   19.1592 O.co2   1  UNL1       -0.5760
@<TRIPOS>UNITY_ATOM_ATTR
9 1
charge 1
10 1
charge -1
23 1
charge 1
25 1
charge -1
@<TRIPOS>BOND
     1    11    12    2
     2    12     1    1
     3     1     2   ar
     4     2     3   ar
     5     3     4   ar
     6     4    23    1
     7    23    24    2
     8    23    25    1
     9     4     5   ar
    10     5     6   ar
    11     6    19    1
    12    19    20    1
    13    19    21    1
    14    19    22    1
    15     6     7   ar
    16     7     8   ar
    17     8     9   ar
    18     9    10    1
    19    12    13   am
    20    13    14    1
    21    14    15    1
    22    15    16    1
    23    16    17    1
    24    17    18    1
    25     9     1   ar
    26    18    13    1
    27     8     3   ar
@<TRIPOS>MOLECULE
*****
 25 27 0 0 0
SMALL
GASTEIGER

@<TRIPOS>ATOM
      1 C         -11.8429   -3.2801   18.7653 C.ar    1  UNL1        0.3220
      2 S         -11.6343   -1.9521   18.0998 S.2     1  UNL1       -0.0010
      3 C         -12.8273   -1.0925   18.3963 C.ar    1  UNL1        0.1688
      4 C         -13.1744    0.3128   18.0032 C.ar    1  UNL1        0.3018
      5 C         -14.4675    0.9213   18.4587 C.ar    1  UNL1        0.0801
      6 C         -15.4135    0.1246   19.3074 C.ar    1  UNL1        0.0835
      7 C         -15.0663   -1.2807   19.7006 C.ar    1  UNL1        0.0753
      8 C         -13.7732   -1.8892   19.2451 C.ar    1  UNL1        0.2492
      9 N         -13.1649   -3.2412   19.4731 N.ar    1  UNL1       -0.1519
     10 O         -13.7719   -4.3583   20.2691 O.co2   1  UNL1       -0.6185
     11 O          -9.6008   -4.3788   19.4832 O.2     1  UNL1       -0.2627
     12 C         -10.8959   -4.4428   18.7293 C.2     1  UNL1        0.3210
     13 N         -11.2441   -5.6695   17.9394 N.am    1  UNL1       -0.2707
     14 C         -12.5393   -5.7335   17.1854 C.3     1  UNL1        0.0939
     15 C         -12.8874   -6.9602   16.3955 C.3     1  UNL1        0.0216
     16 C         -11.9404   -8.1229   16.3595 C.3     1  UNL1        0.0035
     17 C         -10.6453   -8.0589   17.1134 C.3     1  UNL1        0.0216
     18 C         -10.2970   -6.8322   17.9034 C.3     1  UNL1        0.0939
     19 C         -16.7066    0.7332   19.7630 C.3     1  UNL1        0.4190
     20 F         -17.9997    1.3417   20.2186 F       1  UNL1       -0.1659
     21 F         -16.9678    1.2217   18.3691 F       1  UNL1       -0.1659
     22 F         -16.4454    0.2446   21.1569 F       1  UNL1       -0.1659
     23 N         -12.2285    1.1096   17.1545 N.pl3   1  UNL1        0.0817
     24 O         -11.5475    0.4656   15.9833 O.2     1  UNL1        0.0415
     25 O         -11.9635    2.5503   17.4768 O.co2   1  UNL1       -0.5760
@<TRIPOS>UNITY_ATOM_ATTR
9 1
charge 1
10 1
charge -1
23 1
charge 1
25 1
charge -1
@<TRIPOS>BOND
     1    11    12    2
     2    12     1    1
     3     1     2   ar
     4     2     3   ar
     5     3     4   ar
     6     4    23    1
     7    23    24    2
     8    23    25    1
     9     4     5   ar
    10     5     6   ar
    11     6    19    1
    12    19    20    1
    13    19    21    1
    14    19    22    1
    15     6     7   ar
    16     7     8   ar
    17     8     9   ar
    18     9    10    1
    19    12    13   am
    20    13    14    1
    21    14    15    1
    22    15    16    1
    23    16    17    1
    24    17    18    1
    25     9     1   ar
    26    18    13    1
    27     8     3   ar
