@<TRIPOS>MOLECULE
*****
 34 38 0 0 0
SMALL
GASTEIGER

@<TRIPOS>ATOM
      1 C          -5.4204  -19.9781   20.9582 C.3     1  UNL1        0.0749
      2 C          -4.8697  -18.8865   21.8271 C.3     1  UNL1        0.0444
      3 C          -3.5949  -18.1946   21.4446 C.ar    1  UNL1       -0.0101
      4 C          -2.8709  -18.5944   20.1932 C.ar    1  UNL1       -0.0091
      5 C          -1.5960  -17.9025   19.8108 C.ar    1  UNL1       -0.0032
      6 C          -1.0453  -16.8109   20.6797 C.ar    1  UNL1        0.0010
      7 C          -1.7694  -16.4111   21.9310 C.ar    1  UNL1        0.0142
      8 C          -3.0442  -17.1029   22.3135 C.ar    1  UNL1        0.0436
      9 C          -3.4216  -19.6861   19.3244 C.3     1  UNL1        0.0954
     10 N          -4.6963  -20.3779   19.7068 N.3     1  UNL1       -0.2934
     11 H          -4.4771  -21.3699   19.7976 H       1  UNL1        0.1236
     12 N          -3.7682  -16.7031   23.5649 N.pl3   1  UNL1       -0.3049
     13 C          -4.6482  -15.4883   23.5666 C.3     1  UNL1        0.1079
     14 C          -5.3723  -15.0885   24.8179 C.3     1  UNL1        0.0903
     15 N          -5.2163  -15.9035   26.0676 N.3     1  UNL1       -0.2946
     16 C          -4.3364  -17.1183   26.0658 C.3     1  UNL1        0.0903
     17 C          -3.6123  -17.5181   24.8145 C.3     1  UNL1        0.1079
     18 H          -6.1500  -16.2167   26.3333 H       1  UNL1        0.1233
     19 C          -6.6952  -20.6700   21.3406 C.3     1  UNL1        0.0886
     20 N          -7.9982  -19.9296   21.2785 N.3     1  UNL1       -0.2657
     21 C          -8.6496  -19.4506   22.5419 C.3     1  UNL1        0.0979
     22 C          -9.3149  -20.4315   23.4612 C.3     1  UNL1        0.0224
     23 C          -9.9664  -19.9524   24.7246 C.3     1  UNL1        0.0065
     24 C          -9.9525  -18.4925   25.0687 C.3     1  UNL1        0.0277
     25 C          -9.2872  -17.5116   24.1494 C.ar    1  UNL1       -0.0073
     26 C          -9.2733  -16.0517   24.4935 C.ar    1  UNL1       -0.0015
     27 C          -8.6080  -15.0708   23.5742 C.ar    1  UNL1        0.0203
     28 C          -7.9565  -15.5498   22.3108 C.ar    1  UNL1        0.0985
     29 N          -7.9704  -17.0097   21.9667 N.ar    1  UNL1       -0.2471
     30 C          -8.6357  -17.9906   22.8860 C.ar    1  UNL1        0.0695
     31 C          -8.6498  -19.6681   19.9529 C.3     1  UNL1        0.1048
     32 C         -10.0877  -19.2449   19.8945 C.3     1  UNL1        0.1595
     33 C         -11.4825  -17.1486   20.5349 C.3     1  UNL1        0.1742
     34 O         -10.4366  -17.8019   19.6807 O.3     1  UNL1       -0.3496
@<TRIPOS>BOND
     1    33    34    1
     2    34    32    1
     3    32    31    1
     4    31    20    1
     5    20    19    1
     6     1    19    1
     7     1     2    1
     8     2     3    1
     9     3     4   ar
    10     4     5   ar
    11     5     6   ar
    12     6     7   ar
    13     7     8   ar
    14     8    12    1
    15    12    13    1
    16    13    14    1
    17    14    15    1
    18    15    16    1
    19    16    17    1
    20     4     9    1
    21     9    10    1
    22    21    20    1
    23    21    22    1
    24    22    23    1
    25    23    24    1
    26    24    25    1
    27    25    26   ar
    28    26    27   ar
    29    27    28   ar
    30    28    29   ar
    31    29    30   ar
    32    10     1    1
    33    30    21    1
    34     8     3   ar
    35    17    12    1
    36    30    25   ar
    37    15    18    1
    38    10    11    1
@<TRIPOS>MOLECULE
*****
 34 38 0 0 0
SMALL
GASTEIGER

@<TRIPOS>ATOM
      1 C          -8.8977  -19.8875   23.0278 C.3     1  UNL1        0.0749
      2 C          -9.7431  -18.7633   22.5069 C.3     1  UNL1        0.0444
      3 C         -11.0505  -18.4399   23.1673 C.ar    1  UNL1       -0.0101
      4 C         -11.5124  -19.2407   24.3485 C.ar    1  UNL1       -0.0091
      5 C         -12.8198  -18.9173   25.0089 C.ar    1  UNL1       -0.0032
      6 C         -13.6653  -17.7930   24.4881 C.ar    1  UNL1        0.0010
      7 C         -13.2033  -16.9922   23.3068 C.ar    1  UNL1        0.0142
      8 C         -11.8960  -17.3156   22.6465 C.ar    1  UNL1        0.0436
      9 C         -10.6670  -20.3649   24.8694 C.3     1  UNL1        0.0954
     10 N          -9.3596  -20.6883   24.2090 N.3     1  UNL1       -0.2934
     11 H          -9.4170  -21.6594   23.9021 H       1  UNL1        0.1236
     12 N         -11.4341  -16.5148   21.4652 N.pl3   1  UNL1       -0.3049
     13 C         -12.2705  -16.4626   20.2211 C.3     1  UNL1        0.1079
     14 C         -11.8086  -15.6618   19.0399 C.3     1  UNL1        0.0903
     15 N         -10.5102  -14.9132   19.1028 N.3     1  UNL1       -0.2946
     16 C          -9.6738  -14.9654   20.3468 C.3     1  UNL1        0.0903
     17 C         -10.1358  -15.7662   21.5280 C.3     1  UNL1        0.1079
     18 H         -10.7283  -13.9309   18.9356 H       1  UNL1        0.1233
     19 C          -7.5902  -20.2110   22.3674 C.3     1  UNL1        0.0886
     20 N          -6.8476  -19.1480   21.6134 N.3     1  UNL1       -0.2657
     21 C          -6.0024  -18.1547   22.3542 C.3     1  UNL1        0.0979
     22 C          -6.6522  -17.0445   23.1256 C.3     1  UNL1        0.0224
     23 C          -5.8070  -16.0512   23.8664 C.3     1  UNL1        0.0065
     24 C          -4.3119  -16.1680   23.8358 C.3     1  UNL1        0.0277
     25 C          -3.6619  -17.2782   23.0643 C.ar    1  UNL1       -0.0073
     26 C          -2.1668  -17.3950   23.0336 C.ar    1  UNL1       -0.0015
     27 C          -1.5170  -18.5052   22.2622 C.ar    1  UNL1        0.0203
     28 C          -2.3623  -19.4985   21.5214 C.ar    1  UNL1        0.0985
     29 N          -3.8574  -19.3817   21.5520 N.ar    1  UNL1       -0.2471
     30 C          -4.5072  -18.2715   22.3235 C.ar    1  UNL1        0.0695
     31 C          -6.9503  -19.0783   20.1184 C.3     1  UNL1        0.1048
     32 C          -8.1163  -19.7088   19.4165 C.3     1  UNL1        0.1595
     33 C         -10.7065  -19.5097   19.3803 C.3     1  UNL1        0.1742
     34 O          -9.3537  -18.9049   19.1474 O.3     1  UNL1       -0.3496
@<TRIPOS>BOND
     1    33    34    1
     2    34    32    1
     3    32    31    1
     4    31    20    1
     5    20    19    1
     6     1    19    1
     7     1     2    1
     8     2     3    1
     9     3     4   ar
    10     4     5   ar
    11     5     6   ar
    12     6     7   ar
    13     7     8   ar
    14     8    12    1
    15    12    13    1
    16    13    14    1
    17    14    15    1
    18    15    16    1
    19    16    17    1
    20     4     9    1
    21     9    10    1
    22    21    20    1
    23    21    22    1
    24    22    23    1
    25    23    24    1
    26    24    25    1
    27    25    26   ar
    28    26    27   ar
    29    27    28   ar
    30    28    29   ar
    31    29    30   ar
    32    10     1    1
    33    30    21    1
    34     8     3   ar
    35    17    12    1
    36    30    25   ar
    37    15    18    1
    38    10    11    1
@<TRIPOS>MOLECULE
*****
 34 38 0 0 0
SMALL
GASTEIGER

@<TRIPOS>ATOM
      1 C          -8.8049  -19.8776   23.0160 C.3     1  UNL1        0.0749
      2 C          -9.6719  -18.7689   22.4974 C.3     1  UNL1        0.0444
      3 C         -10.9840  -18.4703   23.1601 C.ar    1  UNL1       -0.0101
      4 C         -11.4291  -19.2804   24.3414 C.ar    1  UNL1       -0.0091
      5 C         -12.7413  -18.9818   25.0042 C.ar    1  UNL1       -0.0032
      6 C         -13.6082  -17.8730   24.4856 C.ar    1  UNL1        0.0010
      7 C         -13.1631  -17.0629   23.3043 C.ar    1  UNL1        0.0142
      8 C         -11.8510  -17.3615   22.6415 C.ar    1  UNL1        0.0436
      9 C         -10.5621  -20.3892   24.8600 C.3     1  UNL1        0.0954
     10 N          -9.2501  -20.6878   24.1973 N.3     1  UNL1       -0.2934
     11 H          -9.2899  -21.6595   23.8898 H       1  UNL1        0.1236
     12 N         -11.4059  -16.5513   21.4602 N.pl3   1  UNL1       -0.3049
     13 C         -12.2314  -16.5354   20.2078 C.3     1  UNL1        0.1079
     14 C         -11.7862  -15.7252   19.0265 C.3     1  UNL1        0.0903
     15 N         -10.5157  -14.9310   19.0976 N.3     1  UNL1       -0.2946
     16 C          -9.6903  -14.9470   20.3499 C.3     1  UNL1        0.0903
     17 C         -10.1354  -15.7571   21.5313 C.3     1  UNL1        0.1079
     18 H         -10.7665  -13.9579   18.9226 H       1  UNL1        0.1233
     19 C          -7.4928  -20.1763   22.3533 C.3     1  UNL1        0.0886
     20 N          -6.7370  -19.0823   21.6591 N.3     1  UNL1       -0.2657
     21 C          -5.6244  -18.3710   22.3707 C.3     1  UNL1        0.0979
     22 C          -4.2049  -18.8147   22.1757 C.3     1  UNL1        0.0224
     23 C          -3.0924  -18.1035   22.8873 C.3     1  UNL1        0.0065
     24 C          -3.3993  -16.9485   23.7938 C.3     1  UNL1        0.0277
     25 C          -4.8189  -16.5048   23.9889 C.ar    1  UNL1       -0.0073
     26 C          -5.1259  -15.3499   24.8954 C.ar    1  UNL1       -0.0015
     27 C          -6.5454  -14.9062   25.0904 C.ar    1  UNL1        0.0203
     28 C          -7.6580  -15.6174   24.3788 C.ar    1  UNL1        0.0985
     29 N          -7.3510  -16.7724   23.4722 N.ar    1  UNL1       -0.2471
     30 C          -5.9315  -17.2161   23.2773 C.ar    1  UNL1        0.0695
     31 C          -7.0938  -18.6995   20.2533 C.3     1  UNL1        0.1048
     32 C          -7.8211  -19.6719   19.3728 C.3     1  UNL1        0.1595
     33 C         -10.4168  -19.5623   19.3871 C.3     1  UNL1        0.1742
     34 O          -9.1079  -19.2705   18.7149 O.3     1  UNL1       -0.3496
@<TRIPOS>BOND
     1    33    34    1
     2    34    32    1
     3    32    31    1
     4    31    20    1
     5    20    19    1
     6     1    19    1
     7     1     2    1
     8     2     3    1
     9     3     4   ar
    10     4     5   ar
    11     5     6   ar
    12     6     7   ar
    13     7     8   ar
    14     8    12    1
    15    12    13    1
    16    13    14    1
    17    14    15    1
    18    15    16    1
    19    16    17    1
    20     4     9    1
    21     9    10    1
    22    21    20    1
    23    21    22    1
    24    22    23    1
    25    23    24    1
    26    24    25    1
    27    25    26   ar
    28    26    27   ar
    29    27    28   ar
    30    28    29   ar
    31    29    30   ar
    32    10     1    1
    33    30    21    1
    34     8     3   ar
    35    17    12    1
    36    30    25   ar
    37    15    18    1
    38    10    11    1
@<TRIPOS>MOLECULE
*****
 34 38 0 0 0
SMALL
GASTEIGER

@<TRIPOS>ATOM
      1 C          -7.0649  -17.6653   22.7114 C.3     1  UNL1        0.0749
      2 C          -5.7227  -17.8946   22.0822 C.3     1  UNL1        0.0444
      3 C          -5.4601  -19.1561   21.3143 C.ar    1  UNL1       -0.0101
      4 C          -6.5396  -20.1882   21.1756 C.ar    1  UNL1       -0.0091
      5 C          -6.2769  -21.4498   20.4077 C.ar    1  UNL1       -0.0032
      6 C          -4.9347  -21.6791   19.7785 C.ar    1  UNL1        0.0010
      7 C          -3.8552  -20.6469   19.9172 C.ar    1  UNL1        0.0142
      8 C          -4.1178  -19.3854   20.6851 C.ar    1  UNL1        0.0436
      9 C          -7.8818  -19.9589   21.8048 C.3     1  UNL1        0.0954
     10 N          -8.1444  -18.6975   22.5727 N.3     1  UNL1       -0.2934
     11 H          -8.4074  -18.9773   23.5176 H       1  UNL1        0.1236
     12 N          -3.0383  -18.3533   20.8238 N.pl3   1  UNL1       -0.3049
     13 C          -1.9360  -18.2798   19.8090 C.3     1  UNL1        0.1079
     14 C          -0.8565  -17.2476   19.9477 C.3     1  UNL1        0.0903
     15 N          -0.8792  -16.2890   21.1013 N.3     1  UNL1       -0.2946
     16 C          -1.9814  -16.3625   22.1160 C.3     1  UNL1        0.0903
     17 C          -3.0609  -17.3947   21.9773 C.3     1  UNL1        0.1079
     18 H          -0.9074  -15.3502   20.7034 H       1  UNL1        0.1233
     19 C          -7.3276  -16.4038   23.4793 C.3     1  UNL1        0.0886
     20 N          -8.5166  -16.3135   24.3892 N.3     1  UNL1       -0.2657
     21 C          -9.7446  -17.1256   24.1016 C.3     1  UNL1        0.0979
     22 C         -10.2002  -18.1682   25.0790 C.3     1  UNL1        0.0224
     23 C         -11.4281  -18.9803   24.7914 C.3     1  UNL1        0.0065
     24 C         -12.2004  -18.7498   23.5263 C.3     1  UNL1        0.0277
     25 C         -11.7448  -17.7071   22.5489 C.ar    1  UNL1       -0.0073
     26 C         -12.5172  -17.4766   21.2839 C.ar    1  UNL1       -0.0015
     27 C         -12.0616  -16.4339   20.3065 C.ar    1  UNL1        0.0203
     28 C         -10.8337  -15.6219   20.5941 C.ar    1  UNL1        0.0985
     29 N         -10.0613  -15.8524   21.8591 N.ar    1  UNL1       -0.2471
     30 C         -10.5169  -16.8950   22.8365 C.ar    1  UNL1        0.0695
     31 C          -8.4778  -15.4111   25.5868 C.3     1  UNL1        0.1048
     32 C          -7.8503  -15.8861   26.8638 C.3     1  UNL1        0.1595
     33 C          -5.4684  -15.1299   26.1536 C.3     1  UNL1        0.1742
     34 O          -6.4657  -15.4405   27.2301 O.3     1  UNL1       -0.3496
@<TRIPOS>BOND
     1    33    34    1
     2    34    32    1
     3    32    31    1
     4    31    20    1
     5    20    19    1
     6     1    19    1
     7     1     2    1
     8     2     3    1
     9     3     4   ar
    10     4     5   ar
    11     5     6   ar
    12     6     7   ar
    13     7     8   ar
    14     8    12    1
    15    12    13    1
    16    13    14    1
    17    14    15    1
    18    15    16    1
    19    16    17    1
    20     4     9    1
    21     9    10    1
    22    21    20    1
    23    21    22    1
    24    22    23    1
    25    23    24    1
    26    24    25    1
    27    25    26   ar
    28    26    27   ar
    29    27    28   ar
    30    28    29   ar
    31    29    30   ar
    32    10     1    1
    33    30    21    1
    34     8     3   ar
    35    17    12    1
    36    30    25   ar
    37    15    18    1
    38    10    11    1
@<TRIPOS>MOLECULE
*****
 34 38 0 0 0
SMALL
GASTEIGER

@<TRIPOS>ATOM
      1 C          -8.8761  -19.8582   23.2474 C.3     1  UNL1        0.0749
      2 C          -9.6925  -18.7399   22.6705 C.3     1  UNL1        0.0444
      3 C         -11.0478  -18.4323   23.2349 C.ar    1  UNL1       -0.0101
      4 C         -11.5866  -19.2429   24.3762 C.ar    1  UNL1       -0.0091
      5 C         -12.9419  -18.9352   24.9406 C.ar    1  UNL1       -0.0032
      6 C         -13.7584  -17.8170   24.3636 C.ar    1  UNL1        0.0010
      7 C         -13.2196  -17.0064   23.2223 C.ar    1  UNL1        0.0142
      8 C         -11.8643  -17.3140   22.6579 C.ar    1  UNL1        0.0436
      9 C         -10.7701  -20.3611   24.9531 C.3     1  UNL1        0.0954
     10 N          -9.4149  -20.6688   24.3888 N.3     1  UNL1       -0.2934
     11 H          -9.4399  -21.6389   24.0749 H       1  UNL1        0.1236
     12 N         -11.3255  -16.5034   21.5166 N.pl3   1  UNL1       -0.3049
     13 C         -10.0514  -15.7292   21.6823 C.3     1  UNL1        0.1079
     14 C          -9.5126  -14.9186   20.5409 C.3     1  UNL1        0.0903
     15 N         -10.2479  -14.8822   19.2340 N.3     1  UNL1       -0.2946
     16 C         -11.5219  -15.6564   19.0684 C.3     1  UNL1        0.0903
     17 C         -12.0607  -16.4670   20.2097 C.3     1  UNL1        0.1079
     18 H          -9.6013  -15.2236   18.5228 H       1  UNL1        0.1233
     19 C          -7.5207  -20.1658   22.6831 C.3     1  UNL1        0.0886
     20 N          -7.1192  -19.6082   21.3497 N.3     1  UNL1       -0.2657
     21 C          -5.6725  -19.5763   20.9549 C.3     1  UNL1        0.0979
     22 C          -5.1621  -20.5127   19.9001 C.3     1  UNL1        0.0224
     23 C          -3.7153  -20.4808   19.5053 C.3     1  UNL1        0.0065
     24 C          -2.7790  -19.5126   20.1653 C.3     1  UNL1        0.0277
     25 C          -3.2893  -18.5761   21.2202 C.ar    1  UNL1       -0.0073
     26 C          -2.3530  -17.6079   21.8802 C.ar    1  UNL1       -0.0015
     27 C          -2.8633  -16.6715   22.9350 C.ar    1  UNL1        0.0203
     28 C          -4.3101  -16.7034   23.3298 C.ar    1  UNL1        0.0985
     29 N          -5.2465  -17.6716   22.6698 N.ar    1  UNL1       -0.2471
     30 C          -4.7361  -18.6080   21.6150 C.ar    1  UNL1        0.0695
     31 C          -8.1646  -19.0824   20.4111 C.3     1  UNL1        0.1048
     32 C          -8.2248  -19.5837   18.9987 C.3     1  UNL1        0.1595
     33 C          -9.0342  -21.4436   17.3752 C.3     1  UNL1        0.1742
     34 O          -9.2363  -20.6224   18.6141 O.3     1  UNL1       -0.3496
@<TRIPOS>BOND
     1    33    34    1
     2    34    32    1
     3    32    31    1
     4    31    20    1
     5    20    19    1
     6     1    19    1
     7     1     2    1
     8     2     3    1
     9     3     4   ar
    10     4     5   ar
    11     5     6   ar
    12     6     7   ar
    13     7     8   ar
    14     8    12    1
    15    12    13    1
    16    13    14    1
    17    14    15    1
    18    15    16    1
    19    16    17    1
    20     4     9    1
    21     9    10    1
    22    21    20    1
    23    21    22    1
    24    22    23    1
    25    23    24    1
    26    24    25    1
    27    25    26   ar
    28    26    27   ar
    29    27    28   ar
    30    28    29   ar
    31    29    30   ar
    32    10     1    1
    33    30    21    1
    34     8     3   ar
    35    17    12    1
    36    30    25   ar
    37    15    18    1
    38    10    11    1
@<TRIPOS>MOLECULE
*****
 34 38 0 0 0
SMALL
GASTEIGER

@<TRIPOS>ATOM
      1 C          -8.8730  -19.7464   23.1436 C.3     1  UNL1        0.0749
      2 C          -9.7373  -18.6650   22.5662 C.3     1  UNL1        0.0444
      3 C         -11.0827  -18.3803   23.1651 C.ar    1  UNL1       -0.0101
      4 C         -11.5638  -19.1770   24.3415 C.ar    1  UNL1       -0.0091
      5 C         -12.9093  -18.8922   24.9404 C.ar    1  UNL1       -0.0032
      6 C         -13.7736  -17.8108   24.3629 C.ar    1  UNL1        0.0010
      7 C         -13.2925  -17.0141   23.1866 C.ar    1  UNL1        0.0142
      8 C         -11.9471  -17.2988   22.5877 C.ar    1  UNL1        0.0436
      9 C         -10.6995  -20.2584   24.9189 C.3     1  UNL1        0.0954
     10 N          -9.3541  -20.5431   24.3200 N.3     1  UNL1       -0.2934
     11 H          -9.3619  -21.5210   24.0300 H       1  UNL1        0.1236
     12 N         -11.4660  -16.5021   21.4113 N.pl3   1  UNL1       -0.3049
     13 C         -12.2569  -16.4945   20.1367 C.3     1  UNL1        0.1079
     14 C         -11.7758  -15.6978   18.9603 C.3     1  UNL1        0.0903
     15 N         -10.5038  -14.9088   19.0586 N.3     1  UNL1       -0.2946
     16 C          -9.7130  -14.9164   20.3331 C.3     1  UNL1        0.0903
     17 C         -10.1941  -15.7131   21.5095 C.3     1  UNL1        0.1079
     18 H         -10.7451  -13.9363   18.8676 H       1  UNL1        0.1233
     19 C          -7.5275  -20.0312   22.5447 C.3     1  UNL1        0.0886
     20 N          -6.6869  -18.9054   22.0195 N.3     1  UNL1       -0.2657
     21 C          -5.4319  -19.2008   21.2529 C.3     1  UNL1        0.0979
     22 C          -5.4134  -20.3099   20.2432 C.3     1  UNL1        0.0224
     23 C          -4.1584  -20.6054   19.4765 C.3     1  UNL1        0.0065
     24 C          -2.9219  -19.7917   19.7196 C.3     1  UNL1        0.0277
     25 C          -2.9404  -18.6825   20.7293 C.ar    1  UNL1       -0.0073
     26 C          -1.7040  -17.8689   20.9723 C.ar    1  UNL1       -0.0015
     27 C          -1.7225  -16.7598   21.9820 C.ar    1  UNL1        0.0203
     28 C          -2.9775  -16.4644   22.7487 C.ar    1  UNL1        0.0985
     29 N          -4.2139  -17.2780   22.5056 N.ar    1  UNL1       -0.2471
     30 C          -4.1954  -18.3871   21.4959 C.ar    1  UNL1        0.0695
     31 C          -7.1012  -17.4840   22.2609 C.3     1  UNL1        0.1048
     32 C          -6.9226  -16.8710   23.6182 C.3     1  UNL1        0.1595
     33 C          -8.8596  -15.7291   24.9198 C.3     1  UNL1        0.1742
     34 O          -7.6869  -15.6348   23.9892 O.3     1  UNL1       -0.3496
@<TRIPOS>BOND
     1    33    34    1
     2    34    32    1
     3    32    31    1
     4    31    20    1
     5    20    19    1
     6     1    19    1
     7     1     2    1
     8     2     3    1
     9     3     4   ar
    10     4     5   ar
    11     5     6   ar
    12     6     7   ar
    13     7     8   ar
    14     8    12    1
    15    12    13    1
    16    13    14    1
    17    14    15    1
    18    15    16    1
    19    16    17    1
    20     4     9    1
    21     9    10    1
    22    21    20    1
    23    21    22    1
    24    22    23    1
    25    23    24    1
    26    24    25    1
    27    25    26   ar
    28    26    27   ar
    29    27    28   ar
    30    28    29   ar
    31    29    30   ar
    32    10     1    1
    33    30    21    1
    34     8     3   ar
    35    17    12    1
    36    30    25   ar
    37    15    18    1
    38    10    11    1
@<TRIPOS>MOLECULE
*****
 34 38 0 0 0
SMALL
GASTEIGER

@<TRIPOS>ATOM
      1 C           4.2011   -1.8885   24.1348 C.3     1  UNL1        0.0749
      2 C           3.6359   -1.3629   22.8487 C.3     1  UNL1        0.0444
      3 C           3.9643   -2.0420   21.5522 C.ar    1  UNL1       -0.0101
      4 C           4.8581   -3.2467   21.5419 C.ar    1  UNL1       -0.0091
      5 C           5.1865   -3.9257   20.2453 C.ar    1  UNL1       -0.0032
      6 C           4.6213   -3.4002   18.9592 C.ar    1  UNL1        0.0010
      7 C           3.7275   -2.1956   18.9695 C.ar    1  UNL1        0.0142
      8 C           3.3991   -1.5165   20.2660 C.ar    1  UNL1        0.0436
      9 C           5.4233   -3.7722   22.8280 C.3     1  UNL1        0.0954
     10 N           5.0949   -3.0931   24.1245 N.3     1  UNL1       -0.2934
     11 H           5.9813   -2.8056   24.5392 H       1  UNL1        0.1236
     12 N           2.5053   -0.3119   20.2763 N.pl3   1  UNL1       -0.3049
     13 C           1.0158   -0.4835   20.3212 C.3     1  UNL1        0.1079
     14 C           0.1221    0.7212   20.3315 C.3     1  UNL1        0.0903
     15 N           0.7178    2.0974   20.2969 N.3     1  UNL1       -0.2946
     16 C           2.2073    2.2689   20.2520 C.3     1  UNL1        0.0903
     17 C           3.1010    1.0643   20.2417 C.3     1  UNL1        0.1079
     18 H           0.3908    2.5809   21.1334 H       1  UNL1        0.1233
     19 C           3.8727   -1.2094   25.4314 C.3     1  UNL1        0.0886
     20 N           3.6516    0.2738   25.4663 N.3     1  UNL1       -0.2657
     21 C           2.2585    0.8262   25.4021 C.3     1  UNL1        0.0979
     22 C           1.7316    1.3842   24.1133 C.3     1  UNL1        0.0224
     23 C           0.3385    1.9366   24.0491 C.3     1  UNL1        0.0065
     24 C          -0.5277    1.9310   25.2737 C.3     1  UNL1        0.0277
     25 C          -0.0008    1.3730   26.5625 C.ar    1  UNL1       -0.0073
     26 C          -0.8670    1.3674   27.7871 C.ar    1  UNL1       -0.0015
     27 C          -0.3401    0.8094   29.0759 C.ar    1  UNL1        0.0203
     28 C           1.0530    0.2570   29.1401 C.ar    1  UNL1        0.0985
     29 N           1.9192    0.2626   27.9155 N.ar    1  UNL1       -0.2471
     30 C           1.3923    0.8206   26.6267 C.ar    1  UNL1        0.0695
     31 C           4.8237    1.2047   25.5654 C.3     1  UNL1        0.1048
     32 C           5.7208    1.4098   24.3808 C.3     1  UNL1        0.1595
     33 C           7.1140   -0.0191   22.7172 C.3     1  UNL1        0.1742
     34 O           6.8438    0.4514   24.1157 O.3     1  UNL1       -0.3496
@<TRIPOS>BOND
     1    33    34    1
     2    34    32    1
     3    32    31    1
     4    31    20    1
     5    20    19    1
     6     1    19    1
     7     1     2    1
     8     2     3    1
     9     3     4   ar
    10     4     5   ar
    11     5     6   ar
    12     6     7   ar
    13     7     8   ar
    14     8    12    1
    15    12    13    1
    16    13    14    1
    17    14    15    1
    18    15    16    1
    19    16    17    1
    20     4     9    1
    21     9    10    1
    22    21    20    1
    23    21    22    1
    24    22    23    1
    25    23    24    1
    26    24    25    1
    27    25    26   ar
    28    26    27   ar
    29    27    28   ar
    30    28    29   ar
    31    29    30   ar
    32    10     1    1
    33    30    21    1
    34     8     3   ar
    35    17    12    1
    36    30    25   ar
    37    15    18    1
    38    10    11    1
@<TRIPOS>MOLECULE
*****
 34 38 0 0 0
SMALL
GASTEIGER

@<TRIPOS>ATOM
      1 C          -7.5626  -16.0020   23.0818 C.3     1  UNL1        0.0749
      2 C          -8.2113  -17.0470   22.2234 C.3     1  UNL1        0.0444
      3 C          -9.6842  -17.3054   22.3406 C.ar    1  UNL1       -0.0101
      4 C         -10.5083  -16.5188   23.3163 C.ar    1  UNL1       -0.0091
      5 C         -11.9813  -16.7773   23.4335 C.ar    1  UNL1       -0.0032
      6 C         -12.6300  -17.8223   22.5750 C.ar    1  UNL1        0.0010
      7 C         -11.8058  -18.6090   21.5994 C.ar    1  UNL1        0.0142
      8 C         -10.3329  -18.3506   21.4822 C.ar    1  UNL1        0.0436
      9 C          -9.8596  -15.4737   24.1747 C.3     1  UNL1        0.0954
     10 N          -8.3867  -15.2153   24.0575 N.3     1  UNL1       -0.2934
     11 H          -7.9849  -15.3779   24.9808 H       1  UNL1        0.1236
     12 N          -9.5088  -19.1372   20.5065 N.pl3   1  UNL1       -0.3049
     13 C          -8.0518  -19.3731   20.7744 C.3     1  UNL1        0.1079
     14 C          -7.2276  -20.1598   19.7987 C.3     1  UNL1        0.0903
     15 N          -7.8604  -20.7105   18.5551 N.3     1  UNL1       -0.2946
     16 C          -9.3173  -20.4745   18.2873 C.3     1  UNL1        0.0903
     17 C         -10.1415  -19.6879   19.2630 C.3     1  UNL1        0.1079
     18 H          -7.7253  -21.7212   18.5788 H       1  UNL1        0.1233
     19 C          -6.0896  -15.7435   22.9646 C.3     1  UNL1        0.0886
     20 N          -5.1096  -16.6932   23.5873 N.3     1  UNL1       -0.2657
     21 C          -4.5013  -17.7897   22.7642 C.3     1  UNL1        0.0979
     22 C          -5.1494  -19.1417   22.7195 C.3     1  UNL1        0.0224
     23 C          -4.5411  -20.2382   21.8964 C.3     1  UNL1        0.0065
     24 C          -3.2846  -19.9828   21.1179 C.3     1  UNL1        0.0277
     25 C          -2.6365  -18.6307   21.1625 C.ar    1  UNL1       -0.0073
     26 C          -1.3800  -18.3753   20.3841 C.ar    1  UNL1       -0.0015
     27 C          -0.7319  -17.0233   20.4287 C.ar    1  UNL1        0.0203
     28 C          -1.3402  -15.9268   21.2519 C.ar    1  UNL1        0.0985
     29 N          -2.5967  -16.1822   22.0303 N.ar    1  UNL1       -0.2471
     30 C          -3.2448  -17.5342   21.9857 C.ar    1  UNL1        0.0695
     31 C          -4.7379  -16.5463   25.0331 C.3     1  UNL1        0.1048
     32 C          -5.0908  -15.2910   25.7744 C.3     1  UNL1        0.1595
     33 C          -6.9753  -16.0863   27.3764 C.3     1  UNL1        0.1742
     34 O          -6.4662  -15.1202   26.3480 O.3     1  UNL1       -0.3496
@<TRIPOS>BOND
     1    33    34    1
     2    34    32    1
     3    32    31    1
     4    31    20    1
     5    20    19    1
     6     1    19    1
     7     1     2    1
     8     2     3    1
     9     3     4   ar
    10     4     5   ar
    11     5     6   ar
    12     6     7   ar
    13     7     8   ar
    14     8    12    1
    15    12    13    1
    16    13    14    1
    17    14    15    1
    18    15    16    1
    19    16    17    1
    20     4     9    1
    21     9    10    1
    22    21    20    1
    23    21    22    1
    24    22    23    1
    25    23    24    1
    26    24    25    1
    27    25    26   ar
    28    26    27   ar
    29    27    28   ar
    30    28    29   ar
    31    29    30   ar
    32    10     1    1
    33    30    21    1
    34     8     3   ar
    35    17    12    1
    36    30    25   ar
    37    15    18    1
    38    10    11    1
@<TRIPOS>MOLECULE
*****
 34 38 0 0 0
SMALL
GASTEIGER

@<TRIPOS>ATOM
      1 C           6.6253   -3.9074   24.8557 C.3     1  UNL1        0.0749
      2 C           7.1660   -4.4291   26.1539 C.3     1  UNL1        0.0444
      3 C           7.9557   -5.7041   26.1792 C.ar    1  UNL1       -0.0101
      4 C           8.2046   -6.4575   24.9062 C.ar    1  UNL1       -0.0091
      5 C           8.9943   -7.7326   24.9315 C.ar    1  UNL1       -0.0032
      6 C           9.5350   -8.2542   26.2297 C.ar    1  UNL1        0.0010
      7 C           9.2861   -7.5009   27.5027 C.ar    1  UNL1        0.0142
      8 C           8.4964   -6.2258   27.4774 C.ar    1  UNL1        0.0436
      9 C           7.6639   -5.9358   23.6080 C.3     1  UNL1        0.0954
     10 N           6.8742   -4.6608   23.5827 N.3     1  UNL1       -0.2934
     11 H           5.9601   -4.8883   23.1916 H       1  UNL1        0.1236
     12 N           8.2475   -5.4725   28.7504 N.pl3   1  UNL1       -0.3049
     13 C           9.1953   -4.3921   29.1802 C.3     1  UNL1        0.1079
     14 C           8.9463   -3.6388   30.4531 C.3     1  UNL1        0.0903
     15 N           7.7496   -3.9657   31.2964 N.3     1  UNL1       -0.2946
     16 C           6.8018   -5.0460   30.8666 C.3     1  UNL1        0.0903
     17 C           7.0508   -5.7994   29.5936 C.3     1  UNL1        0.1079
     18 H           7.2025   -3.1086   31.3760 H       1  UNL1        0.1233
     19 C           5.8356   -2.6323   24.8304 C.3     1  UNL1        0.0886
     20 N           5.9712   -1.6890   23.6720 N.3     1  UNL1       -0.2657
     21 C           4.8234   -1.4925   22.7265 C.3     1  UNL1        0.0979
     22 C           3.7662   -0.4732   23.0319 C.3     1  UNL1        0.0224
     23 C           2.6185   -0.2766   22.0864 C.3     1  UNL1        0.0065
     24 C           2.5279   -1.0993   20.8355 C.3     1  UNL1        0.0277
     25 C           3.5851   -2.1186   20.5300 C.ar    1  UNL1       -0.0073
     26 C           3.4946   -2.9413   19.2791 C.ar    1  UNL1       -0.0015
     27 C           4.5518   -3.9606   18.9736 C.ar    1  UNL1        0.0203
     28 C           5.6995   -4.1572   19.9192 C.ar    1  UNL1        0.0985
     29 N           5.7901   -3.3345   21.1701 N.ar    1  UNL1       -0.2471
     30 C           4.7329   -2.3152   21.4755 C.ar    1  UNL1        0.0695
     31 C           7.2546   -0.9423   23.4592 C.3     1  UNL1        0.1048
     32 C           8.2771   -1.4677   22.4957 C.3     1  UNL1        0.1595
     33 C           7.6954   -0.3338   20.2317 C.3     1  UNL1        0.1742
     34 O           8.6881   -0.6410   21.3135 O.3     1  UNL1       -0.3496
@<TRIPOS>BOND
     1    33    34    1
     2    34    32    1
     3    32    31    1
     4    31    20    1
     5    20    19    1
     6     1    19    1
     7     1     2    1
     8     2     3    1
     9     3     4   ar
    10     4     5   ar
    11     5     6   ar
    12     6     7   ar
    13     7     8   ar
    14     8    12    1
    15    12    13    1
    16    13    14    1
    17    14    15    1
    18    15    16    1
    19    16    17    1
    20     4     9    1
    21     9    10    1
    22    21    20    1
    23    21    22    1
    24    22    23    1
    25    23    24    1
    26    24    25    1
    27    25    26   ar
    28    26    27   ar
    29    27    28   ar
    30    28    29   ar
    31    29    30   ar
    32    10     1    1
    33    30    21    1
    34     8     3   ar
    35    17    12    1
    36    30    25   ar
    37    15    18    1
    38    10    11    1
