@<TRIPOS>MOLECULE
*****
 21 23 0 0 0
SMALL
GASTEIGER

@<TRIPOS>ATOM
      1 C          -6.6688  -16.2333   23.9868 C.3     1  UNL1        0.0625
      2 C          -5.1735  -16.1204   24.0212 C.3     1  UNL1        0.0210
      3 C          -4.3299  -17.0962   23.2556 C.3     1  UNL1        0.0274
      4 C          -4.9817  -18.1850   22.4555 C.ar    1  UNL1       -0.0257
      5 C          -4.1381  -19.1607   21.6899 C.ar    1  UNL1       -0.0046
      6 C          -4.7899  -20.2494   20.8900 C.ar    1  UNL1       -0.0003
      7 C          -6.2853  -20.3622   20.8556 C.ar    1  UNL1       -0.0003
      8 C          -7.1288  -19.3865   21.6212 C.ar    1  UNL1       -0.0042
      9 C          -6.4771  -18.2978   22.4212 C.ar    1  UNL1       -0.0211
     10 C          -7.3206  -17.3220   23.1869 C.3     1  UNL1        0.0586
     11 C          -8.8160  -17.4348   23.1525 C.ar    1  UNL1       -0.0162
     12 C          -9.5298  -18.2587   24.1830 C.ar    1  UNL1       -0.0030
     13 C         -11.0251  -18.3716   24.1486 C.ar    1  UNL1        0.0119
     14 C         -11.8067  -17.6605   23.0838 C.ar    1  UNL1        0.0682
     15 CL        -13.3020  -17.7734   23.0495 Cl      1  UNL1       -0.0814
     16 C         -11.0929  -16.8367   22.0535 C.ar    1  UNL1        0.0679
     17 CL        -11.8744  -16.1256   20.9887 Cl      1  UNL1       -0.0814
     18 C          -9.5975  -16.7238   22.0878 C.ar    1  UNL1        0.0083
     19 C          -7.8362  -15.5157   26.1941 C.3     1  UNL1        0.0859
     20 N          -7.5124  -15.2574   24.7525 N.3     1  UNL1       -0.2968
     21 H          -7.0306  -14.3592   24.7152 H       1  UNL1        0.1233
@<TRIPOS>BOND
     1    19    20    1
     2     1    20    1
     3     1     2    1
     4     2     3    1
     5     3     4    1
     6     4     5   ar
     7     5     6   ar
     8     6     7   ar
     9     7     8   ar
    10     8     9   ar
    11     9    10    1
    12    10    11    1
    13    11    12   ar
    14    12    13   ar
    15    13    14   ar
    16    14    15    1
    17    14    16   ar
    18    16    17    1
    19    16    18   ar
    20    10     1    1
    21    18    11   ar
    22     9     4   ar
    23    20    21    1
@<TRIPOS>MOLECULE
*****
 21 23 0 0 0
SMALL
GASTEIGER

@<TRIPOS>ATOM
      1 C          -5.9166  -16.7388   23.7068 C.3     1  UNL1        0.0625
      2 C          -4.4244  -16.8918   23.7055 C.3     1  UNL1        0.0210
      3 C          -3.7776  -17.9284   22.8354 C.3     1  UNL1        0.0274
      4 C          -4.6229  -18.8120   21.9667 C.ar    1  UNL1       -0.0257
      5 C          -3.9760  -19.8486   21.0967 C.ar    1  UNL1       -0.0046
      6 C          -4.8214  -20.7322   20.2280 C.ar    1  UNL1       -0.0003
      7 C          -6.3135  -20.5792   20.2294 C.ar    1  UNL1       -0.0003
      8 C          -6.9604  -19.5426   21.0994 C.ar    1  UNL1       -0.0042
      9 C          -6.1151  -18.6590   21.9681 C.ar    1  UNL1       -0.0211
     10 C          -6.7619  -17.6224   22.8381 C.3     1  UNL1        0.0586
     11 C          -8.2541  -17.4694   22.8395 C.ar    1  UNL1       -0.0162
     12 C          -8.9039  -16.4456   21.9565 C.ar    1  UNL1       -0.0030
     13 C         -10.3960  -16.2926   21.9578 C.ar    1  UNL1        0.0119
     14 C         -11.2384  -17.1634   22.8422 C.ar    1  UNL1        0.0682
     15 CL        -12.7306  -17.0104   22.8436 Cl      1  UNL1       -0.0814
     16 C         -10.5887  -18.1871   23.7252 C.ar    1  UNL1        0.0679
     17 CL        -11.4311  -19.0579   24.6096 Cl      1  UNL1       -0.0814
     18 C          -9.0965  -18.3401   23.7238 C.ar    1  UNL1        0.0083
     19 C          -5.8472  -15.1887   25.7907 C.3     1  UNL1        0.0859
     20 N          -6.5634  -15.7021   24.5769 N.3     1  UNL1       -0.2968
     21 H          -6.7517  -14.8948   23.9827 H       1  UNL1        0.1233
@<TRIPOS>BOND
     1    19    20    1
     2     1    20    1
     3     1     2    1
     4     2     3    1
     5     3     4    1
     6     4     5   ar
     7     5     6   ar
     8     6     7   ar
     9     7     8   ar
    10     8     9   ar
    11     9    10    1
    12    10    11    1
    13    11    12   ar
    14    12    13   ar
    15    13    14   ar
    16    14    15    1
    17    14    16   ar
    18    16    17    1
    19    16    18   ar
    20    10     1    1
    21    18    11   ar
    22     9     4   ar
    23    20    21    1
@<TRIPOS>MOLECULE
*****
 21 23 0 0 0
SMALL
GASTEIGER

@<TRIPOS>ATOM
      1 C         -10.3091  -16.9406   21.6975 C.3     1  UNL1        0.0625
      2 C         -10.8740  -17.5667   20.4570 C.3     1  UNL1        0.0210
      3 C         -10.1061  -18.6382   19.7413 C.3     1  UNL1        0.0274
      4 C          -8.7734  -19.0837   20.2661 C.ar    1  UNL1       -0.0257
      5 C          -8.0055  -20.1552   19.5504 C.ar    1  UNL1       -0.0046
      6 C          -6.6728  -20.6006   20.0752 C.ar    1  UNL1       -0.0003
      7 C          -6.1080  -19.9745   21.3158 C.ar    1  UNL1       -0.0003
      8 C          -6.8758  -18.9030   22.0315 C.ar    1  UNL1       -0.0042
      9 C          -8.2085  -18.4576   21.5066 C.ar    1  UNL1       -0.0211
     10 C          -8.9764  -17.3860   22.2223 C.3     1  UNL1        0.0586
     11 C          -8.4115  -16.7599   23.4629 C.ar    1  UNL1       -0.0162
     12 C          -7.3500  -15.7057   23.3543 C.ar    1  UNL1       -0.0030
     13 C          -6.7851  -15.0796   24.5948 C.ar    1  UNL1        0.0119
     14 C          -7.2818  -15.5077   25.9439 C.ar    1  UNL1        0.0682
     15 CL         -6.7169  -14.8816   27.1845 Cl      1  UNL1       -0.0814
     16 C          -8.3433  -16.5619   26.0525 C.ar    1  UNL1        0.0679
     17 CL         -8.8400  -16.9900   27.4016 Cl      1  UNL1       -0.0814
     18 C          -8.9082  -17.1880   24.8119 C.ar    1  UNL1        0.0083
     19 C         -12.5522  -16.0250   22.6358 C.3     1  UNL1        0.0859
     20 N         -11.0770  -15.8691   22.4132 N.3     1  UNL1       -0.2968
     21 H         -10.6497  -15.7654   23.3336 H       1  UNL1        0.1233
@<TRIPOS>BOND
     1    19    20    1
     2     1    20    1
     3     1     2    1
     4     2     3    1
     5     3     4    1
     6     4     5   ar
     7     5     6   ar
     8     6     7   ar
     9     7     8   ar
    10     8     9   ar
    11     9    10    1
    12    10    11    1
    13    11    12   ar
    14    12    13   ar
    15    13    14   ar
    16    14    15    1
    17    14    16   ar
    18    16    17    1
    19    16    18   ar
    20    10     1    1
    21    18    11   ar
    22     9     4   ar
    23    20    21    1
@<TRIPOS>MOLECULE
*****
 21 23 0 0 0
SMALL
GASTEIGER

@<TRIPOS>ATOM
      1 C          -7.0902  -17.1643   22.7884 C.3     1  UNL1        0.0625
      2 C          -5.6430  -16.8085   22.9586 C.3     1  UNL1        0.0210
      3 C          -5.1828  -16.1157   24.2068 C.3     1  UNL1        0.0274
      4 C          -6.1699  -15.7786   25.2849 C.ar    1  UNL1       -0.0257
      5 C          -5.7097  -15.0858   26.5332 C.ar    1  UNL1       -0.0046
      6 C          -6.6967  -14.7487   27.6112 C.ar    1  UNL1       -0.0003
      7 C          -8.1439  -15.1046   27.4410 C.ar    1  UNL1       -0.0003
      8 C          -8.6041  -15.7974   26.1927 C.ar    1  UNL1       -0.0042
      9 C          -7.6171  -16.1344   25.1147 C.ar    1  UNL1       -0.0211
     10 C          -8.0772  -16.8273   23.8664 C.3     1  UNL1        0.0586
     11 C          -9.5244  -17.1832   23.6961 C.ar    1  UNL1       -0.0162
     12 C         -10.1369  -18.2589   24.5434 C.ar    1  UNL1       -0.0030
     13 C         -11.5842  -18.6147   24.3732 C.ar    1  UNL1        0.0119
     14 C         -12.4188  -17.8948   23.3557 C.ar    1  UNL1        0.0682
     15 CL        -13.8660  -18.2507   23.1855 Cl      1  UNL1       -0.0814
     16 C         -11.8063  -16.8192   22.5085 C.ar    1  UNL1        0.0679
     17 CL        -12.6410  -16.0993   21.4911 Cl      1  UNL1       -0.0814
     18 C         -10.3591  -16.4633   22.6787 C.ar    1  UNL1        0.0083
     19 C          -7.6201  -19.3549   21.4958 C.3     1  UNL1        0.0859
     20 N          -7.5504  -17.8572   21.5400 N.3     1  UNL1       -0.2968
     21 H          -8.4896  -17.5127   21.3412 H       1  UNL1        0.1233
@<TRIPOS>BOND
     1    19    20    1
     2     1    20    1
     3     1     2    1
     4     2     3    1
     5     3     4    1
     6     4     5   ar
     7     5     6   ar
     8     6     7   ar
     9     7     8   ar
    10     8     9   ar
    11     9    10    1
    12    10    11    1
    13    11    12   ar
    14    12    13   ar
    15    13    14   ar
    16    14    15    1
    17    14    16   ar
    18    16    17    1
    19    16    18   ar
    20    10     1    1
    21    18    11   ar
    22     9     4   ar
    23    20    21    1
@<TRIPOS>MOLECULE
*****
 21 23 0 0 0
SMALL
GASTEIGER

@<TRIPOS>ATOM
      1 C          -7.7058  -18.5638   21.7882 C.3     1  UNL1        0.0625
      2 C          -8.2306  -19.2691   20.5728 C.3     1  UNL1        0.0210
      3 C          -9.6182  -18.9828   20.0802 C.3     1  UNL1        0.0274
      4 C         -10.4810  -17.9913   20.8031 C.ar    1  UNL1       -0.0257
      5 C         -11.8686  -17.7051   20.3105 C.ar    1  UNL1       -0.0046
      6 C         -12.7314  -16.7137   21.0333 C.ar    1  UNL1       -0.0003
      7 C         -12.2066  -16.0084   22.2488 C.ar    1  UNL1       -0.0003
      8 C         -10.8191  -16.2946   22.7413 C.ar    1  UNL1       -0.0042
      9 C          -9.9563  -17.2861   22.0185 C.ar    1  UNL1       -0.0211
     10 C          -8.5686  -17.5724   22.5111 C.3     1  UNL1        0.0586
     11 C          -8.0438  -16.8671   23.7265 C.ar    1  UNL1       -0.0162
     12 C          -6.9224  -15.8796   23.5949 C.ar    1  UNL1       -0.0030
     13 C          -6.3976  -15.1744   24.8103 C.ar    1  UNL1        0.0119
     14 C          -6.9943  -15.4566   26.1573 C.ar    1  UNL1        0.0682
     15 CL         -6.4695  -14.7514   27.3727 Cl      1  UNL1       -0.0814
     16 C          -8.1157  -16.4441   26.2889 C.ar    1  UNL1        0.0679
     17 CL         -8.7124  -16.7263   27.6359 Cl      1  UNL1       -0.0814
     18 C          -8.6405  -17.1493   25.0734 C.ar    1  UNL1        0.0083
     19 C          -5.3610  -19.6205   21.4205 C.3     1  UNL1        0.0859
     20 N          -6.3182  -18.8501   22.2808 N.3     1  UNL1       -0.2968
     21 H          -5.8817  -17.9482   22.4721 H       1  UNL1        0.1233
@<TRIPOS>BOND
     1    19    20    1
     2     1    20    1
     3     1     2    1
     4     2     3    1
     5     3     4    1
     6     4     5   ar
     7     5     6   ar
     8     6     7   ar
     9     7     8   ar
    10     8     9   ar
    11     9    10    1
    12    10    11    1
    13    11    12   ar
    14    12    13   ar
    15    13    14   ar
    16    14    15    1
    17    14    16   ar
    18    16    17    1
    19    16    18   ar
    20    10     1    1
    21    18    11   ar
    22     9     4   ar
    23    20    21    1
@<TRIPOS>MOLECULE
*****
 21 23 0 0 0
SMALL
GASTEIGER

@<TRIPOS>ATOM
      1 C          -7.7773  -18.6487   21.8205 C.3     1  UNL1        0.0625
      2 C          -8.2470  -19.2938   20.5504 C.3     1  UNL1        0.0210
      3 C          -9.5935  -18.9482   19.9870 C.3     1  UNL1        0.0274
      4 C         -10.4704  -17.9574   20.6938 C.ar    1  UNL1       -0.0257
      5 C         -11.8169  -17.6117   20.1305 C.ar    1  UNL1       -0.0046
      6 C         -12.6937  -16.6210   20.8373 C.ar    1  UNL1       -0.0003
      7 C         -12.2240  -15.9759   22.1074 C.ar    1  UNL1       -0.0003
      8 C         -10.8775  -16.3215   22.6707 C.ar    1  UNL1       -0.0042
      9 C         -10.0007  -17.3123   21.9639 C.ar    1  UNL1       -0.0211
     10 C          -8.6541  -17.6580   22.5273 C.3     1  UNL1        0.0586
     11 C          -8.1844  -17.0129   23.7974 C.ar    1  UNL1       -0.0162
     12 C          -8.9972  -17.1457   25.0512 C.ar    1  UNL1       -0.0030
     13 C          -8.5275  -16.5006   26.3213 C.ar    1  UNL1        0.0119
     14 C          -7.2450  -15.7227   26.3377 C.ar    1  UNL1        0.0682
     15 CL         -6.7752  -15.0777   27.6078 Cl      1  UNL1       -0.0814
     16 C          -6.4322  -15.5900   25.0840 C.ar    1  UNL1        0.0679
     17 CL         -5.1497  -14.8122   25.1004 Cl      1  UNL1       -0.0814
     18 C          -6.9019  -16.2351   23.8138 C.ar    1  UNL1        0.0083
     19 C          -5.3864  -19.6148   21.5038 C.3     1  UNL1        0.0859
     20 N          -6.4307  -18.9945   22.3838 N.3     1  UNL1       -0.2968
     21 H          -6.0327  -18.1287   22.7478 H       1  UNL1        0.1233
@<TRIPOS>BOND
     1    19    20    1
     2     1    20    1
     3     1     2    1
     4     2     3    1
     5     3     4    1
     6     4     5   ar
     7     5     6   ar
     8     6     7   ar
     9     7     8   ar
    10     8     9   ar
    11     9    10    1
    12    10    11    1
    13    11    12   ar
    14    12    13   ar
    15    13    14   ar
    16    14    15    1
    17    14    16   ar
    18    16    17    1
    19    16    18   ar
    20    10     1    1
    21    18    11   ar
    22     9     4   ar
    23    20    21    1
@<TRIPOS>MOLECULE
*****
 21 23 0 0 0
SMALL
GASTEIGER

@<TRIPOS>ATOM
      1 C          -7.1415  -18.9957   21.6364 C.3     1  UNL1        0.0625
      2 C          -5.6505  -19.0262   21.4744 C.3     1  UNL1        0.0210
      3 C          -4.7889  -18.1056   22.2868 C.3     1  UNL1        0.0274
      4 C          -5.4181  -17.1545   23.2612 C.ar    1  UNL1       -0.0257
      5 C          -4.5564  -16.2339   24.0736 C.ar    1  UNL1       -0.0046
      6 C          -5.1856  -15.2828   25.0480 C.ar    1  UNL1       -0.0003
      7 C          -6.6766  -15.2524   25.2101 C.ar    1  UNL1       -0.0003
      8 C          -7.5382  -16.1729   24.3977 C.ar    1  UNL1       -0.0042
      9 C          -6.9090  -17.1240   23.4233 C.ar    1  UNL1       -0.0211
     10 C          -7.7707  -18.0446   22.6108 C.3     1  UNL1        0.0586
     11 C          -9.2616  -18.0141   22.7729 C.ar    1  UNL1       -0.0162
     12 C          -9.9173  -18.8416   23.8385 C.ar    1  UNL1       -0.0030
     13 C         -11.4082  -18.8111   24.0005 C.ar    1  UNL1        0.0119
     14 C         -12.2434  -17.9532   23.0969 C.ar    1  UNL1        0.0682
     15 CL        -13.7343  -17.9227   23.2589 Cl      1  UNL1       -0.0814
     16 C         -11.5877  -17.1258   22.0313 C.ar    1  UNL1        0.0679
     17 CL        -12.4230  -16.2679   21.1277 Cl      1  UNL1       -0.0814
     18 C         -10.0968  -17.1563   21.8693 C.ar    1  UNL1        0.0083
     19 C          -8.3453  -19.5667   19.4060 C.3     1  UNL1        0.0859
     20 N          -8.0031  -19.9163   20.8240 N.3     1  UNL1       -0.2968
     21 H          -7.5277  -20.8184   20.7983 H       1  UNL1        0.1233
@<TRIPOS>BOND
     1    19    20    1
     2     1    20    1
     3     1     2    1
     4     2     3    1
     5     3     4    1
     6     4     5   ar
     7     5     6   ar
     8     6     7   ar
     9     7     8   ar
    10     8     9   ar
    11     9    10    1
    12    10    11    1
    13    11    12   ar
    14    12    13   ar
    15    13    14   ar
    16    14    15    1
    17    14    16   ar
    18    16    17    1
    19    16    18   ar
    20    10     1    1
    21    18    11   ar
    22     9     4   ar
    23    20    21    1
@<TRIPOS>MOLECULE
*****
 21 23 0 0 0
SMALL
GASTEIGER

@<TRIPOS>ATOM
      1 C          -7.2689  -16.2720   23.4807 C.3     1  UNL1        0.0625
      2 C          -8.2587  -15.5778   24.3685 C.3     1  UNL1        0.0210
      3 C          -9.5604  -16.2431   24.7046 C.3     1  UNL1        0.0274
      4 C          -9.8722  -17.6027   24.1529 C.ar    1  UNL1       -0.0257
      5 C         -11.1739  -18.2680   24.4890 C.ar    1  UNL1       -0.0046
      6 C         -11.4857  -19.6275   23.9373 C.ar    1  UNL1       -0.0003
      7 C         -10.4958  -20.3217   23.0495 C.ar    1  UNL1       -0.0003
      8 C          -9.1942  -19.6564   22.7134 C.ar    1  UNL1       -0.0042
      9 C          -8.8824  -18.2969   23.2651 C.ar    1  UNL1       -0.0211
     10 C          -7.5806  -17.6315   22.9290 C.3     1  UNL1        0.0586
     11 C          -6.5908  -18.3258   22.0411 C.ar    1  UNL1       -0.0162
     12 C          -6.9764  -18.7077   20.6427 C.ar    1  UNL1       -0.0030
     13 C          -5.9865  -19.4019   19.7549 C.ar    1  UNL1        0.0119
     14 C          -4.6111  -19.7142   20.2655 C.ar    1  UNL1        0.0682
     15 CL         -3.6212  -20.4084   19.3777 Cl      1  UNL1       -0.0814
     16 C          -4.2255  -19.3323   21.6639 C.ar    1  UNL1        0.0679
     17 CL         -2.8501  -19.6446   22.1745 Cl      1  UNL1       -0.0814
     18 C          -5.2154  -18.6381   22.5517 C.ar    1  UNL1        0.0083
     19 C          -4.9360  -15.3934   24.2128 C.3     1  UNL1        0.0859
     20 N          -5.9671  -15.6066   23.1445 N.3     1  UNL1       -0.2968
     21 H          -5.5265  -16.1716   22.4186 H       1  UNL1        0.1233
@<TRIPOS>BOND
     1    19    20    1
     2     1    20    1
     3     1     2    1
     4     2     3    1
     5     3     4    1
     6     4     5   ar
     7     5     6   ar
     8     6     7   ar
     9     7     8   ar
    10     8     9   ar
    11     9    10    1
    12    10    11    1
    13    11    12   ar
    14    12    13   ar
    15    13    14   ar
    16    14    15    1
    17    14    16   ar
    18    16    17    1
    19    16    18   ar
    20    10     1    1
    21    18    11   ar
    22     9     4   ar
    23    20    21    1
@<TRIPOS>MOLECULE
*****
 21 23 0 0 0
SMALL
GASTEIGER

@<TRIPOS>ATOM
      1 C          -6.2606  -20.3201   20.2747 C.3     1  UNL1        0.0625
      2 C          -4.9539  -20.7559   19.6808 C.3     1  UNL1        0.0210
      3 C          -3.6637  -20.2456   20.2508 C.3     1  UNL1        0.0274
      4 C          -3.6801  -19.2994   21.4146 C.ar    1  UNL1       -0.0257
      5 C          -2.3899  -18.7891   21.9846 C.ar    1  UNL1       -0.0046
      6 C          -2.4063  -17.8429   23.1483 C.ar    1  UNL1       -0.0003
      7 C          -3.7130  -17.4071   23.7422 C.ar    1  UNL1       -0.0003
      8 C          -5.0032  -17.9174   23.1723 C.ar    1  UNL1       -0.0042
      9 C          -4.9868  -18.8636   22.0085 C.ar    1  UNL1       -0.0211
     10 C          -6.2770  -19.3739   21.4385 C.3     1  UNL1        0.0586
     11 C          -7.5837  -18.9381   22.0323 C.ar    1  UNL1       -0.0162
     12 C          -8.1254  -17.5719   21.7320 C.ar    1  UNL1       -0.0030
     13 C          -9.4321  -17.1360   22.3259 C.ar    1  UNL1        0.0119
     14 C         -10.1970  -18.0663   23.2201 C.ar    1  UNL1        0.0682
     15 CL        -11.5037  -17.6305   23.8139 Cl      1  UNL1       -0.0814
     16 C          -9.6553  -19.4325   23.5203 C.ar    1  UNL1        0.0679
     17 CL        -10.4202  -20.3628   24.4145 Cl      1  UNL1       -0.0814
     18 C          -8.3486  -19.8683   22.9265 C.ar    1  UNL1        0.0083
     19 C          -8.4097  -19.9291   18.8681 C.3     1  UNL1        0.0859
     20 N          -7.5508  -20.8304   19.7047 N.3     1  UNL1       -0.2968
     21 H          -7.3181  -21.6368   19.1250 H       1  UNL1        0.1233
@<TRIPOS>BOND
     1    19    20    1
     2     1    20    1
     3     1     2    1
     4     2     3    1
     5     3     4    1
     6     4     5   ar
     7     5     6   ar
     8     6     7   ar
     9     7     8   ar
    10     8     9   ar
    11     9    10    1
    12    10    11    1
    13    11    12   ar
    14    12    13   ar
    15    13    14   ar
    16    14    15    1
    17    14    16   ar
    18    16    17    1
    19    16    18   ar
    20    10     1    1
    21    18    11   ar
    22     9     4   ar
    23    20    21    1
