@<TRIPOS>MOLECULE
*****
 44 48 0 0 0
SMALL
GASTEIGER

@<TRIPOS>ATOM
      1 N           6.3762   -2.9023   27.3967 N.ar    1  UNL1       -0.2444
      2 C           6.7989   -3.3044   28.7785 C.ar    1  UNL1        0.3387
      3 O           6.4770   -2.4219   29.9480 O.2     1  UNL1       -0.2458
      4 N           7.5436   -4.5891   28.9909 N.ar    1  UNL1       -0.2502
      5 C           7.8655   -5.4716   27.8216 C.ar    1  UNL1        0.2686
      6 O           8.6102   -6.7562   28.0340 O.2     1  UNL1       -0.2667
      7 C           7.4428   -5.0695   26.4396 C.ar    1  UNL1        0.1100
      8 C           7.7647   -5.9520   25.2702 C.ar    1  UNL1        0.1096
      9 N           7.3419   -5.5498   23.8884 N.ar    1  UNL1       -0.2118
     10 C           6.5972   -4.2652   23.6760 C.ar    1  UNL1        0.2221
     11 N           6.2753   -3.3827   24.8454 N.ar    1  UNL1       -0.1955
     12 C           6.6981   -3.7848   26.2272 C.ar    1  UNL1        0.1600
     13 C           3.4003   -0.2867   27.1670 C.ar    1  UNL1        0.0520
     14 C           4.1421    0.9516   26.7593 C.ar    1  UNL1        0.0148
     15 C           5.6287    0.9054   26.5641 C.ar    1  UNL1        0.0028
     16 C           6.3734   -0.3793   26.7766 C.ar    1  UNL1        0.0178
     17 C           5.6315   -1.6176   27.1842 C.ar    1  UNL1        0.0708
     18 C           4.1450   -1.5713   27.3794 C.ar    1  UNL1        0.0324
     19 C           1.3375   -0.2804   28.7465 C.2     1  UNL1        0.2496
     20 O           2.2478   -0.3667   29.9356 O.2     1  UNL1       -0.2698
     21 N           1.9137   -0.2404   27.3622 N.am    1  UNL1       -0.2803
     22 H           1.3163   -0.1838   26.5817 H       1  UNL1        0.1552
     23 C          -0.9745    0.7621   28.1828 C.2     1  UNL1        0.0048
     24 C          -0.1490   -0.2342   28.9417 C.2     1  UNL1        0.0580
     25 C           7.9664   -4.9912   30.3729 C.3     1  UNL1        0.0929
     26 C           9.3374   -4.6401   30.8697 C.3     1  UNL1        0.0247
     27 C           7.0180   -5.7445   31.2579 C.3     1  UNL1        0.0247
     28 N           6.1745   -3.8630   22.2940 N.pl3   1  UNL1       -0.2801
     29 H           6.6251   -4.2505   21.5091 H       1  UNL1        0.1552
     30 C           5.0652   -2.8707   22.1081 C.ar    1  UNL1        0.0850
     31 C           4.5075   -2.1385   23.2925 C.ar    1  UNL1        0.0190
     32 C           3.3981   -1.1460   23.1064 C.ar    1  UNL1        0.0160
     33 C           2.8465   -0.8859   21.7361 C.ar    1  UNL1        0.0510
     34 C           3.4042   -1.6181   20.5517 C.ar    1  UNL1        0.0527
     35 C           4.5135   -2.6105   20.7376 C.ar    1  UNL1        0.1533
     36 N           1.7372    0.1065   21.5501 N.pl3   1  UNL1       -0.3046
     37 C           1.3620    1.0306   22.6704 C.3     1  UNL1        0.1081
     38 C           0.2526    2.0230   22.4844 C.3     1  UNL1        0.0938
     39 N          -0.4814    2.0912   21.1781 N.3     1  UNL1       -0.2686
     40 C          -1.5907    3.0836   20.9921 C.3     1  UNL1        0.0897
     41 C          -0.1062    1.1671   20.0578 C.3     1  UNL1        0.0938
     42 C           1.0031    0.1747   20.2437 C.3     1  UNL1        0.1081
     43 O           5.0712   -3.3427   19.5532 O.3     1  UNL1       -0.4701
     44 C           4.3953   -4.5849   19.0531 C.3     1  UNL1        0.2525
@<TRIPOS>BOND
     1    23    24    2
     2    24    19    1
     3    19    20    2
     4    19    21   am
     5    21    13    1
     6    13    14   ar
     7    14    15   ar
     8    15    16   ar
     9    16    17   ar
    10    17     1    1
    11     1     2   ar
    12     2     3    2
    13     2     4   ar
    14     4    25    1
    15    25    26    1
    16    25    27    1
    17     4     5   ar
    18     5     6    2
    19     5     7   ar
    20     7     8   ar
    21     8     9   ar
    22     9    10   ar
    23    10    28    1
    24    28    30    1
    25    30    31   ar
    26    31    32   ar
    27    32    33   ar
    28    33    36    1
    29    36    37    1
    30    37    38    1
    31    38    39    1
    32    39    40    1
    33    39    41    1
    34    41    42    1
    35    33    34   ar
    36    34    35   ar
    37    35    43    1
    38    43    44    1
    39    10    11   ar
    40    11    12   ar
    41    17    18   ar
    42    18    13   ar
    43    12     1   ar
    44    12     7   ar
    45    35    30   ar
    46    42    36    1
    47    21    22    1
    48    28    29    1
@<TRIPOS>MOLECULE
*****
 44 48 0 0 0
SMALL
GASTEIGER

@<TRIPOS>ATOM
      1 N           2.5328    0.1858   21.3808 N.ar    1  UNL1       -0.2444
      2 C           2.9203   -0.7632   20.2858 C.ar    1  UNL1        0.3387
      3 O           2.5372   -0.4670   18.8660 O.2     1  UNL1       -0.2458
      4 N           3.6909   -2.0085   20.6104 N.ar    1  UNL1       -0.2502
      5 C           4.0740   -2.3048   22.0301 C.ar    1  UNL1        0.2686
      6 O           4.8446   -3.5501   22.3547 O.2     1  UNL1       -0.2667
      7 C           3.6865   -1.3557   23.1252 C.ar    1  UNL1        0.1100
      8 C           4.0695   -1.6519   24.5448 C.ar    1  UNL1        0.1096
      9 N           3.6820   -0.7029   25.6398 N.ar    1  UNL1       -0.2118
     10 C           2.9114    0.5424   25.3152 C.ar    1  UNL1        0.2221
     11 N           2.5283    0.8386   23.8955 N.ar    1  UNL1       -0.1955
     12 C           2.9158   -0.1104   22.8005 C.ar    1  UNL1        0.1600
     13 C          -0.5081    2.6479   20.7165 C.ar    1  UNL1        0.0520
     14 C           0.2209    3.9217   20.4068 C.ar    1  UNL1        0.0148
     15 C           1.7206    3.9503   20.4219 C.ar    1  UNL1        0.0028
     16 C           2.4912    2.7050   20.7465 C.ar    1  UNL1        0.0178
     17 C           1.7621    1.4311   21.0561 C.ar    1  UNL1        0.0708
     18 C           0.2625    1.4026   21.0411 C.ar    1  UNL1        0.0324
     19 C          -2.7838    3.4692   21.6635 C.2     1  UNL1        0.2496
     20 O          -2.0600    4.3476   22.6406 O.2     1  UNL1       -0.2698
     21 N          -2.0078    2.6193   20.7015 N.am    1  UNL1       -0.2803
     22 H          -2.4828    2.0427   20.0602 H       1  UNL1        0.1552
     23 C          -5.0191    3.3645   20.3436 C.2     1  UNL1        0.0048
     24 C          -4.2834    3.4406   21.6486 C.2     1  UNL1        0.0580
     25 C           4.0785   -2.9576   19.5153 C.3     1  UNL1        0.0929
     26 C           5.3061   -2.6946   18.6945 C.3     1  UNL1        0.0247
     27 C           3.2384   -4.1696   19.2411 C.3     1  UNL1        0.0247
     28 N           2.5238    1.4914   26.4103 N.pl3   1  UNL1       -0.2801
     29 H           3.1520    1.6783   27.1449 H       1  UNL1        0.1552
     30 C           1.1792    2.1557   26.3860 C.ar    1  UNL1        0.0850
     31 C           0.9852    3.4285   25.6164 C.ar    1  UNL1        0.0190
     32 C          -0.3595    4.0928   25.5922 C.ar    1  UNL1        0.0160
     33 C          -1.5102    3.4843   26.3376 C.ar    1  UNL1        0.0510
     34 C          -1.3162    2.2115   27.1072 C.ar    1  UNL1        0.0527
     35 C           0.0284    1.5472   27.1315 C.ar    1  UNL1        0.1533
     36 N          -2.8548    4.1486   26.3133 N.pl3   1  UNL1       -0.3046
     37 C          -3.9552    3.5837   25.4649 C.3     1  UNL1        0.1081
     38 C          -5.2999    4.2481   25.4407 C.3     1  UNL1        0.0938
     39 N          -5.5441    5.4773   26.2649 N.3     1  UNL1       -0.2686
     40 C          -6.8887    6.1416   26.2407 C.3     1  UNL1        0.0897
     41 C          -4.4437    6.0422   27.1134 C.3     1  UNL1        0.0938
     42 C          -3.0990    5.3779   27.1376 C.3     1  UNL1        0.1081
     43 O           0.2224    0.2745   27.9011 O.3     1  UNL1       -0.4701
     44 C          -0.9117   -0.3015   28.6961 C.3     1  UNL1        0.2525
@<TRIPOS>BOND
     1    23    24    2
     2    24    19    1
     3    19    20    2
     4    19    21   am
     5    21    13    1
     6    13    14   ar
     7    14    15   ar
     8    15    16   ar
     9    16    17   ar
    10    17     1    1
    11     1     2   ar
    12     2     3    2
    13     2     4   ar
    14     4    25    1
    15    25    26    1
    16    25    27    1
    17     4     5   ar
    18     5     6    2
    19     5     7   ar
    20     7     8   ar
    21     8     9   ar
    22     9    10   ar
    23    10    28    1
    24    28    30    1
    25    30    31   ar
    26    31    32   ar
    27    32    33   ar
    28    33    36    1
    29    36    37    1
    30    37    38    1
    31    38    39    1
    32    39    40    1
    33    39    41    1
    34    41    42    1
    35    33    34   ar
    36    34    35   ar
    37    35    43    1
    38    43    44    1
    39    10    11   ar
    40    11    12   ar
    41    17    18   ar
    42    18    13   ar
    43    12     1   ar
    44    12     7   ar
    45    35    30   ar
    46    42    36    1
    47    21    22    1
    48    28    29    1
@<TRIPOS>MOLECULE
*****
 44 48 0 0 0
SMALL
GASTEIGER

@<TRIPOS>ATOM
      1 N           5.9782   -2.3840   27.1363 N.ar    1  UNL1       -0.2444
      2 C           6.1028   -2.4755   25.6443 C.ar    1  UNL1        0.3387
      3 O           5.6996   -1.3137   24.7854 O.2     1  UNL1       -0.2458
      4 N           6.6306   -3.7287   25.0112 N.ar    1  UNL1       -0.2502
      5 C           7.0338   -4.8905   25.8701 C.ar    1  UNL1        0.2686
      6 O           7.5616   -6.1437   25.2370 O.2     1  UNL1       -0.2667
      7 C           6.9092   -4.7990   27.3622 C.ar    1  UNL1        0.1100
      8 C           7.3124   -5.9607   28.2211 C.ar    1  UNL1        0.1096
      9 N           7.1878   -5.8692   29.7131 N.ar    1  UNL1       -0.2118
     10 C           6.6601   -4.6160   30.3462 C.ar    1  UNL1        0.2221
     11 N           6.2569   -3.4543   29.4873 N.ar    1  UNL1       -0.1955
     12 C           6.3814   -3.5458   27.9953 C.ar    1  UNL1        0.1600
     13 C           3.4543    0.4255   28.3557 C.ar    1  UNL1        0.0520
     14 C           4.3949    1.3758   29.0356 C.ar    1  UNL1        0.0148
     15 C           5.8633    1.0728   29.0824 C.ar    1  UNL1        0.0028
     16 C           6.3911   -0.1804   28.4493 C.ar    1  UNL1        0.0178
     17 C           5.4504   -1.1307   27.7694 C.ar    1  UNL1        0.0708
     18 C           3.9821   -0.8278   27.7226 C.ar    1  UNL1        0.0324
     19 C           1.0888    0.2650   29.4181 C.2     1  UNL1        0.2496
     20 O           1.6601   -0.5013   30.5742 O.2     1  UNL1       -0.2698
     21 N           1.9859    0.7284   28.3089 N.am    1  UNL1       -0.2803
     22 H           1.6110    1.2313   27.5501 H       1  UNL1        0.1552
     23 C          -1.3260   -0.4048   28.7326 C.2     1  UNL1        0.0048
     24 C          -0.3795    0.5679   29.3713 C.2     1  UNL1        0.0580
     25 C           6.7552   -3.8202   23.5192 C.3     1  UNL1        0.0929
     26 C           8.1114   -3.8181   22.8783 C.3     1  UNL1        0.0247
     27 C           5.5236   -3.9137   22.6681 C.3     1  UNL1        0.0247
     28 N           6.5355   -4.5245   31.8382 N.pl3   1  UNL1       -0.2801
     29 H           6.6965   -5.3201   32.3953 H       1  UNL1        0.1552
     30 C           6.1656   -3.2209   32.4814 C.ar    1  UNL1        0.0850
     31 C           4.7420   -2.9545   32.8719 C.ar    1  UNL1        0.0190
     32 C           4.3721   -1.6508   33.5151 C.ar    1  UNL1        0.0160
     33 C           5.4258   -0.6137   33.7679 C.ar    1  UNL1        0.0510
     34 C           6.8494   -0.8801   33.3775 C.ar    1  UNL1        0.0527
     35 C           7.2193   -2.1837   32.7343 C.ar    1  UNL1        0.1533
     36 N           5.0559    0.6899   34.4111 N.pl3   1  UNL1       -0.3046
     37 C           5.3706    1.9834   33.7197 C.3     1  UNL1        0.1081
     38 C           5.0006    3.2870   34.3630 C.3     1  UNL1        0.0938
     39 N           4.3161    3.2972   35.6976 N.3     1  UNL1       -0.2686
     40 C           3.9462    4.6008   36.3408 C.3     1  UNL1        0.0897
     41 C           4.0014    2.0037   36.3890 C.3     1  UNL1        0.0938
     42 C           4.3713    0.7001   35.7458 C.3     1  UNL1        0.1081
     43 O           8.6429   -2.4501   32.3439 O.3     1  UNL1       -0.4701
     44 C           9.1907   -1.8786   31.0698 C.3     1  UNL1        0.2525
@<TRIPOS>BOND
     1    23    24    2
     2    24    19    1
     3    19    20    2
     4    19    21   am
     5    21    13    1
     6    13    14   ar
     7    14    15   ar
     8    15    16   ar
     9    16    17   ar
    10    17     1    1
    11     1     2   ar
    12     2     3    2
    13     2     4   ar
    14     4    25    1
    15    25    26    1
    16    25    27    1
    17     4     5   ar
    18     5     6    2
    19     5     7   ar
    20     7     8   ar
    21     8     9   ar
    22     9    10   ar
    23    10    28    1
    24    28    30    1
    25    30    31   ar
    26    31    32   ar
    27    32    33   ar
    28    33    36    1
    29    36    37    1
    30    37    38    1
    31    38    39    1
    32    39    40    1
    33    39    41    1
    34    41    42    1
    35    33    34   ar
    36    34    35   ar
    37    35    43    1
    38    43    44    1
    39    10    11   ar
    40    11    12   ar
    41    17    18   ar
    42    18    13   ar
    43    12     1   ar
    44    12     7   ar
    45    35    30   ar
    46    42    36    1
    47    21    22    1
    48    28    29    1
@<TRIPOS>MOLECULE
*****
 44 48 0 0 0
SMALL
GASTEIGER

@<TRIPOS>ATOM
      1 N           2.9010    0.4106   20.0772 N.ar    1  UNL1       -0.2444
      2 C           3.4288   -0.7630   19.3065 C.ar    1  UNL1        0.3387
      3 O           3.4955   -0.7082   17.8090 O.2     1  UNL1       -0.2458
      4 N           3.8899   -1.9915   20.0333 N.ar    1  UNL1       -0.2502
      5 C           3.8232   -2.0464   21.5308 C.ar    1  UNL1        0.2686
      6 O           4.2843   -3.2748   22.2576 O.2     1  UNL1       -0.2667
      7 C           3.2954   -0.8727   22.3016 C.ar    1  UNL1        0.1100
      8 C           3.2287   -0.9276   23.7991 C.ar    1  UNL1        0.1096
      9 N           2.7009    0.2461   24.5698 N.ar    1  UNL1       -0.2118
     10 C           2.2398    1.4745   23.8430 C.ar    1  UNL1        0.2221
     11 N           2.3065    1.5294   22.3455 N.ar    1  UNL1       -0.1955
     12 C           2.8343    0.3558   21.5748 C.ar    1  UNL1        0.1600
     13 C           0.5287    3.0348   18.2785 C.ar    1  UNL1        0.0520
     14 C           1.5177    4.0960   17.8969 C.ar    1  UNL1        0.0148
     15 C           2.9678    3.9288   18.2420 C.ar    1  UNL1        0.0028
     16 C           3.4290    2.7003   18.9688 C.ar    1  UNL1        0.0178
     17 C           2.4399    1.6391   19.3504 C.ar    1  UNL1        0.0708
     18 C           0.9898    1.8063   19.0053 C.ar    1  UNL1        0.0324
     19 C          -1.7939    4.0905   18.7697 C.2     1  UNL1        0.2496
     20 O          -1.2161    4.8118   19.9513 O.2     1  UNL1       -0.2698
     21 N          -0.9215    3.2020   17.9333 N.am    1  UNL1       -0.2803
     22 H          -1.3007    2.7286   17.1578 H       1  UNL1        0.1552
     23 C          -4.2995    3.6772   19.3184 C.2     1  UNL1        0.0048
     24 C          -3.2440    4.2577   18.4246 C.2     1  UNL1        0.0580
     25 C           4.4177   -3.1651   19.2625 C.3     1  UNL1        0.0929
     26 C           3.5295   -4.3419   18.9865 C.3     1  UNL1        0.0247
     27 C           5.8338   -3.1620   18.7679 C.3     1  UNL1        0.0247
     28 N           1.7120    2.6482   24.6138 N.pl3   1  UNL1       -0.2801
     29 H           2.3231    3.1933   25.1602 H       1  UNL1        0.1552
     30 C           0.2531    2.9913   24.5519 C.ar    1  UNL1        0.0850
     31 C          -0.3342    3.5452   23.2877 C.ar    1  UNL1        0.0190
     32 C          -1.7932    3.8883   23.2260 C.ar    1  UNL1        0.0160
     33 C          -2.6648    3.6774   24.4284 C.ar    1  UNL1        0.0510
     34 C          -2.0775    3.1235   25.6926 C.ar    1  UNL1        0.0527
     35 C          -0.6186    2.7804   25.7544 C.ar    1  UNL1        0.1533
     36 N          -4.1237    4.0205   24.3665 N.pl3   1  UNL1       -0.3046
     37 C          -4.7702    4.7551   25.5033 C.3     1  UNL1        0.1081
     38 C          -6.2292    5.0982   25.4415 C.3     1  UNL1        0.0938
     39 N          -7.0416    4.7066   24.2429 N.3     1  UNL1       -0.2686
     40 C          -8.5004    5.0497   24.1810 C.3     1  UNL1        0.0897
     41 C          -6.3950    3.9720   23.1061 C.3     1  UNL1        0.0938
     42 C          -4.9361    3.6289   23.1679 C.3     1  UNL1        0.1081
     43 O          -0.0313    2.2265   27.0186 O.3     1  UNL1       -0.4701
     44 C          -0.5794    0.9611   27.6087 C.3     1  UNL1        0.2525
@<TRIPOS>BOND
     1    23    24    2
     2    24    19    1
     3    19    20    2
     4    19    21   am
     5    21    13    1
     6    13    14   ar
     7    14    15   ar
     8    15    16   ar
     9    16    17   ar
    10    17     1    1
    11     1     2   ar
    12     2     3    2
    13     2     4   ar
    14     4    25    1
    15    25    26    1
    16    25    27    1
    17     4     5   ar
    18     5     6    2
    19     5     7   ar
    20     7     8   ar
    21     8     9   ar
    22     9    10   ar
    23    10    28    1
    24    28    30    1
    25    30    31   ar
    26    31    32   ar
    27    32    33   ar
    28    33    36    1
    29    36    37    1
    30    37    38    1
    31    38    39    1
    32    39    40    1
    33    39    41    1
    34    41    42    1
    35    33    34   ar
    36    34    35   ar
    37    35    43    1
    38    43    44    1
    39    10    11   ar
    40    11    12   ar
    41    17    18   ar
    42    18    13   ar
    43    12     1   ar
    44    12     7   ar
    45    35    30   ar
    46    42    36    1
    47    21    22    1
    48    28    29    1
@<TRIPOS>MOLECULE
*****
 44 48 0 0 0
SMALL
GASTEIGER

@<TRIPOS>ATOM
      1 N           2.5064    0.1300   21.1261 N.ar    1  UNL1       -0.2444
      2 C           2.9362   -0.8413   20.0670 C.ar    1  UNL1        0.3387
      3 O           2.5993   -0.5804   18.6288 O.2     1  UNL1       -0.2458
      4 N           3.7029   -2.0736   20.4461 N.ar    1  UNL1       -0.2502
      5 C           4.0398   -2.3345   21.8842 C.ar    1  UNL1        0.2686
      6 O           4.8065   -3.5668   22.2633 O.2     1  UNL1       -0.2667
      7 C           3.6101   -1.3631   22.9434 C.ar    1  UNL1        0.1100
      8 C           3.9470   -1.6241   24.3816 C.ar    1  UNL1        0.1096
      9 N           3.5172   -0.6527   25.4407 N.ar    1  UNL1       -0.2118
     10 C           2.7505    0.5796   25.0616 C.ar    1  UNL1        0.2221
     11 N           2.4136    0.8405   23.6235 N.ar    1  UNL1       -0.1955
     12 C           2.8433   -0.1309   22.5644 C.ar    1  UNL1        0.1600
     13 C          -0.5208    2.6191   20.5014 C.ar    1  UNL1        0.0520
     14 C           0.2063    3.8268   19.9889 C.ar    1  UNL1        0.0148
     15 C           1.7002    3.8023   19.8554 C.ar    1  UNL1        0.0028
     16 C           2.4669    2.5700   20.2345 C.ar    1  UNL1        0.0178
     17 C           1.7397    1.3623   20.7470 C.ar    1  UNL1        0.0708
     18 C           0.2459    1.3869   20.8805 C.ar    1  UNL1        0.0324
     19 C          -2.6536    3.3747   21.7783 C.2     1  UNL1        0.2496
     20 O          -1.7986    4.0812   22.7883 O.2     1  UNL1       -0.2698
     21 N          -2.0147    2.6437   20.6349 N.am    1  UNL1       -0.2803
     22 H          -2.5758    2.1800   19.9721 H       1  UNL1        0.1552
     23 C          -4.7836    3.2042   23.2562 C.2     1  UNL1        0.0048
     24 C          -4.1474    3.3992   21.9118 C.2     1  UNL1        0.0580
     25 C           4.1327   -3.0449   19.3869 C.3     1  UNL1        0.0929
     26 C           3.3548   -4.3086   19.1680 C.3     1  UNL1        0.0247
     27 C           5.3404   -2.7525   18.5466 C.3     1  UNL1        0.0247
     28 N           2.3207    1.5509   26.1208 N.pl3   1  UNL1       -0.2801
     29 H           1.8122    2.3566   25.8727 H       1  UNL1        0.1552
     30 C           2.6658    1.2948   27.5579 C.ar    1  UNL1        0.0850
     31 C           4.0271    1.6511   28.0774 C.ar    1  UNL1        0.0190
     32 C           4.3721    1.3950   29.5146 C.ar    1  UNL1        0.0160
     33 C           3.3559    0.7824   30.4322 C.ar    1  UNL1        0.0510
     34 C           1.9946    0.4260   29.9127 C.ar    1  UNL1        0.0527
     35 C           1.6495    0.6822   28.4756 C.ar    1  UNL1        0.1533
     36 N           3.7009    0.5263   31.8692 N.pl3   1  UNL1       -0.3046
     37 C           3.8949   -0.8796   32.3549 C.3     1  UNL1        0.1081
     38 C           4.2400   -1.1357   33.7921 C.3     1  UNL1        0.0938
     39 N           4.3911    0.0140   34.7435 N.3     1  UNL1       -0.2686
     40 C           4.7361   -0.2422   36.1806 C.3     1  UNL1        0.0897
     41 C           4.1971    1.4199   34.2578 C.3     1  UNL1        0.0938
     42 C           3.8521    1.6760   32.8208 C.3     1  UNL1        0.1081
     43 O           0.2882    0.3258   27.9561 O.3     1  UNL1       -0.4701
     44 C          -0.7108   -0.3331   28.8604 C.3     1  UNL1        0.2525
@<TRIPOS>BOND
     1    23    24    2
     2    24    19    1
     3    19    20    2
     4    19    21   am
     5    21    13    1
     6    13    14   ar
     7    14    15   ar
     8    15    16   ar
     9    16    17   ar
    10    17     1    1
    11     1     2   ar
    12     2     3    2
    13     2     4   ar
    14     4    25    1
    15    25    26    1
    16    25    27    1
    17     4     5   ar
    18     5     6    2
    19     5     7   ar
    20     7     8   ar
    21     8     9   ar
    22     9    10   ar
    23    10    28    1
    24    28    30    1
    25    30    31   ar
    26    31    32   ar
    27    32    33   ar
    28    33    36    1
    29    36    37    1
    30    37    38    1
    31    38    39    1
    32    39    40    1
    33    39    41    1
    34    41    42    1
    35    33    34   ar
    36    34    35   ar
    37    35    43    1
    38    43    44    1
    39    10    11   ar
    40    11    12   ar
    41    17    18   ar
    42    18    13   ar
    43    12     1   ar
    44    12     7   ar
    45    35    30   ar
    46    42    36    1
    47    21    22    1
    48    28    29    1
@<TRIPOS>MOLECULE
*****
 44 48 0 0 0
SMALL
GASTEIGER

@<TRIPOS>ATOM
      1 N           5.3187   -1.7165   24.3983 N.ar    1  UNL1       -0.2444
      2 C           6.0361   -2.5854   25.3884 C.ar    1  UNL1        0.3387
      3 O           6.0707   -2.2001   26.8377 O.2     1  UNL1       -0.2458
      4 N           6.7190   -3.8395   24.9293 N.ar    1  UNL1       -0.2502
      5 C           6.6845   -4.2248   23.4800 C.ar    1  UNL1        0.2686
      6 O           7.3673   -5.4790   23.0209 O.2     1  UNL1       -0.2667
      7 C           5.9670   -3.3559   22.4898 C.ar    1  UNL1        0.1100
      8 C           5.9325   -3.7412   21.0406 C.ar    1  UNL1        0.1096
      9 N           5.2151   -2.8723   20.0505 N.ar    1  UNL1       -0.2118
     10 C           4.5322   -1.6182   20.5096 C.ar    1  UNL1        0.2221
     11 N           4.5668   -1.2329   21.9588 N.ar    1  UNL1       -0.1955
     12 C           5.2842   -2.1018   22.9490 C.ar    1  UNL1        0.1600
     13 C           2.5156    0.7500   25.7432 C.ar    1  UNL1        0.0520
     14 C           3.2701    2.0459   25.7756 C.ar    1  UNL1        0.0148
     15 C           4.7075    2.0878   25.3489 C.ar    1  UNL1        0.0028
     16 C           5.3904    0.8337   24.8898 C.ar    1  UNL1        0.0178
     17 C           4.6358   -0.4624   24.8574 C.ar    1  UNL1        0.0708
     18 C           3.1984   -0.5042   25.2841 C.ar    1  UNL1        0.0324
     19 C           0.7272    0.7437   27.6279 C.2     1  UNL1        0.2496
     20 O           1.8139    0.8213   28.6591 O.2     1  UNL1       -0.2698
     21 N           1.0781    0.7081   26.1699 N.am    1  UNL1       -0.2803
     22 H           0.3650    0.6572   25.4931 H       1  UNL1        0.1552
     23 C          -1.2503   -0.5111   28.7524 C.2     1  UNL1        0.0048
     24 C          -0.7101    0.7018   28.0547 C.2     1  UNL1        0.0580
     25 C           7.4364   -4.7084   25.9195 C.3     1  UNL1        0.0929
     26 C           6.7132   -5.8412   26.5856 C.3     1  UNL1        0.0247
     27 C           8.8770   -4.4444   26.2435 C.3     1  UNL1        0.0247
     28 N           3.8148   -0.7493   19.5194 N.pl3   1  UNL1       -0.2801
     29 H           4.0968   -0.7415   18.5762 H       1  UNL1        0.1552
     30 C           2.6677    0.1077   19.9663 C.ar    1  UNL1        0.0850
     31 C           1.2941   -0.4823   20.0892 C.ar    1  UNL1        0.0190
     32 C           0.1470    0.3748   20.5361 C.ar    1  UNL1        0.0160
     33 C           0.3736    1.8217   20.8601 C.ar    1  UNL1        0.0510
     34 C           1.7472    2.4117   20.7373 C.ar    1  UNL1        0.0527
     35 C           2.8943    1.5547   20.2904 C.ar    1  UNL1        0.1533
     36 N          -0.7735    2.6787   21.3070 N.pl3   1  UNL1       -0.3046
     37 C          -0.8112    3.2096   22.7094 C.3     1  UNL1        0.1081
     38 C          -1.9584    4.0667   23.1563 C.3     1  UNL1        0.0938
     39 N          -3.0677    4.3927   22.2008 N.3     1  UNL1       -0.2686
     40 C          -4.2148    5.2497   22.6477 C.3     1  UNL1        0.0897
     41 C          -3.0300    3.8618   20.7984 C.3     1  UNL1        0.0938
     42 C          -1.8829    3.0048   20.3515 C.3     1  UNL1        0.1081
     43 O           4.2679    2.1446   20.1675 O.3     1  UNL1       -0.4701
     44 C           4.7201    2.7267   18.8611 C.3     1  UNL1        0.2525
@<TRIPOS>BOND
     1    23    24    2
     2    24    19    1
     3    19    20    2
     4    19    21   am
     5    21    13    1
     6    13    14   ar
     7    14    15   ar
     8    15    16   ar
     9    16    17   ar
    10    17     1    1
    11     1     2   ar
    12     2     3    2
    13     2     4   ar
    14     4    25    1
    15    25    26    1
    16    25    27    1
    17     4     5   ar
    18     5     6    2
    19     5     7   ar
    20     7     8   ar
    21     8     9   ar
    22     9    10   ar
    23    10    28    1
    24    28    30    1
    25    30    31   ar
    26    31    32   ar
    27    32    33   ar
    28    33    36    1
    29    36    37    1
    30    37    38    1
    31    38    39    1
    32    39    40    1
    33    39    41    1
    34    41    42    1
    35    33    34   ar
    36    34    35   ar
    37    35    43    1
    38    43    44    1
    39    10    11   ar
    40    11    12   ar
    41    17    18   ar
    42    18    13   ar
    43    12     1   ar
    44    12     7   ar
    45    35    30   ar
    46    42    36    1
    47    21    22    1
    48    28    29    1
@<TRIPOS>MOLECULE
*****
 44 48 0 0 0
SMALL
GASTEIGER

@<TRIPOS>ATOM
      1 N           6.2510   -2.5643   26.2669 N.ar    1  UNL1       -0.2444
      2 C           6.5690   -2.9523   27.6805 C.ar    1  UNL1        0.3387
      3 O           6.1348   -2.0728   28.8154 O.2     1  UNL1       -0.2458
      4 N           7.3212   -4.2198   27.9592 N.ar    1  UNL1       -0.2502
      5 C           7.7553   -5.0993   26.8244 C.ar    1  UNL1        0.2686
      6 O           8.5075   -6.3668   27.1031 O.2     1  UNL1       -0.2667
      7 C           7.4374   -4.7113   25.4107 C.ar    1  UNL1        0.1100
      8 C           7.8715   -5.5907   24.2758 C.ar    1  UNL1        0.1096
      9 N           7.5535   -5.2027   22.8622 N.ar    1  UNL1       -0.2118
     10 C           6.8014   -3.9352   22.5835 C.ar    1  UNL1        0.2221
     11 N           6.3672   -3.0558   23.7184 N.ar    1  UNL1       -0.1955
     12 C           6.6852   -3.4438   25.1319 C.ar    1  UNL1        0.1600
     13 C           3.2994    0.0826   26.0877 C.ar    1  UNL1        0.0520
     14 C           3.9944    1.2382   25.4307 C.ar    1  UNL1        0.0148
     15 C           5.4417    1.1263   25.0524 C.ar    1  UNL1        0.0028
     16 C           6.1938   -0.1412   25.3311 C.ar    1  UNL1        0.0178
     17 C           5.4988   -1.2968   25.9882 C.ar    1  UNL1        0.0708
     18 C           4.0516   -1.1848   26.3665 C.ar    1  UNL1        0.0324
     19 C           1.4615    0.8782   27.7428 C.2     1  UNL1        0.2496
     20 O           2.5180    1.4498   28.6412 O.2     1  UNL1       -0.2698
     21 N           1.8522    0.1946   26.4660 N.am    1  UNL1       -0.2803
     22 H           1.1588   -0.1806   25.8764 H       1  UNL1        0.1552
     23 C          -0.7589   -0.2380   28.5003 C.2     1  UNL1        0.0048
     24 C           0.0143    0.9901   28.1211 C.2     1  UNL1        0.0580
     25 C           7.6391   -4.6078   29.3729 C.3     1  UNL1        0.0929
     26 C           6.7660   -5.5904   30.0954 C.3     1  UNL1        0.0247
     27 C           8.8303   -4.0132   30.0639 C.3     1  UNL1        0.0247
     28 N           6.4834   -3.5473   21.1698 N.pl3   1  UNL1       -0.2801
     29 H           6.9745   -3.9609   20.4235 H       1  UNL1        0.1552
     30 C           5.4171   -2.5291   20.8933 C.ar    1  UNL1        0.0850
     31 C           5.6779   -1.0772   21.1651 C.ar    1  UNL1        0.0190
     32 C           4.6116   -0.0590   20.8886 C.ar    1  UNL1        0.0160
     33 C           3.2846   -0.4928   20.3401 C.ar    1  UNL1        0.0510
     34 C           3.0238   -1.9448   20.0683 C.ar    1  UNL1        0.0527
     35 C           4.0900   -2.9629   20.3448 C.ar    1  UNL1        0.1533
     36 N           2.2184    0.5253   20.0636 N.pl3   1  UNL1       -0.3046
     37 C           1.0491    0.6584   20.9937 C.3     1  UNL1        0.1081
     38 C          -0.0171    1.6766   20.7171 C.3     1  UNL1        0.0938
     39 N           0.0859    2.5616   19.5104 N.3     1  UNL1       -0.2686
     40 C          -0.9803    3.5797   19.2339 C.3     1  UNL1        0.0897
     41 C           1.2551    2.4285   18.5803 C.3     1  UNL1        0.0938
     42 C           2.3214    1.4104   18.8569 C.3     1  UNL1        0.1081
     43 O           3.8293   -4.4148   20.0729 O.3     1  UNL1       -0.4701
     44 C           4.3628   -5.0516   18.8241 C.3     1  UNL1        0.2525
@<TRIPOS>BOND
     1    23    24    2
     2    24    19    1
     3    19    20    2
     4    19    21   am
     5    21    13    1
     6    13    14   ar
     7    14    15   ar
     8    15    16   ar
     9    16    17   ar
    10    17     1    1
    11     1     2   ar
    12     2     3    2
    13     2     4   ar
    14     4    25    1
    15    25    26    1
    16    25    27    1
    17     4     5   ar
    18     5     6    2
    19     5     7   ar
    20     7     8   ar
    21     8     9   ar
    22     9    10   ar
    23    10    28    1
    24    28    30    1
    25    30    31   ar
    26    31    32   ar
    27    32    33   ar
    28    33    36    1
    29    36    37    1
    30    37    38    1
    31    38    39    1
    32    39    40    1
    33    39    41    1
    34    41    42    1
    35    33    34   ar
    36    34    35   ar
    37    35    43    1
    38    43    44    1
    39    10    11   ar
    40    11    12   ar
    41    17    18   ar
    42    18    13   ar
    43    12     1   ar
    44    12     7   ar
    45    35    30   ar
    46    42    36    1
    47    21    22    1
    48    28    29    1
@<TRIPOS>MOLECULE
*****
 44 48 0 0 0
SMALL
GASTEIGER

@<TRIPOS>ATOM
      1 N           5.1677   -1.5840   24.3887 N.ar    1  UNL1       -0.2444
      2 C           4.7495   -1.3520   22.9670 C.ar    1  UNL1        0.3387
      3 O           3.9010   -0.1649   22.6190 O.2     1  UNL1       -0.2458
      4 N           5.1797   -2.3069   21.8932 N.ar    1  UNL1       -0.2502
      5 C           6.0282   -3.4939   22.2412 C.ar    1  UNL1        0.2686
      6 O           6.4585   -4.4488   21.1674 O.2     1  UNL1       -0.2667
      7 C           6.4465   -3.7260   23.6629 C.ar    1  UNL1        0.1100
      8 C           7.2949   -4.9130   24.0108 C.ar    1  UNL1        0.1096
      9 N           7.7131   -5.1451   25.4325 N.ar    1  UNL1       -0.2118
     10 C           7.2829   -4.1902   26.5062 C.ar    1  UNL1        0.2221
     11 N           6.4344   -3.0032   26.1583 N.ar    1  UNL1       -0.1955
     12 C           6.0162   -2.7711   24.7367 C.ar    1  UNL1        0.1600
     13 C           2.9622    0.1717   27.1821 C.ar    1  UNL1        0.0520
     14 C           3.8769    1.2808   27.6100 C.ar    1  UNL1        0.0148
     15 C           5.2220    1.4350   26.9641 C.ar    1  UNL1        0.0028
     16 C           5.6522    0.4800   25.8904 C.ar    1  UNL1        0.0178
     17 C           4.7374   -0.6291   25.4625 C.ar    1  UNL1        0.0708
     18 C           3.3924   -0.7833   26.1083 C.ar    1  UNL1        0.0324
     19 C           0.4846    0.9151   27.4257 C.2     1  UNL1        0.2496
     20 O           0.6972    1.9669   26.3775 O.2     1  UNL1       -0.2698
     21 N           1.6171    0.0175   27.8279 N.am    1  UNL1       -0.2803
     22 H           1.4776   -0.6729   28.5159 H       1  UNL1        0.1552
     23 C          -1.2162   -0.5197   28.7668 C.2     1  UNL1        0.0048
     24 C          -0.8604    0.7609   28.0715 C.2     1  UNL1        0.0580
     25 C           4.7615   -2.0748   20.4715 C.3     1  UNL1        0.0929
     26 C           3.4448   -2.6004   19.9817 C.3     1  UNL1        0.0247
     27 C           5.6600   -1.3170   19.5396 C.3     1  UNL1        0.0247
     28 N           7.7011   -4.4223   27.9280 N.pl3   1  UNL1       -0.2801
     29 H           8.3404   -5.1397   28.1422 H       1  UNL1        0.1552
     30 C           7.1454   -3.5613   29.0233 C.ar    1  UNL1        0.0850
     31 C           6.9882   -2.0849   28.8102 C.ar    1  UNL1        0.0190
     32 C           6.4324   -1.2239   29.9056 C.ar    1  UNL1        0.0160
     33 C           6.0339   -1.8394   31.2141 C.ar    1  UNL1        0.0510
     34 C           6.1911   -3.3158   31.4273 C.ar    1  UNL1        0.0527
     35 C           6.7468   -4.1768   30.3320 C.ar    1  UNL1        0.1533
     36 N           5.4781   -0.9784   32.3095 N.pl3   1  UNL1       -0.3046
     37 C           5.1520    0.4607   32.0400 C.3     1  UNL1        0.1081
     38 C           4.5962    1.3216   33.1354 C.3     1  UNL1        0.0938
     39 N           4.3666    0.7435   34.5003 N.3     1  UNL1       -0.2686
     40 C           3.8109    1.6045   35.5957 C.3     1  UNL1        0.0897
     41 C           4.6927   -0.6956   34.7699 C.3     1  UNL1        0.0938
     42 C           5.2485   -1.5566   33.6745 C.3     1  UNL1        0.1081
     43 O           6.9040   -5.6532   30.5452 O.3     1  UNL1       -0.4701
     44 C           8.1730   -6.1952   31.1332 C.3     1  UNL1        0.2525
@<TRIPOS>BOND
     1    23    24    2
     2    24    19    1
     3    19    20    2
     4    19    21   am
     5    21    13    1
     6    13    14   ar
     7    14    15   ar
     8    15    16   ar
     9    16    17   ar
    10    17     1    1
    11     1     2   ar
    12     2     3    2
    13     2     4   ar
    14     4    25    1
    15    25    26    1
    16    25    27    1
    17     4     5   ar
    18     5     6    2
    19     5     7   ar
    20     7     8   ar
    21     8     9   ar
    22     9    10   ar
    23    10    28    1
    24    28    30    1
    25    30    31   ar
    26    31    32   ar
    27    32    33   ar
    28    33    36    1
    29    36    37    1
    30    37    38    1
    31    38    39    1
    32    39    40    1
    33    39    41    1
    34    41    42    1
    35    33    34   ar
    36    34    35   ar
    37    35    43    1
    38    43    44    1
    39    10    11   ar
    40    11    12   ar
    41    17    18   ar
    42    18    13   ar
    43    12     1   ar
    44    12     7   ar
    45    35    30   ar
    46    42    36    1
    47    21    22    1
    48    28    29    1
@<TRIPOS>MOLECULE
*****
 44 48 0 0 0
SMALL
GASTEIGER

@<TRIPOS>ATOM
      1 N           4.1937   -0.8632   23.1377 N.ar    1  UNL1       -0.2444
      2 C           4.4825   -1.6391   21.8869 C.ar    1  UNL1        0.3387
      3 O           5.7156   -2.4888   21.7992 O.2     1  UNL1       -0.2458
      4 N           3.5382   -1.5654   20.7238 N.ar    1  UNL1       -0.2502
      5 C           2.3051   -0.7158   20.8115 C.ar    1  UNL1        0.2686
      6 O           1.3608   -0.6421   19.6483 O.2     1  UNL1       -0.2667
      7 C           2.0163    0.0602   22.0623 C.ar    1  UNL1        0.1100
      8 C           0.7833    0.9098   22.1499 C.ar    1  UNL1        0.1096
      9 N           0.4946    1.6857   23.4007 N.ar    1  UNL1       -0.2118
     10 C           1.4389    1.6121   24.5639 C.ar    1  UNL1        0.2221
     11 N           2.6719    0.7624   24.4762 N.ar    1  UNL1       -0.1955
     12 C           2.9606   -0.0135   23.2254 C.ar    1  UNL1        0.1600
     13 C           5.9150   -2.0831   26.4991 C.ar    1  UNL1        0.0520
     14 C           7.0266   -1.0842   26.6271 C.ar    1  UNL1        0.0148
     15 C           7.1940   -0.0115   25.5920 C.ar    1  UNL1        0.0028
     16 C           6.2497    0.0622   24.4289 C.ar    1  UNL1        0.0178
     17 C           5.1380   -0.9368   24.3009 C.ar    1  UNL1        0.0708
     18 C           4.9707   -2.0094   25.3359 C.ar    1  UNL1        0.0324
     19 C           6.5753   -4.4047   27.4606 C.2     1  UNL1        0.2496
     20 O           7.5702   -4.5809   26.3519 O.2     1  UNL1       -0.2698
     21 N           5.7477   -3.1558   27.5342 N.am    1  UNL1       -0.2803
     22 H           5.0947   -3.0402   28.2619 H       1  UNL1        0.1552
     23 C           6.8526   -5.2333   29.9073 C.2     1  UNL1        0.0048
     24 C           6.4080   -5.4773   28.4957 C.2     1  UNL1        0.0580
     25 C           3.8270   -2.3414   19.4730 C.3     1  UNL1        0.0929
     26 C           3.4293   -3.7845   19.3770 C.3     1  UNL1        0.0247
     27 C           4.5135   -1.6742   18.3182 C.3     1  UNL1        0.0247
     28 N           1.1500    2.3880   25.8147 N.pl3   1  UNL1       -0.2801
     29 H           0.5995    3.2031   25.7722 H       1  UNL1        0.1552
     30 C           1.7001    1.9222   27.1301 C.ar    1  UNL1        0.0850
     31 C           3.1013    2.2817   27.5268 C.ar    1  UNL1        0.0190
     32 C           3.6513    1.8158   28.8423 C.ar    1  UNL1        0.0160
     33 C           2.8001    0.9904   29.7611 C.ar    1  UNL1        0.0510
     34 C           1.3989    0.6309   29.3644 C.ar    1  UNL1        0.0527
     35 C           0.8489    1.0968   28.0490 C.ar    1  UNL1        0.1533
     36 N           3.3501    0.5246   31.0765 N.pl3   1  UNL1       -0.3046
     37 C           3.2814    1.4204   32.2777 C.3     1  UNL1        0.1081
     38 C           3.8315    0.9544   33.5932 C.3     1  UNL1        0.0938
     39 N           4.4502   -0.4072   33.7074 N.3     1  UNL1       -0.2686
     40 C           5.0003   -0.8730   35.0228 C.3     1  UNL1        0.0897
     41 C           4.5190   -1.3030   32.5062 C.3     1  UNL1        0.0938
     42 C           3.9689   -0.8371   31.1908 C.3     1  UNL1        0.1081
     43 O          -0.5523    0.7372   27.6523 O.3     1  UNL1       -0.4701
     44 C          -1.5465    0.3284   28.6985 C.3     1  UNL1        0.2525
@<TRIPOS>BOND
     1    23    24    2
     2    24    19    1
     3    19    20    2
     4    19    21   am
     5    21    13    1
     6    13    14   ar
     7    14    15   ar
     8    15    16   ar
     9    16    17   ar
    10    17     1    1
    11     1     2   ar
    12     2     3    2
    13     2     4   ar
    14     4    25    1
    15    25    26    1
    16    25    27    1
    17     4     5   ar
    18     5     6    2
    19     5     7   ar
    20     7     8   ar
    21     8     9   ar
    22     9    10   ar
    23    10    28    1
    24    28    30    1
    25    30    31   ar
    26    31    32   ar
    27    32    33   ar
    28    33    36    1
    29    36    37    1
    30    37    38    1
    31    38    39    1
    32    39    40    1
    33    39    41    1
    34    41    42    1
    35    33    34   ar
    36    34    35   ar
    37    35    43    1
    38    43    44    1
    39    10    11   ar
    40    11    12   ar
    41    17    18   ar
    42    18    13   ar
    43    12     1   ar
    44    12     7   ar
    45    35    30   ar
    46    42    36    1
    47    21    22    1
    48    28    29    1
