@<TRIPOS>MOLECULE
*****
 37 40 0 0 0
SMALL
GASTEIGER

@<TRIPOS>ATOM
      1 N           7.7574   -4.6989   24.0670 N.ar    1  UNL1       -0.1273
      2 N           7.8687   -6.1615   24.3805 N.ar    1  UNL1       -0.1435
      3 C           8.0982   -6.3031   25.8560 C.ar    1  UNL1        0.1599
      4 C           8.1286   -4.9280   26.4545 C.ar    1  UNL1        0.0433
      5 C           8.3209   -4.4506   27.8634 C.ar    1  UNL1        0.0033
      6 C           8.3025   -2.9817   28.1666 C.ar    1  UNL1        0.0002
      7 C           8.0919   -1.9902   27.0609 C.ar    1  UNL1        0.0016
      8 C           7.8996   -2.4676   25.6520 C.ar    1  UNL1        0.0208
      9 C           7.9179   -3.9365   25.3488 C.ar    1  UNL1        0.1041
     10 C           8.2675   -7.5933   26.6022 C.ar    1  UNL1        0.2793
     11 N           7.2322   -8.6685   26.7504 N.ar    1  UNL1       -0.1880
     12 C           7.8267   -9.7745   27.5710 C.ar    1  UNL1        0.2007
     13 N           9.2295   -9.3828   27.9299 N.ar    1  UNL1       -0.0584
     14 O           9.5019   -8.0347   27.3312 O.2     1  UNL1       -0.3310
     15 C           7.1392  -11.0485   27.9636 C.3     1  UNL1        0.1621
     16 N           5.6967  -11.2617   27.6116 N.am    1  UNL1       -0.2634
     17 C           4.8048  -12.0339   28.5378 C.2     1  UNL1        0.4017
     18 O           5.3553  -12.5931   29.8162 O.2     1  UNL1       -0.2264
     19 H           5.3353  -10.8947   26.7725 H       1  UNL1        0.1532
     20 O           3.3623  -12.2471   28.1857 O.3     1  UNL1       -0.4419
     21 C           2.7606  -13.6175   28.2852 C.3     1  UNL1        0.1378
     22 C           3.5720  -14.0597   27.1038 C.3     1  UNL1        0.0437
     23 C           1.9491  -13.1753   29.4667 C.3     1  UNL1        0.0437
     24 C           2.1588  -14.9878   28.3848 C.3     1  UNL1        0.0437
     25 S           7.5260   -4.1031   22.7100 S.O2    1  UNL1        0.1007
     26 O           8.9735   -4.3066   22.3738 O.2     1  UNL1       -0.1463
     27 O           6.0784   -3.8996   23.0461 O.2     1  UNL1       -0.1463
     28 C           6.8318   -2.3158   18.6388 C.ar    1  UNL1        0.1725
     29 C           8.2248   -2.4165   19.1862 C.ar    1  UNL1        0.0414
     30 C           8.4561   -3.0122   20.5432 C.ar    1  UNL1        0.0238
     31 C           7.2945   -3.5074   21.3529 C.ar    1  UNL1        0.1324
     32 C           5.9016   -3.4067   20.8055 C.ar    1  UNL1        0.0605
     33 C           5.6703   -2.8110   19.4486 C.ar    1  UNL1        0.1737
     34 C           6.1437   -0.2969   17.1555 C.3     1  UNL1        0.2526
     35 O           6.6004   -1.7201   17.2818 O.3     1  UNL1       -0.4684
     36 O           4.2773   -2.7104   18.9012 O.3     1  UNL1       -0.4683
     37 C           3.3027   -1.7427   19.5042 C.3     1  UNL1        0.2526
@<TRIPOS>BOND
     1    34    35    1
     2    35    28    1
     3    28    29   ar
     4    29    30   ar
     5    30    31   ar
     6    31    25    1
     7    25    26    2
     8    25    27    2
     9    25     1    1
    10     1     2   ar
    11     2     3   ar
    12     3    10    1
    13    10    11   ar
    14    11    12   ar
    15    12    15    1
    16    15    16    1
    17    16    17   am
    18    17    18    2
    19    17    20    1
    20    20    21    1
    21    21    22    1
    22    21    23    1
    23    21    24    1
    24    12    13   ar
    25    13    14   ar
    26     3     4   ar
    27     4     5   ar
    28     5     6   ar
    29     6     7   ar
    30     7     8   ar
    31     8     9   ar
    32    31    32   ar
    33    32    33   ar
    34    33    36    1
    35    36    37    1
    36    33    28   ar
    37     9     1   ar
    38    14    10   ar
    39     9     4   ar
    40    16    19    1
@<TRIPOS>MOLECULE
*****
 37 40 0 0 0
SMALL
GASTEIGER

@<TRIPOS>ATOM
      1 N           6.7953   -4.1261   24.2710 N.ar    1  UNL1       -0.1273
      2 N           6.4970   -3.8679   25.7182 N.ar    1  UNL1       -0.1435
      3 C           7.1792   -4.9299   26.5286 C.ar    1  UNL1        0.1599
      4 C           7.8991   -5.8444   25.5823 C.ar    1  UNL1        0.0433
      5 C           8.7400   -7.0653   25.8109 C.ar    1  UNL1        0.0033
      6 C           9.3435   -7.7894   24.6441 C.ar    1  UNL1        0.0002
      7 C           9.1062   -7.2926   23.2488 C.ar    1  UNL1        0.0016
      8 C           8.2653   -6.0717   23.0203 C.ar    1  UNL1        0.0208
      9 C           7.6618   -5.3476   24.1870 C.ar    1  UNL1        0.1041
     10 C           7.1472   -5.0554   28.0230 C.ar    1  UNL1        0.2793
     11 N           7.0173   -3.9249   29.0002 N.ar    1  UNL1       -0.1880
     12 C           7.0293   -4.5042   30.3838 C.ar    1  UNL1        0.2007
     13 N           7.1667   -5.9929   30.2616 N.ar    1  UNL1       -0.0584
     14 O           7.2396   -6.3336   28.8026 O.2     1  UNL1       -0.3310
     15 C           6.9226   -3.7307   31.6644 C.3     1  UNL1        0.1621
     16 N           5.5812   -3.2705   32.1533 N.am    1  UNL1       -0.2634
     17 C           5.0877   -1.8970   31.8075 C.2     1  UNL1        0.4017
     18 O           5.9356   -0.9835   30.9729 O.2     1  UNL1       -0.2264
     19 H           5.0247   -3.8701   32.7011 H       1  UNL1        0.1532
     20 O           3.7463   -1.4368   32.2963 O.3     1  UNL1       -0.4419
     21 C           3.6222   -0.1360   33.0330 C.3     1  UNL1        0.1378
     22 C           4.3746   -0.7203   34.1915 C.3     1  UNL1        0.0437
     23 C           2.8697    0.4483   31.8743 C.3     1  UNL1        0.0437
     24 C           3.4980    1.1647   33.7695 C.3     1  UNL1        0.0437
     25 S           6.3119   -3.3066   23.1114 S.O2    1  UNL1        0.1007
     26 O           5.2763   -4.3481   22.8070 O.2     1  UNL1       -0.1463
     27 O           7.3475   -2.2651   23.4157 O.2     1  UNL1       -0.1463
     28 C           4.8620   -0.8479   19.6324 C.ar    1  UNL1        0.1725
     29 C           6.2972   -0.7677   20.0612 C.ar    1  UNL1        0.0414
     30 C           6.7804   -1.5873   21.2208 C.ar    1  UNL1        0.0238
     31 C           5.8285   -2.4871   21.9517 C.ar    1  UNL1        0.1324
     32 C           4.3933   -2.5673   21.5230 C.ar    1  UNL1        0.0605
     33 C           3.9101   -1.7478   20.3634 C.ar    1  UNL1        0.1737
     34 C           4.1995   -0.6659   17.1269 C.3     1  UNL1        0.2526
     35 O           4.3787   -0.0284   18.4728 O.3     1  UNL1       -0.4684
     36 O           2.4749   -1.8280   19.9346 O.3     1  UNL1       -0.4683
     37 C           1.5032   -0.7696   20.3653 C.3     1  UNL1        0.2526
@<TRIPOS>BOND
     1    34    35    1
     2    35    28    1
     3    28    29   ar
     4    29    30   ar
     5    30    31   ar
     6    31    25    1
     7    25    26    2
     8    25    27    2
     9    25     1    1
    10     1     2   ar
    11     2     3   ar
    12     3    10    1
    13    10    11   ar
    14    11    12   ar
    15    12    15    1
    16    15    16    1
    17    16    17   am
    18    17    18    2
    19    17    20    1
    20    20    21    1
    21    21    22    1
    22    21    23    1
    23    21    24    1
    24    12    13   ar
    25    13    14   ar
    26     3     4   ar
    27     4     5   ar
    28     5     6   ar
    29     6     7   ar
    30     7     8   ar
    31     8     9   ar
    32    31    32   ar
    33    32    33   ar
    34    33    36    1
    35    36    37    1
    36    33    28   ar
    37     9     1   ar
    38    14    10   ar
    39     9     4   ar
    40    16    19    1
@<TRIPOS>MOLECULE
*****
 37 40 0 0 0
SMALL
GASTEIGER

@<TRIPOS>ATOM
      1 N           6.8626   -4.3379   23.8738 N.ar    1  UNL1       -0.1273
      2 N           6.4218   -3.7626   25.1871 N.ar    1  UNL1       -0.1435
      3 C           7.0333   -4.5855   26.2821 C.ar    1  UNL1        0.1599
      4 C           7.8520   -5.6692   25.6456 C.ar    1  UNL1        0.0433
      5 C           8.6799   -6.7756   26.2290 C.ar    1  UNL1        0.0033
      6 C           9.4023   -7.7290   25.3240 C.ar    1  UNL1        0.0002
      7 C           9.2968   -7.5760   23.8355 C.ar    1  UNL1        0.0016
      8 C           8.4689   -6.4696   23.2521 C.ar    1  UNL1        0.0208
      9 C           7.7465   -5.5162   24.1571 C.ar    1  UNL1        0.1041
     10 C           6.8570   -4.3635   27.7551 C.ar    1  UNL1        0.2793
     11 N           6.6499   -3.0394   28.4286 N.ar    1  UNL1       -0.1880
     12 C           6.5218   -3.2842   29.9030 C.ar    1  UNL1        0.2007
     13 N           6.6497   -4.7598   30.1405 N.ar    1  UNL1       -0.0584
     14 O           6.8568   -5.4268   28.8131 O.2     1  UNL1       -0.3310
     15 C           6.3040   -2.2374   30.9549 C.3     1  UNL1        0.1621
     16 N           5.0863   -1.3630   30.9022 N.am    1  UNL1       -0.2634
     17 C           3.9817   -1.5546   31.8986 C.2     1  UNL1        0.4017
     18 O           4.0946   -2.6206   32.9479 O.2     1  UNL1       -0.2264
     19 H           5.0122   -0.6633   30.2136 H       1  UNL1        0.1532
     20 O           2.7640   -0.6802   31.8459 O.3     1  UNL1       -0.4419
     21 C           2.9066    0.8104   31.9343 C.3     1  UNL1        0.1378
     22 C           3.4642    0.6750   33.3201 C.3     1  UNL1        0.0437
     23 C           2.3488    0.9458   30.5484 C.3     1  UNL1        0.0437
     24 C           3.0490    2.3010   32.0225 C.3     1  UNL1        0.0437
     25 S           6.4858   -3.8249   22.5155 S.O2    1  UNL1        0.1007
     26 O           5.0961   -4.3585   22.6995 O.2     1  UNL1       -0.1463
     27 O           7.8755   -3.2912   22.3315 O.2     1  UNL1       -0.1463
     28 C           5.3552   -2.2858   18.4408 C.ar    1  UNL1        0.1725
     29 C           4.3654   -3.0747   19.2457 C.ar    1  UNL1        0.0414
     30 C           4.7423   -3.5877   20.6040 C.ar    1  UNL1        0.0238
     31 C           6.1089   -3.3118   21.1573 C.ar    1  UNL1        0.1324
     32 C           7.0987   -2.5229   20.3523 C.ar    1  UNL1        0.0605
     33 C           6.7219   -2.0100   18.9941 C.ar    1  UNL1        0.1737
     34 C           3.7976   -0.8610   16.9263 C.3     1  UNL1        0.2526
     35 O           4.9784   -1.7728   17.0826 O.3     1  UNL1       -0.4684
     36 O           7.7117   -1.2211   18.1892 O.3     1  UNL1       -0.4683
     37 C           7.6618    0.2781   18.1996 C.3     1  UNL1        0.2526
@<TRIPOS>BOND
     1    34    35    1
     2    35    28    1
     3    28    29   ar
     4    29    30   ar
     5    30    31   ar
     6    31    25    1
     7    25    26    2
     8    25    27    2
     9    25     1    1
    10     1     2   ar
    11     2     3   ar
    12     3    10    1
    13    10    11   ar
    14    11    12   ar
    15    12    15    1
    16    15    16    1
    17    16    17   am
    18    17    18    2
    19    17    20    1
    20    20    21    1
    21    21    22    1
    22    21    23    1
    23    21    24    1
    24    12    13   ar
    25    13    14   ar
    26     3     4   ar
    27     4     5   ar
    28     5     6   ar
    29     6     7   ar
    30     7     8   ar
    31     8     9   ar
    32    31    32   ar
    33    32    33   ar
    34    33    36    1
    35    36    37    1
    36    33    28   ar
    37     9     1   ar
    38    14    10   ar
    39     9     4   ar
    40    16    19    1
@<TRIPOS>MOLECULE
*****
 37 40 0 0 0
SMALL
GASTEIGER

@<TRIPOS>ATOM
      1 N           6.9892   -4.2009   26.1747 N.ar    1  UNL1       -0.1273
      2 N           6.5381   -3.4837   24.9369 N.ar    1  UNL1       -0.1435
      3 C           7.0198   -4.2622   23.7486 C.ar    1  UNL1        0.1599
      4 C           7.7686   -5.4604   24.2521 C.ar    1  UNL1        0.0433
      5 C           8.4653   -6.5811   23.5389 C.ar    1  UNL1        0.0033
      6 C           9.1429   -7.6640   24.3251 C.ar    1  UNL1        0.0002
      7 C           9.1240   -7.6261   25.8245 C.ar    1  UNL1        0.0016
      8 C           8.4274   -6.5054   26.5377 C.ar    1  UNL1        0.0208
      9 C           7.7497   -5.4225   25.7515 C.ar    1  UNL1        0.1041
     10 C           6.7927   -3.9051   22.3096 C.ar    1  UNL1        0.2793
     11 N           5.6027   -4.2918   21.4824 N.ar    1  UNL1       -0.1880
     12 C           5.7901   -3.7243   20.1066 C.ar    1  UNL1        0.2007
     13 N           7.0961   -2.9868   20.0836 N.ar    1  UNL1       -0.0584
     14 O           7.7157   -3.0985   21.4450 O.2     1  UNL1       -0.3310
     15 C           4.8388   -3.8689   18.9560 C.3     1  UNL1        0.1621
     16 N           4.5094   -2.6811   18.1013 N.am    1  UNL1       -0.2634
     17 C           3.5369   -1.6502   18.5925 C.2     1  UNL1        0.4017
     18 O           2.8938   -1.8070   19.9385 O.2     1  UNL1       -0.2264
     19 H           4.9315   -2.5781   17.2178 H       1  UNL1        0.1532
     20 O           3.2075   -0.4623   17.7377 O.3     1  UNL1       -0.4419
     21 C           2.9980    0.8817   18.3700 C.3     1  UNL1        0.1378
     22 C           1.5138    0.7154   18.2318 C.3     1  UNL1        0.0437
     23 C           4.4824    1.0480   18.5081 C.3     1  UNL1        0.0437
     24 C           2.7887    2.2257   19.0022 C.3     1  UNL1        0.0437
     25 S           6.7260   -3.7717   27.5877 S.O2    1  UNL1        0.1007
     26 O           5.8105   -4.9452   27.7736 O.2     1  UNL1       -0.1463
     27 O           7.6415   -2.5981   27.4018 O.2     1  UNL1       -0.1463
     28 C           5.9366   -2.4841   31.8267 C.ar    1  UNL1        0.1725
     29 C           6.6258   -3.7884   31.5550 C.ar    1  UNL1        0.0414
     30 C           6.8889   -4.2176   30.1420 C.ar    1  UNL1        0.0238
     31 C           6.4628   -3.3425   29.0007 C.ar    1  UNL1        0.1324
     32 C           5.7736   -2.0382   29.2724 C.ar    1  UNL1        0.0605
     33 C           5.5105   -1.6090   30.6853 C.ar    1  UNL1        0.1737
     34 C           4.2954   -2.1831   33.8181 C.3     1  UNL1        0.2526
     35 O           5.6734   -2.0549   33.2396 O.3     1  UNL1       -0.4684
     36 O           4.8214   -0.3047   30.9570 O.3     1  UNL1       -0.4683
     37 C           3.3275   -0.2113   30.8595 C.3     1  UNL1        0.2526
@<TRIPOS>BOND
     1    34    35    1
     2    35    28    1
     3    28    29   ar
     4    29    30   ar
     5    30    31   ar
     6    31    25    1
     7    25    26    2
     8    25    27    2
     9    25     1    1
    10     1     2   ar
    11     2     3   ar
    12     3    10    1
    13    10    11   ar
    14    11    12   ar
    15    12    15    1
    16    15    16    1
    17    16    17   am
    18    17    18    2
    19    17    20    1
    20    20    21    1
    21    21    22    1
    22    21    23    1
    23    21    24    1
    24    12    13   ar
    25    13    14   ar
    26     3     4   ar
    27     4     5   ar
    28     5     6   ar
    29     6     7   ar
    30     7     8   ar
    31     8     9   ar
    32    31    32   ar
    33    32    33   ar
    34    33    36    1
    35    36    37    1
    36    33    28   ar
    37     9     1   ar
    38    14    10   ar
    39     9     4   ar
    40    16    19    1
@<TRIPOS>MOLECULE
*****
 37 40 0 0 0
SMALL
GASTEIGER

@<TRIPOS>ATOM
      1 N          -2.6992    3.7017   20.4136 N.ar    1  UNL1       -0.1273
      2 N          -1.5689    2.7516   20.6777 N.ar    1  UNL1       -0.1435
      3 C          -0.7028    2.7101   19.4538 C.ar    1  UNL1        0.1599
      4 C          -1.2978    3.6345   18.4332 C.ar    1  UNL1        0.0433
      5 C          -0.8755    3.9973   17.0404 C.ar    1  UNL1        0.0033
      6 C          -1.6870    4.9730   16.2409 C.ar    1  UNL1        0.0002
      7 C          -2.9209    5.5858   16.8341 C.ar    1  UNL1        0.0016
      8 C          -3.3432    5.2230   18.2269 C.ar    1  UNL1        0.0208
      9 C          -2.5317    4.2473   19.0265 C.ar    1  UNL1        0.1041
     10 C           0.5401    1.8884   19.2807 C.ar    1  UNL1        0.2793
     11 N           1.8409    2.3672   18.7075 N.ar    1  UNL1       -0.1880
     12 C           2.8053    1.2184   18.7230 C.ar    1  UNL1        0.2007
     13 N           2.1003    0.0295   19.3058 N.ar    1  UNL1       -0.0584
     14 O           0.7004    0.4436   19.6505 O.2     1  UNL1       -0.3310
     15 C           4.2250    1.2524   18.2404 C.3     1  UNL1        0.1621
     16 N           5.0985    0.0425   18.3934 N.am    1  UNL1       -0.2634
     17 C           4.9965   -1.0853   17.4099 C.2     1  UNL1        0.4017
     18 O           4.0211   -1.0034   16.2733 O.2     1  UNL1       -0.2264
     19 H           5.7386   -0.0113   19.1394 H       1  UNL1        0.1532
     20 O           5.8699   -2.2952   17.5629 O.3     1  UNL1       -0.4419
     21 C           5.9971   -2.9644   18.8993 C.3     1  UNL1        0.1378
     22 C           4.6084   -3.5130   18.7568 C.3     1  UNL1        0.0437
     23 C           7.3859   -2.4157   19.0418 C.3     1  UNL1        0.0437
     24 C           6.1244   -3.6335   20.2357 C.3     1  UNL1        0.0437
     25 S          -3.8033    4.0458   21.3690 S.O2    1  UNL1        0.1007
     26 O          -3.1617    5.3759   21.6315 O.2     1  UNL1       -0.1463
     27 O          -4.4450    2.7156   21.1065 O.2     1  UNL1       -0.1463
     28 C          -7.1158    5.0778   24.2348 C.ar    1  UNL1        0.1725
     29 C          -7.3913    5.0135   22.7617 C.ar    1  UNL1        0.0414
     30 C          -6.2871    4.6695   21.8065 C.ar    1  UNL1        0.0238
     31 C          -4.9074    4.3898   22.3243 C.ar    1  UNL1        0.1324
     32 C          -4.6319    4.4541   23.7974 C.ar    1  UNL1        0.0605
     33 C          -5.7360    4.7981   24.7526 C.ar    1  UNL1        0.1737
     34 C          -8.4041    6.8395   25.6443 C.3     1  UNL1        0.2526
     35 O          -8.2198    5.4218   25.1901 O.3     1  UNL1       -0.4684
     36 O          -5.4605    4.8623   26.2256 O.3     1  UNL1       -0.4683
     37 C          -4.2496    4.1823   26.7925 C.3     1  UNL1        0.2526
@<TRIPOS>BOND
     1    34    35    1
     2    35    28    1
     3    28    29   ar
     4    29    30   ar
     5    30    31   ar
     6    31    25    1
     7    25    26    2
     8    25    27    2
     9    25     1    1
    10     1     2   ar
    11     2     3   ar
    12     3    10    1
    13    10    11   ar
    14    11    12   ar
    15    12    15    1
    16    15    16    1
    17    16    17   am
    18    17    18    2
    19    17    20    1
    20    20    21    1
    21    21    22    1
    22    21    23    1
    23    21    24    1
    24    12    13   ar
    25    13    14   ar
    26     3     4   ar
    27     4     5   ar
    28     5     6   ar
    29     6     7   ar
    30     7     8   ar
    31     8     9   ar
    32    31    32   ar
    33    32    33   ar
    34    33    36    1
    35    36    37    1
    36    33    28   ar
    37     9     1   ar
    38    14    10   ar
    39     9     4   ar
    40    16    19    1
@<TRIPOS>MOLECULE
*****
 37 40 0 0 0
SMALL
GASTEIGER

@<TRIPOS>ATOM
      1 N           3.6237    0.0352   31.4330 N.ar    1  UNL1       -0.1273
      2 N           3.6267    1.0975   32.4921 N.ar    1  UNL1       -0.1435
      3 C           2.4114    1.9540   32.2929 C.ar    1  UNL1        0.1599
      4 C           1.6574    1.4210   31.1107 C.ar    1  UNL1        0.0433
      5 C           0.3854    1.8623   30.4496 C.ar    1  UNL1        0.0033
      6 C          -0.1374    1.1178   29.2570 C.ar    1  UNL1        0.0002
      7 C           0.6118   -0.0681   28.7256 C.ar    1  UNL1        0.0016
      8 C           1.8838   -0.5094   29.3867 C.ar    1  UNL1        0.0208
      9 C           2.4066    0.2352   30.5793 C.ar    1  UNL1        0.1041
     10 C           2.0191    3.1359   33.1290 C.ar    1  UNL1        0.2793
     11 N           1.8073    3.1341   34.6139 N.ar    1  UNL1       -0.1880
     12 C           1.4270    4.5242   35.0297 C.ar    1  UNL1        0.2007
     13 N           1.4036    5.3852   33.8016 N.ar    1  UNL1       -0.0584
     14 O           1.7696    4.5272   32.6269 O.2     1  UNL1       -0.3310
     15 C           1.1233    4.9743   36.4279 C.3     1  UNL1        0.1621
     16 N           1.1784    3.9924   37.5606 N.am    1  UNL1       -0.2634
     17 C           2.4777    3.7287   38.2620 C.2     1  UNL1        0.4017
     18 O           3.7221    4.4468   37.8307 O.2     1  UNL1       -0.2264
     19 H           0.3617    3.5211   37.8437 H       1  UNL1        0.1532
     20 O           2.5329    2.7468   39.3947 O.3     1  UNL1       -0.4419
     21 C           1.7840    1.4505   39.3008 C.3     1  UNL1        0.1378
     22 C           2.8440    0.9040   38.3911 C.3     1  UNL1        0.0437
     23 C           0.7239    1.9971   40.2105 C.3     1  UNL1        0.0437
     24 C           1.0351    0.1543   39.2069 C.3     1  UNL1        0.0437
     25 S           4.6564   -1.0385   31.2583 S.O2    1  UNL1        0.1007
     26 O           5.3874   -0.1752   30.2734 O.2     1  UNL1       -0.1463
     27 O           3.9254   -1.9019   32.2433 O.2     1  UNL1       -0.1463
     28 C           7.7546   -4.2599   30.7346 C.ar    1  UNL1        0.1725
     29 C           7.1178   -4.0426   32.0752 C.ar    1  UNL1        0.0414
     30 C           6.0851   -2.9688   32.2498 C.ar    1  UNL1        0.0238
     31 C           5.6892   -2.1123   31.0837 C.ar    1  UNL1        0.1324
     32 C           6.3259   -2.3297   29.7431 C.ar    1  UNL1        0.0605
     33 C           7.3586   -3.4034   29.5685 C.ar    1  UNL1        0.1737
     34 C           8.6732   -6.6162   31.3295 C.3     1  UNL1        0.2526
     35 O           8.7872   -5.3337   30.5599 O.3     1  UNL1       -0.4684
     36 O           7.9953   -3.6208   28.2279 O.3     1  UNL1       -0.4683
     37 C           7.3724   -4.5690   27.2466 C.3     1  UNL1        0.2526
@<TRIPOS>BOND
     1    34    35    1
     2    35    28    1
     3    28    29   ar
     4    29    30   ar
     5    30    31   ar
     6    31    25    1
     7    25    26    2
     8    25    27    2
     9    25     1    1
    10     1     2   ar
    11     2     3   ar
    12     3    10    1
    13    10    11   ar
    14    11    12   ar
    15    12    15    1
    16    15    16    1
    17    16    17   am
    18    17    18    2
    19    17    20    1
    20    20    21    1
    21    21    22    1
    22    21    23    1
    23    21    24    1
    24    12    13   ar
    25    13    14   ar
    26     3     4   ar
    27     4     5   ar
    28     5     6   ar
    29     6     7   ar
    30     7     8   ar
    31     8     9   ar
    32    31    32   ar
    33    32    33   ar
    34    33    36    1
    35    36    37    1
    36    33    28   ar
    37     9     1   ar
    38    14    10   ar
    39     9     4   ar
    40    16    19    1
@<TRIPOS>MOLECULE
*****
 37 40 0 0 0
SMALL
GASTEIGER

@<TRIPOS>ATOM
      1 N           5.2805   -1.3587   31.3436 N.ar    1  UNL1       -0.1273
      2 N           4.9570   -0.7883   29.9945 N.ar    1  UNL1       -0.1435
      3 C           5.4771   -1.7353   28.9541 C.ar    1  UNL1        0.1599
      4 C           6.1220   -2.8910   29.6601 C.ar    1  UNL1        0.0433
      5 C           6.8042   -4.1253   29.1490 C.ar    1  UNL1        0.0033
      6 C           7.3649   -5.1267   30.1147 C.ar    1  UNL1        0.0002
      7 C           7.2434   -4.8939   31.5915 C.ar    1  UNL1        0.0016
      8 C           6.5612   -3.6597   32.1026 C.ar    1  UNL1        0.0208
      9 C           6.0005   -2.6582   31.1369 C.ar    1  UNL1        0.1041
     10 C           5.3709   -1.5579   27.4684 C.ar    1  UNL1        0.2793
     11 N           4.0997   -1.4011   26.6878 N.ar    1  UNL1       -0.1880
     12 C           4.4603   -1.2524   25.2394 C.ar    1  UNL1        0.2007
     13 N           5.9546   -1.3173   25.1249 N.ar    1  UNL1       -0.0584
     14 O           6.5173   -1.5060   26.5025 O.2     1  UNL1       -0.3310
     15 C           3.4962   -1.0707   24.1048 C.3     1  UNL1        0.1621
     16 N           3.9977   -1.0444   22.6913 N.am    1  UNL1       -0.2634
     17 C           4.3963   -2.3214   22.0130 C.2     1  UNL1        0.4017
     18 O           4.2935   -3.6249   22.7481 O.2     1  UNL1       -0.2264
     19 H           4.0651   -0.1889   22.2088 H       1  UNL1        0.1532
     20 O           4.8977   -2.2951   20.5995 O.3     1  UNL1       -0.4419
     21 C           4.7678   -3.5138   19.7347 C.3     1  UNL1        0.1378
     22 C           3.3416   -3.1537   19.4415 C.3     1  UNL1        0.0437
     23 C           6.1942   -3.8738   20.0280 C.3     1  UNL1        0.0437
     24 C           4.6381   -4.7325   18.8699 C.3     1  UNL1        0.0437
     25 S           4.9433   -0.7384   32.6670 S.O2    1  UNL1        0.1007
     26 O           6.3151   -0.1356   32.7342 O.2     1  UNL1       -0.1463
     27 O           3.5713   -1.3412   32.5999 O.2     1  UNL1       -0.1463
     28 C           3.9313    1.1222   36.6375 C.ar    1  UNL1        0.1725
     29 C           4.9494    0.0232   36.5619 C.ar    1  UNL1        0.0414
     30 C           5.2866   -0.5970   35.2384 C.ar    1  UNL1        0.0238
     31 C           4.6059   -0.1181   33.9905 C.ar    1  UNL1        0.1324
     32 C           3.5879    0.9809   34.0661 C.ar    1  UNL1        0.0605
     33 C           3.2506    1.6010   35.3895 C.ar    1  UNL1        0.1737
     34 C           2.3135    1.3812   38.6538 C.3     1  UNL1        0.2526
     35 O           3.5940    1.7424   37.9609 O.3     1  UNL1       -0.4684
     36 O           2.2326    2.7001   35.4651 O.3     1  UNL1       -0.4683
     37 C           2.6772    4.1314   35.5249 C.3     1  UNL1        0.2526
@<TRIPOS>BOND
     1    34    35    1
     2    35    28    1
     3    28    29   ar
     4    29    30   ar
     5    30    31   ar
     6    31    25    1
     7    25    26    2
     8    25    27    2
     9    25     1    1
    10     1     2   ar
    11     2     3   ar
    12     3    10    1
    13    10    11   ar
    14    11    12   ar
    15    12    15    1
    16    15    16    1
    17    16    17   am
    18    17    18    2
    19    17    20    1
    20    20    21    1
    21    21    22    1
    22    21    23    1
    23    21    24    1
    24    12    13   ar
    25    13    14   ar
    26     3     4   ar
    27     4     5   ar
    28     5     6   ar
    29     6     7   ar
    30     7     8   ar
    31     8     9   ar
    32    31    32   ar
    33    32    33   ar
    34    33    36    1
    35    36    37    1
    36    33    28   ar
    37     9     1   ar
    38    14    10   ar
    39     9     4   ar
    40    16    19    1
@<TRIPOS>MOLECULE
*****
 37 40 0 0 0
SMALL
GASTEIGER

@<TRIPOS>ATOM
      1 N           0.8000    1.3184   20.4585 N.ar    1  UNL1       -0.1273
      2 N          -0.6355    1.4214   20.8813 N.ar    1  UNL1       -0.1435
      3 C          -1.2142    2.6577   20.2595 C.ar    1  UNL1        0.1599
      4 C          -0.1363    3.3188   19.4525 C.ar    1  UNL1        0.0433
      5 C          -0.1276    4.5676   18.6216 C.ar    1  UNL1        0.0033
      6 C           1.1260    4.9886   17.9137 C.ar    1  UNL1        0.0002
      7 C           2.3709    4.1608   18.0367 C.ar    1  UNL1        0.0016
      8 C           2.3621    2.9121   18.8676 C.ar    1  UNL1        0.0208
      9 C           1.1085    2.4911   19.5755 C.ar    1  UNL1        0.1041
     10 C          -2.6233    3.1471   20.4170 C.ar    1  UNL1        0.2793
     11 N          -3.4170    3.1545   21.6898 N.ar    1  UNL1       -0.1880
     12 C          -4.7704    3.7269   21.3889 C.ar    1  UNL1        0.2007
     13 N          -4.8132    4.0733   19.9300 N.ar    1  UNL1       -0.0584
     14 O          -3.4862    3.7149   19.3294 O.2     1  UNL1       -0.3310
     15 C          -5.8853    3.9192   22.3737 C.3     1  UNL1        0.1621
     16 N          -5.9325    5.1561   23.2211 N.am    1  UNL1       -0.2634
     17 C          -5.7470    5.0554   24.7061 C.2     1  UNL1        0.4017
     18 O          -5.5142    3.7179   25.3439 O.2     1  UNL1       -0.2264
     19 H          -6.0853    6.0340   22.8025 H       1  UNL1        0.1532
     20 O          -5.7942    6.2923   25.5535 O.3     1  UNL1       -0.4419
     21 C          -6.6136    6.3099   26.8098 C.3     1  UNL1        0.1378
     22 C          -7.8700    6.2953   25.9906 C.3     1  UNL1        0.0437
     23 C          -5.3571    6.3246   27.6290 C.3     1  UNL1        0.0437
     24 C          -7.4328    6.3276   28.0661 C.3     1  UNL1        0.0437
     25 S           1.7588    0.2333   20.8501 S.O2    1  UNL1        0.1007
     26 O           1.1251   -0.6875   19.8499 O.2     1  UNL1       -0.1463
     27 O           2.3925    1.1541   21.8503 O.2     1  UNL1       -0.1463
     28 C           4.6351   -3.0219   22.0251 C.ar    1  UNL1        0.1725
     29 C           4.0811   -2.0980   23.0687 C.ar    1  UNL1        0.0414
     30 C           3.1223   -1.0129   22.6770 C.ar    1  UNL1        0.0238
     31 C           2.7176   -0.8518   21.2417 C.ar    1  UNL1        0.1324
     32 C           3.2717   -1.7758   20.1980 C.ar    1  UNL1        0.0605
     33 C           4.2304   -2.8608   20.5897 C.ar    1  UNL1        0.1737
     34 C           6.3828   -3.9883   23.6870 C.3     1  UNL1        0.2526
     35 O           5.5939   -4.1070   22.4166 O.3     1  UNL1       -0.4684
     36 O           4.7845   -3.7848   19.5460 O.3     1  UNL1       -0.4683
     37 C           3.9728   -4.9539   19.0722 C.3     1  UNL1        0.2526
@<TRIPOS>BOND
     1    34    35    1
     2    35    28    1
     3    28    29   ar
     4    29    30   ar
     5    30    31   ar
     6    31    25    1
     7    25    26    2
     8    25    27    2
     9    25     1    1
    10     1     2   ar
    11     2     3   ar
    12     3    10    1
    13    10    11   ar
    14    11    12   ar
    15    12    15    1
    16    15    16    1
    17    16    17   am
    18    17    18    2
    19    17    20    1
    20    20    21    1
    21    21    22    1
    22    21    23    1
    23    21    24    1
    24    12    13   ar
    25    13    14   ar
    26     3     4   ar
    27     4     5   ar
    28     5     6   ar
    29     6     7   ar
    30     7     8   ar
    31     8     9   ar
    32    31    32   ar
    33    32    33   ar
    34    33    36    1
    35    36    37    1
    36    33    28   ar
    37     9     1   ar
    38    14    10   ar
    39     9     4   ar
    40    16    19    1
@<TRIPOS>MOLECULE
*****
 37 40 0 0 0
SMALL
GASTEIGER

@<TRIPOS>ATOM
      1 N           2.1518    0.0629   21.5010 N.ar    1  UNL1       -0.1273
      2 N           2.5120    0.1704   22.9532 N.ar    1  UNL1       -0.1435
      3 C           3.4231   -0.9724   23.2905 C.ar    1  UNL1        0.1599
      4 C           3.6261   -1.7862   22.0469 C.ar    1  UNL1        0.0433
      5 C           4.4248   -3.0272   21.7787 C.ar    1  UNL1        0.0033
      6 C           4.4378   -3.6283   20.4045 C.ar    1  UNL1        0.0002
      7 C           3.6521   -2.9884   19.2985 C.ar    1  UNL1        0.0016
      8 C           2.8534   -1.7474   19.5667 C.ar    1  UNL1        0.0208
      9 C           2.8404   -1.1463   20.9409 C.ar    1  UNL1        0.1041
     10 C           4.0255   -1.2523   24.6354 C.ar    1  UNL1        0.2793
     11 N           3.4613   -0.8299   25.9595 N.ar    1  UNL1       -0.1880
     12 C           4.3850   -1.3203   27.0348 C.ar    1  UNL1        0.2007
     13 N           5.5201   -2.0459   26.3752 N.ar    1  UNL1       -0.0584
     14 O           5.2980   -2.0039   24.8923 O.2     1  UNL1       -0.3310
     15 C           4.2052   -1.1203   28.5104 C.3     1  UNL1        0.1621
     16 N           2.8593   -0.7481   29.0584 N.am    1  UNL1       -0.2634
     17 C           2.4416    0.6916   29.1078 C.2     1  UNL1        0.4017
     18 O           3.3697    1.7593   28.6092 O.2     1  UNL1       -0.2264
     19 H           2.2501   -1.4489   29.3856 H       1  UNL1        0.1532
     20 O           1.0957    1.0637   29.6557 O.3     1  UNL1       -0.4419
     21 C          -0.0574    1.2899   28.7234 C.3     1  UNL1        0.1378
     22 C          -0.4450   -0.1533   28.8526 C.3     1  UNL1        0.0437
     23 C           0.3303    2.7332   28.5942 C.3     1  UNL1        0.0437
     24 C          -1.2104    1.5161   27.7911 C.3     1  UNL1        0.0437
     25 S           1.2598    1.0001   20.7421 S.O2    1  UNL1        0.1007
     26 O           2.4102    1.9443   20.5557 O.2     1  UNL1       -0.1463
     27 O           0.1092    0.0559   20.9285 O.2     1  UNL1       -0.1463
     28 C          -1.4166    3.8115   18.4654 C.ar    1  UNL1        0.1725
     29 C          -0.2244    3.1998   17.7911 C.ar    1  UNL1        0.0414
     30 C           0.6676    2.2627   18.5501 C.ar    1  UNL1        0.0238
     31 C           0.3676    1.9372   19.9833 C.ar    1  UNL1        0.1324
     32 C          -0.8245    2.5490   20.6575 C.ar    1  UNL1        0.0605
     33 C          -1.7166    3.4860   19.8987 C.ar    1  UNL1        0.1737
     34 C          -3.5460    4.2286   17.0366 C.3     1  UNL1        0.2526
     35 O          -2.3087    4.7486   17.7066 O.3     1  UNL1       -0.4684
     36 O          -2.9087    4.0977   20.5729 O.3     1  UNL1       -0.4683
     37 C          -4.1822    3.3153   20.6996 C.3     1  UNL1        0.2526
@<TRIPOS>BOND
     1    34    35    1
     2    35    28    1
     3    28    29   ar
     4    29    30   ar
     5    30    31   ar
     6    31    25    1
     7    25    26    2
     8    25    27    2
     9    25     1    1
    10     1     2   ar
    11     2     3   ar
    12     3    10    1
    13    10    11   ar
    14    11    12   ar
    15    12    15    1
    16    15    16    1
    17    16    17   am
    18    17    18    2
    19    17    20    1
    20    20    21    1
    21    21    22    1
    22    21    23    1
    23    21    24    1
    24    12    13   ar
    25    13    14   ar
    26     3     4   ar
    27     4     5   ar
    28     5     6   ar
    29     6     7   ar
    30     7     8   ar
    31     8     9   ar
    32    31    32   ar
    33    32    33   ar
    34    33    36    1
    35    36    37    1
    36    33    28   ar
    37     9     1   ar
    38    14    10   ar
    39     9     4   ar
    40    16    19    1
