@<TRIPOS>MOLECULE
*****
 22 24 0 0 0
SMALL
GASTEIGER

@<TRIPOS>ATOM
      1 C          -7.6220  -14.8676   27.5693 C.3     1  UNL1        0.0310
      2 C          -7.8055  -15.6451   26.2997 C.ar    1  UNL1       -0.0222
      3 C          -6.9171  -15.3772   25.1212 C.ar    1  UNL1       -0.0043
      4 C          -7.1005  -16.1547   23.8516 C.ar    1  UNL1       -0.0009
      5 C          -8.1723  -17.2001   23.7605 C.ar    1  UNL1       -0.0079
      6 C          -9.0607  -17.4680   24.9390 C.ar    1  UNL1       -0.0187
      7 C          -8.8773  -16.6905   26.2086 C.ar    1  UNL1       -0.0082
      8 C         -10.0245  -18.5517   24.5561 C.3     1  UNL1        0.0480
      9 C          -9.7318  -18.9536   23.1409 C.2     1  UNL1       -0.0420
     10 C          -8.5870  -18.1182   22.6493 C.2     1  UNL1       -0.0240
     11 C         -10.4565  -20.0061   22.3553 C.3     1  UNL1        0.0394
     12 C         -11.2437  -19.6236   21.1371 C.3     1  UNL1        0.0765
     13 N         -11.7750  -18.2281   20.9951 N.3     1  UNL1       -0.2700
     14 C         -12.8463  -17.7354   21.9223 C.3     1  UNL1        0.0897
     15 C         -11.2351  -17.3252   19.9259 C.3     1  UNL1        0.0897
     16 C          -7.9660  -18.1886   21.2857 C.3     1  UNL1        0.0730
     17 C          -6.6469  -18.8774   21.0969 C.ar    1  UNL1        0.0825
     18 C          -6.5778  -20.1712   20.3411 C.ar    1  UNL1        0.1139
     19 N          -5.2587  -20.8599   20.1524 N.ar    1  UNL1       -0.2394
     20 C          -4.0087  -20.2549   20.7194 C.ar    1  UNL1        0.1195
     21 C          -4.0779  -18.9611   21.4753 C.ar    1  UNL1        0.1191
     22 N          -5.3970  -18.2724   21.6640 N.ar    1  UNL1       -0.2446
@<TRIPOS>BOND
     1     1     2    1
     2     2     3   ar
     3     3     4   ar
     4     4     5   ar
     5     5     6   ar
     6     6     7   ar
     7     6     8    1
     8     8     9    1
     9     9    11    1
    10    11    12    1
    11    12    13    1
    12    13    14    1
    13    13    15    1
    14     9    10    2
    15    10    16    1
    16    16    17    1
    17    17    18   ar
    18    18    19   ar
    19    19    20   ar
    20    20    21   ar
    21    21    22   ar
    22     7     2   ar
    23    22    17   ar
    24    10     5    1
@<TRIPOS>MOLECULE
*****
 22 24 0 0 0
SMALL
GASTEIGER

@<TRIPOS>ATOM
      1 C          -5.6850  -14.8575   25.9423 C.3     1  UNL1        0.0310
      2 C          -5.7612  -15.8568   24.8262 C.ar    1  UNL1       -0.0222
      3 C          -4.5248  -16.5807   24.3820 C.ar    1  UNL1       -0.0043
      4 C          -4.6010  -17.5800   23.2660 C.ar    1  UNL1       -0.0009
      5 C          -5.9135  -17.8555   22.5942 C.ar    1  UNL1       -0.0079
      6 C          -7.1498  -17.1317   23.0384 C.ar    1  UNL1       -0.0187
      7 C          -7.0737  -16.1323   24.1544 C.ar    1  UNL1       -0.0082
      8 C          -8.2945  -17.6079   22.1940 C.3     1  UNL1        0.0480
      9 C          -7.7656  -18.6262   21.2279 C.2     1  UNL1       -0.0420
     10 C          -6.2940  -18.7792   21.4752 C.2     1  UNL1       -0.0240
     11 C          -8.5673  -19.3622   20.1956 C.3     1  UNL1        0.0394
     12 C          -9.9673  -18.9248   19.8813 C.3     1  UNL1        0.0765
     13 N         -11.0338  -19.0108   20.9326 N.3     1  UNL1       -0.2700
     14 C         -12.0908  -17.9499   21.0172 C.3     1  UNL1        0.0897
     15 C         -11.0433  -20.1578   21.8992 C.3     1  UNL1        0.0897
     16 C          -5.3659  -19.6950   20.7338 C.3     1  UNL1        0.0730
     17 C          -3.9825  -19.2353   20.3802 C.ar    1  UNL1        0.0825
     18 C          -2.7920  -19.8568   21.0482 C.ar    1  UNL1        0.1139
     19 N          -1.4086  -19.3971   20.6947 N.ar    1  UNL1       -0.2394
     20 C          -1.2158  -18.3158   19.6730 C.ar    1  UNL1        0.1195
     21 C          -2.4064  -17.6943   19.0050 C.ar    1  UNL1        0.1191
     22 N          -3.7897  -18.1540   19.3586 N.ar    1  UNL1       -0.2446
@<TRIPOS>BOND
     1     1     2    1
     2     2     3   ar
     3     3     4   ar
     4     4     5   ar
     5     5     6   ar
     6     6     7   ar
     7     6     8    1
     8     8     9    1
     9     9    11    1
    10    11    12    1
    11    12    13    1
    12    13    14    1
    13    13    15    1
    14     9    10    2
    15    10    16    1
    16    16    17    1
    17    17    18   ar
    18    18    19   ar
    19    19    20   ar
    20    20    21   ar
    21    21    22   ar
    22     7     2   ar
    23    22    17   ar
    24    10     5    1
@<TRIPOS>MOLECULE
*****
 22 24 0 0 0
SMALL
GASTEIGER

@<TRIPOS>ATOM
      1 C         -11.7229  -18.3974   20.4427 C.3     1  UNL1        0.0310
      2 C         -10.2507  -18.6825   20.4795 C.ar    1  UNL1       -0.0222
      3 C          -9.5812  -19.3232   19.3000 C.ar    1  UNL1       -0.0043
      4 C          -8.1090  -19.6083   19.3368 C.ar    1  UNL1       -0.0009
      5 C          -7.3064  -19.2528   20.5530 C.ar    1  UNL1       -0.0079
      6 C          -7.9759  -18.6122   21.7325 C.ar    1  UNL1       -0.0187
      7 C          -9.4481  -18.3270   21.6957 C.ar    1  UNL1       -0.0082
      8 C          -6.9337  -18.3755   22.7851 C.3     1  UNL1        0.0480
      9 C          -5.6201  -18.8700   22.2561 C.2     1  UNL1       -0.0420
     10 C          -5.8504  -19.4122   20.8766 C.2     1  UNL1       -0.0240
     11 C          -4.3066  -18.8294   22.9796 C.3     1  UNL1        0.0394
     12 C          -3.9185  -17.6095   23.7615 C.3     1  UNL1        0.0765
     13 N          -3.8054  -16.2818   23.0728 N.3     1  UNL1       -0.2700
     14 C          -4.7891  -15.1917   23.3792 C.3     1  UNL1        0.0897
     15 C          -2.7085  -16.0442   22.0776 C.3     1  UNL1        0.0897
     16 C          -4.8078  -20.0089   19.9784 C.3     1  UNL1        0.0730
     17 C          -3.5175  -19.2818   19.7405 C.ar    1  UNL1        0.0825
     18 C          -2.2495  -19.7794   20.3686 C.ar    1  UNL1        0.1139
     19 N          -0.9592  -19.0523   20.1308 N.ar    1  UNL1       -0.2394
     20 C          -0.9369  -17.8277   19.2648 C.ar    1  UNL1        0.1195
     21 C          -2.2050  -17.3302   18.6368 C.ar    1  UNL1        0.1191
     22 N          -3.4953  -18.0573   18.8746 N.ar    1  UNL1       -0.2446
@<TRIPOS>BOND
     1     1     2    1
     2     2     3   ar
     3     3     4   ar
     4     4     5   ar
     5     5     6   ar
     6     6     7   ar
     7     6     8    1
     8     8     9    1
     9     9    11    1
    10    11    12    1
    11    12    13    1
    12    13    14    1
    13    13    15    1
    14     9    10    2
    15    10    16    1
    16    16    17    1
    17    17    18   ar
    18    18    19   ar
    19    19    20   ar
    20    20    21   ar
    21    21    22   ar
    22     7     2   ar
    23    22    17   ar
    24    10     5    1
@<TRIPOS>MOLECULE
*****
 22 24 0 0 0
SMALL
GASTEIGER

@<TRIPOS>ATOM
      1 C          -9.8616  -19.9852   19.0399 C.3     1  UNL1        0.0310
      2 C          -8.6867  -19.6244   19.8999 C.ar    1  UNL1       -0.0222
      3 C          -7.4151  -20.4138   19.8020 C.ar    1  UNL1       -0.0043
      4 C          -6.2402  -20.0530   20.6619 C.ar    1  UNL1       -0.0009
      5 C          -6.3370  -18.9028   21.6198 C.ar    1  UNL1       -0.0079
      6 C          -7.6087  -18.1133   21.7177 C.ar    1  UNL1       -0.0187
      7 C          -8.7835  -18.4742   20.8577 C.ar    1  UNL1       -0.0082
      8 C          -7.4097  -17.0396   22.7461 C.3     1  UNL1        0.0480
      9 C          -6.0151  -17.1655   23.2838 C.2     1  UNL1       -0.0420
     10 C          -5.3521  -18.3170   22.5877 C.2     1  UNL1       -0.0240
     11 C          -5.3926  -16.2930   24.3333 C.3     1  UNL1        0.0394
     12 C          -6.1832  -15.1741   24.9439 C.3     1  UNL1        0.0765
     13 N          -7.1828  -15.4643   26.0240 N.3     1  UNL1       -0.2700
     14 C          -8.6477  -15.4924   25.7023 C.3     1  UNL1        0.0897
     15 C          -6.7176  -15.7265   27.4257 C.3     1  UNL1        0.0897
     16 C          -3.9503  -18.7982   22.8188 C.3     1  UNL1        0.0730
     17 C          -2.8453  -18.3554   21.9063 C.ar    1  UNL1        0.0825
     18 C          -2.0194  -19.3748   21.1791 C.ar    1  UNL1        0.1139
     19 N          -0.9143  -18.9320   20.2665 N.ar    1  UNL1       -0.2394
     20 C          -0.6351  -17.4700   20.0811 C.ar    1  UNL1        0.1195
     21 C          -1.4610  -16.4506   20.8082 C.ar    1  UNL1        0.1191
     22 N          -2.5661  -16.8934   21.7208 N.ar    1  UNL1       -0.2446
@<TRIPOS>BOND
     1     1     2    1
     2     2     3   ar
     3     3     4   ar
     4     4     5   ar
     5     5     6   ar
     6     6     7   ar
     7     6     8    1
     8     8     9    1
     9     9    11    1
    10    11    12    1
    11    12    13    1
    12    13    14    1
    13    13    15    1
    14     9    10    2
    15    10    16    1
    16    16    17    1
    17    17    18   ar
    18    18    19   ar
    19    19    20   ar
    20    20    21   ar
    21    21    22   ar
    22     7     2   ar
    23    22    17   ar
    24    10     5    1
@<TRIPOS>MOLECULE
*****
 22 24 0 0 0
SMALL
GASTEIGER

@<TRIPOS>ATOM
      1 C          -5.6681  -14.7622   26.2981 C.3     1  UNL1        0.0310
      2 C          -5.8625  -15.6970   25.1413 C.ar    1  UNL1       -0.0222
      3 C          -7.2122  -15.8258   24.4997 C.ar    1  UNL1       -0.0043
      4 C          -7.4066  -16.7606   23.3429 C.ar    1  UNL1       -0.0009
      5 C          -6.2513  -17.5666   22.8276 C.ar    1  UNL1       -0.0079
      6 C          -4.9016  -17.4378   23.4691 C.ar    1  UNL1       -0.0187
      7 C          -4.7072  -16.5030   24.6260 C.ar    1  UNL1       -0.0082
      8 C          -3.9568  -18.3540   22.7492 C.3     1  UNL1        0.0480
      9 C          -4.7227  -19.0489   21.6628 C.2     1  UNL1       -0.0420
     10 C          -6.1408  -18.5623   21.7112 C.2     1  UNL1       -0.0240
     11 C          -4.1679  -20.0540   20.6973 C.3     1  UNL1        0.0394
     12 C          -3.5579  -19.5960   19.4058 C.3     1  UNL1        0.0765
     13 N          -2.5311  -18.5026   19.4075 N.3     1  UNL1       -0.2700
     14 C          -2.7709  -17.2473   18.6222 C.3     1  UNL1        0.0897
     15 C          -1.2645  -18.6645   20.1945 C.3     1  UNL1        0.0897
     16 C          -7.2530  -18.9954   20.8027 C.3     1  UNL1        0.0730
     17 C          -8.6778  -18.8946   21.2607 C.ar    1  UNL1        0.0825
     18 C          -9.1779  -19.7870   22.3579 C.ar    1  UNL1        0.1139
     19 N         -10.6027  -19.6862   22.8159 N.ar    1  UNL1       -0.2394
     20 C         -11.5275  -18.6931   22.1768 C.ar    1  UNL1        0.1195
     21 C         -11.0274  -17.8007   21.0797 C.ar    1  UNL1        0.1191
     22 N          -9.6026  -17.9015   20.6216 N.ar    1  UNL1       -0.2446
@<TRIPOS>BOND
     1     1     2    1
     2     2     3   ar
     3     3     4   ar
     4     4     5   ar
     5     5     6   ar
     6     6     7   ar
     7     6     8    1
     8     8     9    1
     9     9    11    1
    10    11    12    1
    11    12    13    1
    12    13    14    1
    13    13    15    1
    14     9    10    2
    15    10    16    1
    16    16    17    1
    17    17    18   ar
    18    18    19   ar
    19    19    20   ar
    20    20    21   ar
    21    21    22   ar
    22     7     2   ar
    23    22    17   ar
    24    10     5    1
@<TRIPOS>MOLECULE
*****
 22 24 0 0 0
SMALL
GASTEIGER

@<TRIPOS>ATOM
      1 C          -9.2212  -21.8290   17.1824 C.3     1  UNL1        0.0310
      2 C          -8.5063  -21.1551   18.3159 C.ar    1  UNL1       -0.0222
      3 C          -7.1614  -21.6528   18.7560 C.ar    1  UNL1       -0.0043
      4 C          -6.4465  -20.9790   19.8895 C.ar    1  UNL1       -0.0009
      5 C          -7.0764  -19.8075   20.5829 C.ar    1  UNL1       -0.0079
      6 C          -8.4212  -19.3098   20.1428 C.ar    1  UNL1       -0.0187
      7 C          -9.1361  -19.9837   19.0093 C.ar    1  UNL1       -0.0082
      8 C          -8.7902  -18.1427   21.0099 C.3     1  UNL1        0.0480
      9 C          -7.6734  -17.9191   21.9860 C.2     1  UNL1       -0.0420
     10 C          -6.6142  -18.9480   21.7221 C.2     1  UNL1       -0.0240
     11 C          -7.6242  -16.8537   23.0408 C.3     1  UNL1        0.0394
     12 C          -8.5242  -16.9412   24.2376 C.3     1  UNL1        0.0765
     13 N          -9.8133  -17.7033   24.1525 N.3     1  UNL1       -0.2700
     14 C          -9.9160  -19.0732   24.7549 C.3     1  UNL1        0.0897
     15 C         -10.9998  -17.0955   23.4650 C.3     1  UNL1        0.0897
     16 C          -5.3200  -19.0921   22.4666 C.3     1  UNL1        0.0730
     17 C          -4.0738  -18.4475   21.9361 C.ar    1  UNL1        0.0825
     18 C          -3.3158  -19.0916   20.8134 C.ar    1  UNL1        0.1139
     19 N          -2.0696  -18.4470   20.2829 N.ar    1  UNL1       -0.2394
     20 C          -1.5813  -17.1583   20.8752 C.ar    1  UNL1        0.1195
     21 C          -2.3393  -16.5142   21.9979 C.ar    1  UNL1        0.1191
     22 N          -3.5855  -17.1588   22.5284 N.ar    1  UNL1       -0.2446
@<TRIPOS>BOND
     1     1     2    1
     2     2     3   ar
     3     3     4   ar
     4     4     5   ar
     5     5     6   ar
     6     6     7   ar
     7     6     8    1
     8     8     9    1
     9     9    11    1
    10    11    12    1
    11    12    13    1
    12    13    14    1
    13    13    15    1
    14     9    10    2
    15    10    16    1
    16    16    17    1
    17    17    18   ar
    18    18    19   ar
    19    19    20   ar
    20    20    21   ar
    21    21    22   ar
    22     7     2   ar
    23    22    17   ar
    24    10     5    1
@<TRIPOS>MOLECULE
*****
 22 24 0 0 0
SMALL
GASTEIGER

@<TRIPOS>ATOM
      1 C          -6.4970  -14.5749   27.4281 C.3     1  UNL1        0.0310
      2 C          -6.9459  -15.4402   26.2881 C.ar    1  UNL1       -0.0222
      3 C          -8.3788  -15.8736   26.1945 C.ar    1  UNL1       -0.0043
      4 C          -8.8278  -16.7389   25.0545 C.ar    1  UNL1       -0.0009
      5 C          -7.8438  -17.1709   24.0081 C.ar    1  UNL1       -0.0079
      6 C          -6.4108  -16.7375   24.1016 C.ar    1  UNL1       -0.0187
      7 C          -5.9619  -15.8722   25.2417 C.ar    1  UNL1       -0.0082
      8 C          -5.6741  -17.3159   22.9299 C.3     1  UNL1        0.0480
      9 C          -6.6518  -18.1067   22.1123 C.2     1  UNL1       -0.0420
     10 C          -7.9927  -18.0171   22.7786 C.2     1  UNL1       -0.0240
     11 C          -6.3429  -18.8558   20.8498 C.3     1  UNL1        0.0394
     12 C          -5.2976  -19.9316   20.8528 C.3     1  UNL1        0.0765
     13 N          -3.8592  -19.5804   20.6126 N.3     1  UNL1       -0.2700
     14 C          -3.4148  -19.1264   19.2538 C.3     1  UNL1        0.0897
     15 C          -2.8653  -19.6831   21.7313 C.3     1  UNL1        0.0897
     16 C          -9.2601  -18.6607   22.2995 C.3     1  UNL1        0.0730
     17 C         -10.3499  -17.8194   21.7040 C.ar    1  UNL1        0.0825
     18 C         -11.4518  -17.2931   22.5750 C.ar    1  UNL1        0.1139
     19 N         -12.5416  -16.4518   21.9795 N.ar    1  UNL1       -0.2394
     20 C         -12.5295  -16.1369   20.5129 C.ar    1  UNL1        0.1195
     21 C         -11.4275  -16.6633   19.6419 C.ar    1  UNL1        0.1191
     22 N         -10.3377  -17.5046   20.2375 N.ar    1  UNL1       -0.2446
@<TRIPOS>BOND
     1     1     2    1
     2     2     3   ar
     3     3     4   ar
     4     4     5   ar
     5     5     6   ar
     6     6     7   ar
     7     6     8    1
     8     8     9    1
     9     9    11    1
    10    11    12    1
    11    12    13    1
    12    13    14    1
    13    13    15    1
    14     9    10    2
    15    10    16    1
    16    16    17    1
    17    17    18   ar
    18    18    19   ar
    19    19    20   ar
    20    20    21   ar
    21    21    22   ar
    22     7     2   ar
    23    22    17   ar
    24    10     5    1
@<TRIPOS>MOLECULE
*****
 22 24 0 0 0
SMALL
GASTEIGER

@<TRIPOS>ATOM
      1 C           4.7720   -1.4571   26.5897 C.3     1  UNL1        0.0310
      2 C           4.2764   -1.4324   25.1742 C.ar    1  UNL1       -0.0222
      3 C           3.2091   -0.4590   24.7700 C.ar    1  UNL1       -0.0043
      4 C           2.7135   -0.4344   23.3545 C.ar    1  UNL1       -0.0009
      5 C           3.2853   -1.3831   22.3430 C.ar    1  UNL1       -0.0079
      6 C           4.3525   -2.3565   22.7472 C.ar    1  UNL1       -0.0187
      7 C           4.8481   -2.3811   24.1627 C.ar    1  UNL1       -0.0082
      8 C           4.7242   -3.1648   21.5394 C.3     1  UNL1        0.0480
      9 C           3.8866   -2.6909   20.3889 C.2     1  UNL1       -0.0420
     10 C           2.9973   -1.5898   20.8855 C.2     1  UNL1       -0.0240
     11 C           3.9306   -3.2244   18.9876 C.3     1  UNL1        0.0394
     12 C           5.0423   -2.8197   18.0655 C.3     1  UNL1        0.0765
     13 N           5.0590   -1.4432   17.4697 N.3     1  UNL1       -0.2700
     14 C           3.8627   -0.9357   16.7205 C.3     1  UNL1        0.0897
     15 C           6.2719   -0.5742   17.6232 C.3     1  UNL1        0.0897
     16 C           1.9958   -0.8289   20.0682 C.3     1  UNL1        0.0730
     17 C           2.3220    0.5499   19.5757 C.ar    1  UNL1        0.0825
     18 C           1.2474    1.4040   18.9709 C.ar    1  UNL1        0.1139
     19 N           1.5736    2.7828   18.4784 N.ar    1  UNL1       -0.2394
     20 C           2.9743    3.3075   18.5907 C.ar    1  UNL1        0.1195
     21 C           4.0489    2.4534   19.1955 C.ar    1  UNL1        0.1191
     22 N           3.7227    1.0746   19.6880 N.ar    1  UNL1       -0.2446
@<TRIPOS>BOND
     1     1     2    1
     2     2     3   ar
     3     3     4   ar
     4     4     5   ar
     5     5     6   ar
     6     6     7   ar
     7     6     8    1
     8     8     9    1
     9     9    11    1
    10    11    12    1
    11    12    13    1
    12    13    14    1
    13    13    15    1
    14     9    10    2
    15    10    16    1
    16    16    17    1
    17    17    18   ar
    18    18    19   ar
    19    19    20   ar
    20    20    21   ar
    21    21    22   ar
    22     7     2   ar
    23    22    17   ar
    24    10     5    1
@<TRIPOS>MOLECULE
*****
 22 24 0 0 0
SMALL
GASTEIGER

@<TRIPOS>ATOM
      1 C          -7.4798  -14.4599   27.8659 C.3     1  UNL1        0.0310
      2 C          -7.2374  -15.2268   26.5998 C.ar    1  UNL1       -0.0222
      3 C          -8.3946  -15.6366   25.7380 C.ar    1  UNL1       -0.0043
      4 C          -8.1521  -16.4036   24.4718 C.ar    1  UNL1       -0.0009
      5 C          -6.7525  -16.7607   24.0676 C.ar    1  UNL1       -0.0079
      6 C          -5.5953  -16.3509   24.9295 C.ar    1  UNL1       -0.0187
      7 C          -5.8377  -15.5840   26.1956 C.ar    1  UNL1       -0.0082
      8 C          -4.3359  -16.8415   24.2787 C.3     1  UNL1        0.0480
      9 C          -4.7149  -17.5545   23.0146 C.2     1  UNL1       -0.0420
     10 C          -6.2084  -17.5046   22.8842 C.2     1  UNL1       -0.0240
     11 C          -3.7668  -18.2035   22.0502 C.3     1  UNL1        0.0394
     12 C          -2.5100  -17.4938   21.6416 C.3     1  UNL1        0.0765
     13 N          -1.8663  -17.8075   20.3236 N.3     1  UNL1       -0.2700
     14 C          -2.6783  -18.4138   19.2177 C.3     1  UNL1        0.0897
     15 C          -0.4105  -17.5148   20.1115 C.3     1  UNL1        0.0897
     16 C          -7.0160  -18.0949   21.7665 C.3     1  UNL1        0.0730
     17 C          -8.3796  -18.6561   22.0416 C.ar    1  UNL1        0.0825
     18 C          -9.5699  -18.1363   21.2913 C.ar    1  UNL1        0.1139
     19 N         -10.9335  -18.6975   21.5665 N.ar    1  UNL1       -0.2394
     20 C         -11.1068  -19.7785   22.5919 C.ar    1  UNL1        0.1195
     21 C          -9.9164  -20.2982   23.3422 C.ar    1  UNL1        0.1191
     22 N          -8.5529  -19.7370   23.0670 N.ar    1  UNL1       -0.2446
@<TRIPOS>BOND
     1     1     2    1
     2     2     3   ar
     3     3     4   ar
     4     4     5   ar
     5     5     6   ar
     6     6     7   ar
     7     6     8    1
     8     8     9    1
     9     9    11    1
    10    11    12    1
    11    12    13    1
    12    13    14    1
    13    13    15    1
    14     9    10    2
    15    10    16    1
    16    16    17    1
    17    17    18   ar
    18    18    19   ar
    19    19    20   ar
    20    20    21   ar
    21    21    22   ar
    22     7     2   ar
    23    22    17   ar
    24    10     5    1
