@<TRIPOS>MOLECULE
*****
 33 37 0 0 0
SMALL
GASTEIGER

@<TRIPOS>ATOM
      1 N           7.3842   -4.4726   26.5834 N.ar    1  UNL1       -0.3142
      2 C           7.2088   -4.1077   28.0277 C.ar    1  UNL1        0.1201
      3 N           6.4873   -2.7941   28.0895 N.ar    1  UNL1       -0.2294
      4 C           6.2169   -2.3471   26.6834 C.ar    1  UNL1        0.1174
      5 C           5.5375   -1.1295   26.1304 C.ar    1  UNL1        0.1193
      6 N           5.4124   -0.9494   24.6466 N.ar    1  UNL1       -0.2422
      7 C           5.9668   -1.9868   23.7157 C.ar    1  UNL1        0.0830
      8 C           5.8417   -1.8066   22.2318 C.ar    1  UNL1        0.0223
      9 C           6.3961   -2.8440   21.3010 C.ar    1  UNL1        0.0394
     10 C           7.0755   -4.0616   21.8541 C.ar    1  UNL1        0.1389
     11 C           7.2005   -4.2418   23.3379 C.ar    1  UNL1        0.0399
     12 C           6.6462   -3.2044   24.2687 C.ar    1  UNL1        0.0380
     13 C           6.7712   -3.3845   25.7526 C.ar    1  UNL1        0.0817
     14 C           6.2710   -2.6638   19.8171 C.ar    1  UNL1        0.0526
     15 C           7.3632   -2.2255   18.8870 C.ar    1  UNL1        0.1007
     16 C           8.7721   -1.8903   19.2775 C.3     1  UNL1        0.0557
     17 N           6.7990   -2.1811   17.4979 N.ar    1  UNL1       -0.0817
     18 O           5.3581   -2.5921   17.5694 O.2     1  UNL1       -0.3581
     19 C           5.0318   -2.8904   19.0028 C.ar    1  UNL1        0.1545
     20 C           3.7002   -3.3369   19.5294 C.3     1  UNL1        0.0754
     21 C           7.6732   -4.9147   29.2038 C.3     1  UNL1        0.0619
     22 C           9.0715   -5.4567   29.2362 C.3     1  UNL1        0.0396
     23 C           9.5360   -6.2637   30.4122 C.3     1  UNL1        0.1426
     24 O           8.6022   -6.5287   31.5558 O.3     1  UNL1       -0.3538
     25 C           7.2039   -5.9868   31.5233 C.3     1  UNL1        0.1426
     26 C           6.7394   -5.1798   30.3473 C.3     1  UNL1        0.0396
     27 C           8.0550   -5.7086   26.0615 C.3     1  UNL1        0.1162
     28 C           9.4890   -5.6563   25.6250 C.3     1  UNL1        0.0272
     29 C           7.2916   -6.9971   25.9762 C.3     1  UNL1        0.1647
     30 C           8.2956   -8.8675   27.4739 C.3     1  UNL1        0.1742
     31 O           8.0116   -8.3059   26.1124 O.3     1  UNL1       -0.3491
     32 O           7.6298   -5.0990   20.9232 O.3     1  UNL1       -0.4714
     33 C           9.1122   -5.3092   20.8316 C.3     1  UNL1        0.2525
@<TRIPOS>BOND
     1    30    31    1
     2    31    29    1
     3    29    27    1
     4    27    28    1
     5    27     1    1
     6     1     2   ar
     7     2    21    1
     8    21    22    1
     9    22    23    1
    10    23    24    1
    11    24    25    1
    12    25    26    1
    13     2     3   ar
    14     3     4   ar
    15     4     5   ar
    16     5     6   ar
    17     6     7   ar
    18     7     8   ar
    19     8     9   ar
    20     9    14    1
    21    14    15   ar
    22    15    16    1
    23    15    17   ar
    24    17    18   ar
    25    18    19   ar
    26    19    20    1
    27     9    10   ar
    28    10    32    1
    29    32    33    1
    30    10    11   ar
    31    11    12   ar
    32    12    13   ar
    33    13     1   ar
    34    26    21    1
    35    13     4   ar
    36    12     7   ar
    37    19    14   ar
@<TRIPOS>MOLECULE
*****
 33 37 0 0 0
SMALL
GASTEIGER

@<TRIPOS>ATOM
      1 N           3.7673   -0.5534   22.0433 N.ar    1  UNL1       -0.3142
      2 C           3.6383   -0.4751   20.5510 C.ar    1  UNL1        0.1201
      3 N           2.4174    0.3365   20.2333 N.ar    1  UNL1       -0.2294
      4 C           1.7920    0.7597   21.5294 C.ar    1  UNL1        0.1174
      5 C           0.5706    1.5748   21.8354 C.ar    1  UNL1        0.1193
      6 N           0.1834    1.8399   23.2601 N.ar    1  UNL1       -0.2422
      7 C           1.0178    1.2899   24.3788 C.ar    1  UNL1        0.0830
      8 C           0.6306    1.5550   25.8036 C.ar    1  UNL1        0.0223
      9 C           1.4649    1.0050   26.9222 C.ar    1  UNL1        0.0394
     10 C           2.6864    0.1899   26.6161 C.ar    1  UNL1        0.1389
     11 C           3.0735   -0.0752   25.1914 C.ar    1  UNL1        0.0399
     12 C           2.2392    0.4748   24.0728 C.ar    1  UNL1        0.0380
     13 C           2.6263    0.2097   22.6481 C.ar    1  UNL1        0.0817
     14 C           1.0778    1.2701   28.3469 C.ar    1  UNL1        0.0526
     15 C           1.7489    2.2361   29.2778 C.ar    1  UNL1        0.1007
     16 C           2.9249    3.1066   28.9474 C.3     1  UNL1        0.0557
     17 N           1.0375    2.1788   30.5971 N.ar    1  UNL1       -0.0817
     18 O          -0.0733    1.1773   30.4816 O.2     1  UNL1       -0.3581
     19 C          -0.0484    0.6157   29.0909 C.ar    1  UNL1        0.1545
     20 C          -0.9851   -0.4186   28.5408 C.3     1  UNL1        0.0754
     21 C           4.5670   -1.0987   19.5517 C.3     1  UNL1        0.0619
     22 C           5.5946   -0.2567   18.8554 C.3     1  UNL1        0.0396
     23 C           6.5233   -0.8803   17.8561 C.3     1  UNL1        0.1426
     24 O           6.4244   -2.3461   17.5532 O.3     1  UNL1       -0.3538
     25 C           5.3968   -3.1881   18.2495 C.3     1  UNL1        0.1426
     26 C           4.4681   -2.5645   19.2488 C.3     1  UNL1        0.0396
     27 C           4.8478   -1.2692   22.7985 C.3     1  UNL1        0.1162
     28 C           4.6342   -2.6820   23.2548 C.3     1  UNL1        0.0272
     29 C           6.1420   -0.5721   23.0974 C.3     1  UNL1        0.1647
     30 C           7.6682   -1.8965   21.4645 C.3     1  UNL1        0.1742
     31 O           7.2573   -0.5988   22.0947 O.3     1  UNL1       -0.3491
     32 O           3.5207   -0.3602   27.7348 O.3     1  UNL1       -0.4714
     33 C           4.3467   -1.5933   27.5181 C.3     1  UNL1        0.2525
@<TRIPOS>BOND
     1    30    31    1
     2    31    29    1
     3    29    27    1
     4    27    28    1
     5    27     1    1
     6     1     2   ar
     7     2    21    1
     8    21    22    1
     9    22    23    1
    10    23    24    1
    11    24    25    1
    12    25    26    1
    13     2     3   ar
    14     3     4   ar
    15     4     5   ar
    16     5     6   ar
    17     6     7   ar
    18     7     8   ar
    19     8     9   ar
    20     9    14    1
    21    14    15   ar
    22    15    16    1
    23    15    17   ar
    24    17    18   ar
    25    18    19   ar
    26    19    20    1
    27     9    10   ar
    28    10    32    1
    29    32    33    1
    30    10    11   ar
    31    11    12   ar
    32    12    13   ar
    33    13     1   ar
    34    26    21    1
    35    13     4   ar
    36    12     7   ar
    37    19    14   ar
@<TRIPOS>MOLECULE
*****
 33 37 0 0 0
SMALL
GASTEIGER

@<TRIPOS>ATOM
      1 N           2.3879    0.8017   25.4492 N.ar    1  UNL1       -0.3142
      2 C           1.2652    1.5202   26.1372 C.ar    1  UNL1        0.1201
      3 N           0.2613    1.9167   25.0956 N.ar    1  UNL1       -0.2294
      4 C           0.7636    1.4432   23.7638 C.ar    1  UNL1        0.1174
      5 C           0.1939    1.5506   22.3804 C.ar    1  UNL1        0.1193
      6 N           0.9386    0.9688   21.2155 N.ar    1  UNL1       -0.2422
      7 C           2.2529    0.2797   21.4341 C.ar    1  UNL1        0.0830
      8 C           2.9976   -0.3022   20.2691 C.ar    1  UNL1        0.0223
      9 C           4.3118   -0.9913   20.4877 C.ar    1  UNL1        0.0394
     10 C           4.8815   -1.0986   21.8712 C.ar    1  UNL1        0.1389
     11 C           4.1368   -0.5168   23.0361 C.ar    1  UNL1        0.0399
     12 C           2.8225    0.1723   22.8175 C.ar    1  UNL1        0.0380
     13 C           2.0779    0.7541   23.9824 C.ar    1  UNL1        0.0817
     14 C           5.0565   -1.5731   19.3228 C.ar    1  UNL1        0.0526
     15 C           6.1827   -0.9174   18.5800 C.ar    1  UNL1        0.1007
     16 C           6.7620    0.4351   18.8716 C.3     1  UNL1        0.0557
     17 N           6.6280   -1.8518   17.4943 N.ar    1  UNL1       -0.0817
     18 O           5.7769   -3.0849   17.5662 O.2     1  UNL1       -0.3581
     19 C           4.8057   -2.9126   18.6963 C.ar    1  UNL1        0.1545
     20 C           3.7662   -3.9056   19.1245 C.3     1  UNL1        0.0754
     21 C           1.1641    1.7942   27.6085 C.3     1  UNL1        0.0619
     22 C           2.0535    2.8221   28.2429 C.3     1  UNL1        0.0396
     23 C           1.9524    3.0960   29.7142 C.3     1  UNL1        0.1426
     24 O           0.9620    2.3421   30.5512 O.3     1  UNL1       -0.3538
     25 C           0.0727    1.3141   29.9168 C.3     1  UNL1        0.1426
     26 C           0.1737    1.0402   28.4455 C.3     1  UNL1        0.0396
     27 C           3.6066    0.2310   26.1117 C.3     1  UNL1        0.1162
     28 C           4.8734    1.0320   26.1696 C.3     1  UNL1        0.0272
     29 C           3.5585   -1.1410   26.7165 C.3     1  UNL1        0.1647
     30 C           3.4447   -0.6301   29.2612 C.3     1  UNL1        0.1742
     31 O           2.9151   -1.3482   28.0555 O.3     1  UNL1       -0.3491
     32 O           6.1958   -1.7877   22.0898 O.3     1  UNL1       -0.4714
     33 C           6.2296   -3.2492   22.4255 C.3     1  UNL1        0.2525
@<TRIPOS>BOND
     1    30    31    1
     2    31    29    1
     3    29    27    1
     4    27    28    1
     5    27     1    1
     6     1     2   ar
     7     2    21    1
     8    21    22    1
     9    22    23    1
    10    23    24    1
    11    24    25    1
    12    25    26    1
    13     2     3   ar
    14     3     4   ar
    15     4     5   ar
    16     5     6   ar
    17     6     7   ar
    18     7     8   ar
    19     8     9   ar
    20     9    14    1
    21    14    15   ar
    22    15    16    1
    23    15    17   ar
    24    17    18   ar
    25    18    19   ar
    26    19    20    1
    27     9    10   ar
    28    10    32    1
    29    32    33    1
    30    10    11   ar
    31    11    12   ar
    32    12    13   ar
    33    13     1   ar
    34    26    21    1
    35    13     4   ar
    36    12     7   ar
    37    19    14   ar
@<TRIPOS>MOLECULE
*****
 33 37 0 0 0
SMALL
GASTEIGER

@<TRIPOS>ATOM
      1 N           7.6498   -3.7525   26.4646 N.ar    1  UNL1       -0.3142
      2 C           8.1667   -4.6749   27.5285 C.ar    1  UNL1        0.1201
      3 N           8.7024   -5.9040   26.8561 N.ar    1  UNL1       -0.2294
      4 C           8.5166   -5.7413   25.3765 C.ar    1  UNL1        0.1174
      5 C           8.8557   -6.6321   24.2184 C.ar    1  UNL1        0.1193
      6 N           8.5443   -6.1932   22.8183 N.ar    1  UNL1       -0.2422
      7 C           7.8938   -4.8635   22.5763 C.ar    1  UNL1        0.0830
      8 C           7.5824   -4.4246   21.1761 C.ar    1  UNL1        0.0223
      9 C           6.9318   -3.0949   20.9341 C.ar    1  UNL1        0.0394
     10 C           6.5927   -2.2040   22.0924 C.ar    1  UNL1        0.1389
     11 C           6.9041   -2.6429   23.4925 C.ar    1  UNL1        0.0399
     12 C           7.5546   -3.9726   23.7345 C.ar    1  UNL1        0.0380
     13 C           7.8660   -4.4115   25.1346 C.ar    1  UNL1        0.0817
     14 C           6.6204   -2.6560   19.5340 C.ar    1  UNL1        0.0526
     15 C           7.4053   -1.6661   18.7252 C.ar    1  UNL1        0.1007
     16 C           8.6393   -0.9414   19.1745 C.3     1  UNL1        0.0557
     17 N           6.7394   -1.5282   17.3882 N.ar    1  UNL1       -0.0817
     18 O           5.5430   -2.4329   17.3707 O.2     1  UNL1       -0.3581
     19 C           5.4695   -3.1298   18.6969 C.ar    1  UNL1        0.1545
     20 C           4.4279   -4.1258   19.1130 C.3     1  UNL1        0.0754
     21 C           8.1507   -4.4139   29.0056 C.3     1  UNL1        0.0619
     22 C           9.2911   -3.6836   29.6506 C.3     1  UNL1        0.0396
     23 C           9.2751   -3.4227   31.1276 C.3     1  UNL1        0.1426
     24 O           8.1186   -3.8920   31.9596 O.3     1  UNL1       -0.3538
     25 C           6.9782   -4.6223   31.3147 C.3     1  UNL1        0.1426
     26 C           6.9942   -4.8833   29.8376 C.3     1  UNL1        0.0396
     27 C           7.0262   -2.4071   26.6908 C.3     1  UNL1        0.1162
     28 C           7.8477   -1.1627   26.5287 C.3     1  UNL1        0.0272
     29 C           5.5808   -2.3062   27.0793 C.3     1  UNL1        0.1647
     30 C           3.9360   -1.2716   25.3548 C.3     1  UNL1        0.1742
     31 O           4.7558   -1.1469   26.6047 O.3     1  UNL1       -0.3491
     32 O           5.9422   -0.8742   21.8504 O.3     1  UNL1       -0.4714
     33 C           4.4526   -0.7845   21.6989 C.3     1  UNL1        0.2525
@<TRIPOS>BOND
     1    30    31    1
     2    31    29    1
     3    29    27    1
     4    27    28    1
     5    27     1    1
     6     1     2   ar
     7     2    21    1
     8    21    22    1
     9    22    23    1
    10    23    24    1
    11    24    25    1
    12    25    26    1
    13     2     3   ar
    14     3     4   ar
    15     4     5   ar
    16     5     6   ar
    17     6     7   ar
    18     7     8   ar
    19     8     9   ar
    20     9    14    1
    21    14    15   ar
    22    15    16    1
    23    15    17   ar
    24    17    18   ar
    25    18    19   ar
    26    19    20    1
    27     9    10   ar
    28    10    32    1
    29    32    33    1
    30    10    11   ar
    31    11    12   ar
    32    12    13   ar
    33    13     1   ar
    34    26    21    1
    35    13     4   ar
    36    12     7   ar
    37    19    14   ar
@<TRIPOS>MOLECULE
*****
 33 37 0 0 0
SMALL
GASTEIGER

@<TRIPOS>ATOM
      1 N           4.2824    1.4997   34.7841 N.ar    1  UNL1       -0.3142
      2 C           4.9947    0.7986   35.9026 C.ar    1  UNL1        0.1201
      3 N           5.1256   -0.6493   35.5332 N.ar    1  UNL1       -0.2294
      4 C           4.4941   -0.8430   34.1864 C.ar    1  UNL1        0.1174
      5 C           4.3264   -2.0572   33.3219 C.ar    1  UNL1        0.1193
      6 N           3.6375   -1.9433   31.9943 N.ar    1  UNL1       -0.2422
      7 C           3.1163   -0.6151   31.5314 C.ar    1  UNL1        0.0830
      8 C           2.4274   -0.5011   30.2038 C.ar    1  UNL1        0.0223
      9 C           1.9062    0.8271   29.7408 C.ar    1  UNL1        0.0394
     10 C           2.0740    2.0413   30.6055 C.ar    1  UNL1        0.1389
     11 C           2.7629    1.9273   31.9330 C.ar    1  UNL1        0.0399
     12 C           3.2841    0.5991   32.3959 C.ar    1  UNL1        0.0380
     13 C           3.9730    0.4851   33.7235 C.ar    1  UNL1        0.0817
     14 C           1.2173    0.9410   28.4133 C.ar    1  UNL1        0.0526
     15 C           1.8565    1.3547   27.1209 C.ar    1  UNL1        0.1007
     16 C           3.2969    1.7269   26.9290 C.3     1  UNL1        0.0557
     17 N           0.8025    1.3307   26.0539 N.ar    1  UNL1       -0.0817
     18 O          -0.4882    0.9022   26.6869 O.2     1  UNL1       -0.3581
     19 C          -0.2318    0.6614   28.1451 C.ar    1  UNL1        0.1545
     20 C          -1.2464    0.2188   29.1573 C.3     1  UNL1        0.0754
     21 C           5.4893    1.4338   37.1682 C.3     1  UNL1        0.0619
     22 C           4.5140    1.8534   38.2277 C.3     1  UNL1        0.0396
     23 C           5.0086    2.4886   39.4934 C.3     1  UNL1        0.1426
     24 O           6.4786    2.7043   39.6995 O.3     1  UNL1       -0.3538
     25 C           7.4539    2.2847   38.6400 C.3     1  UNL1        0.1426
     26 C           6.9593    1.6495   37.3744 C.3     1  UNL1        0.0396
     27 C           3.9396    2.9592   34.7349 C.3     1  UNL1        0.1162
     28 C           4.9868    3.9632   34.3541 C.3     1  UNL1        0.0272
     29 C           2.5493    3.4147   35.0665 C.3     1  UNL1        0.1647
     30 C           1.5146    4.0246   37.3702 C.3     1  UNL1        0.1742
     31 O           1.9093    2.9926   36.3557 O.3     1  UNL1       -0.3491
     32 O           1.5529    3.3695   30.1425 O.3     1  UNL1       -0.4714
     33 C           0.7600    4.2319   31.0792 C.3     1  UNL1        0.2525
@<TRIPOS>BOND
     1    30    31    1
     2    31    29    1
     3    29    27    1
     4    27    28    1
     5    27     1    1
     6     1     2   ar
     7     2    21    1
     8    21    22    1
     9    22    23    1
    10    23    24    1
    11    24    25    1
    12    25    26    1
    13     2     3   ar
    14     3     4   ar
    15     4     5   ar
    16     5     6   ar
    17     6     7   ar
    18     7     8   ar
    19     8     9   ar
    20     9    14    1
    21    14    15   ar
    22    15    16    1
    23    15    17   ar
    24    17    18   ar
    25    18    19   ar
    26    19    20    1
    27     9    10   ar
    28    10    32    1
    29    32    33    1
    30    10    11   ar
    31    11    12   ar
    32    12    13   ar
    33    13     1   ar
    34    26    21    1
    35    13     4   ar
    36    12     7   ar
    37    19    14   ar
@<TRIPOS>MOLECULE
*****
 33 37 0 0 0
SMALL
GASTEIGER

@<TRIPOS>ATOM
      1 N           7.3769   -3.4940   26.8006 N.ar    1  UNL1       -0.3142
      2 C           7.7868   -4.3767   27.9420 C.ar    1  UNL1        0.1201
      3 N           8.2149   -5.6980   27.3755 N.ar    1  UNL1       -0.2294
      4 C           8.0695   -5.6319   25.8840 C.ar    1  UNL1        0.1174
      5 C           8.3418   -6.6361   24.8036 C.ar    1  UNL1        0.1193
      6 N           8.0961   -6.2781   23.3678 N.ar    1  UNL1       -0.2422
      7 C           7.5782   -4.9159   23.0125 C.ar    1  UNL1        0.0830
      8 C           7.3326   -4.5580   21.5767 C.ar    1  UNL1        0.0223
      9 C           6.8147   -3.1958   21.2214 C.ar    1  UNL1        0.0394
     10 C           6.5424   -2.1916   22.3019 C.ar    1  UNL1        0.1389
     11 C           6.7880   -2.5496   23.7377 C.ar    1  UNL1        0.0399
     12 C           7.3059   -3.9117   24.0930 C.ar    1  UNL1        0.0380
     13 C           7.5516   -4.2697   25.5287 C.ar    1  UNL1        0.0817
     14 C           6.5690   -2.8378   19.7856 C.ar    1  UNL1        0.0526
     15 C           5.2796   -3.0168   19.0404 C.ar    1  UNL1        0.1007
     16 C           4.0094   -3.5853   19.6002 C.3     1  UNL1        0.0557
     17 N           5.4833   -2.5276   17.6372 N.ar    1  UNL1       -0.0817
     18 O           6.8988   -2.0462   17.5151 O.2     1  UNL1       -0.3581
     19 C           7.5697   -2.2379   18.8429 C.ar    1  UNL1        0.1545
     20 C           8.9917   -1.8906   19.1704 C.3     1  UNL1        0.0754
     21 C           7.7715   -4.0036   29.3948 C.3     1  UNL1        0.0619
     22 C           6.7591   -4.6171   30.3160 C.3     1  UNL1        0.0396
     23 C           6.7437   -4.2440   31.7688 C.3     1  UNL1        0.1426
     24 O           7.7407   -3.2574   32.3004 O.3     1  UNL1       -0.3538
     25 C           8.7530   -2.6439   31.3792 C.3     1  UNL1        0.1426
     26 C           8.7684   -3.0170   29.9264 C.3     1  UNL1        0.0396
     27 C           6.8796   -2.0832   26.9116 C.3     1  UNL1        0.1162
     28 C           5.4138   -1.8161   27.0851 C.3     1  UNL1        0.0272
     29 C           7.8481   -0.9394   26.8491 C.3     1  UNL1        0.1647
     30 C           9.1355    0.5052   28.5828 C.3     1  UNL1        0.1742
     31 O           7.8475    0.1036   27.9272 O.3     1  UNL1       -0.3491
     32 O           6.0244   -0.8294   21.9466 O.3     1  UNL1       -0.4714
     33 C           6.9762    0.3212   21.8041 C.3     1  UNL1        0.2525
@<TRIPOS>BOND
     1    30    31    1
     2    31    29    1
     3    29    27    1
     4    27    28    1
     5    27     1    1
     6     1     2   ar
     7     2    21    1
     8    21    22    1
     9    22    23    1
    10    23    24    1
    11    24    25    1
    12    25    26    1
    13     2     3   ar
    14     3     4   ar
    15     4     5   ar
    16     5     6   ar
    17     6     7   ar
    18     7     8   ar
    19     8     9   ar
    20     9    14    1
    21    14    15   ar
    22    15    16    1
    23    15    17   ar
    24    17    18   ar
    25    18    19   ar
    26    19    20    1
    27     9    10   ar
    28    10    32    1
    29    32    33    1
    30    10    11   ar
    31    11    12   ar
    32    12    13   ar
    33    13     1   ar
    34    26    21    1
    35    13     4   ar
    36    12     7   ar
    37    19    14   ar
@<TRIPOS>MOLECULE
*****
 33 37 0 0 0
SMALL
GASTEIGER

@<TRIPOS>ATOM
      1 N           4.1623    1.5449   34.9001 N.ar    1  UNL1       -0.3142
      2 C           4.9166    0.8523   35.9961 C.ar    1  UNL1        0.1201
      3 N           5.1311   -0.5733   35.5819 N.ar    1  UNL1       -0.2294
      4 C           4.5094   -0.7617   34.2298 C.ar    1  UNL1        0.1174
      5 C           4.4112   -1.9563   33.3279 C.ar    1  UNL1        0.1193
      6 N           3.7142   -1.8416   32.0047 N.ar    1  UNL1       -0.2422
      7 C           3.1154   -0.5324   31.5834 C.ar    1  UNL1        0.0830
      8 C           2.4184   -0.4178   30.2601 C.ar    1  UNL1        0.0223
      9 C           1.8196    0.8913   29.8387 C.ar    1  UNL1        0.0394
     10 C           1.9178    2.0859   30.7407 C.ar    1  UNL1        0.1389
     11 C           2.6148    1.9712   32.0639 C.ar    1  UNL1        0.0399
     12 C           3.2136    0.6621   32.4853 C.ar    1  UNL1        0.0380
     13 C           3.9106    0.5474   33.8085 C.ar    1  UNL1        0.0817
     14 C           1.1225    1.0060   28.5155 C.ar    1  UNL1        0.0526
     15 C          -0.3201    0.6933   28.2488 C.ar    1  UNL1        0.1007
     16 C          -1.3190    0.2110   29.2586 C.3     1  UNL1        0.0557
     17 N          -0.5885    0.9475   26.7951 N.ar    1  UNL1       -0.0817
     18 O           0.6883    1.4173   26.1633 O.2     1  UNL1       -0.3581
     19 C           1.7458    1.4535   27.2266 C.ar    1  UNL1        0.1545
     20 C           3.1754    1.8649   27.0346 C.3     1  UNL1        0.0754
     21 C           5.3757    1.4758   37.2809 C.3     1  UNL1        0.0619
     22 C           4.3722    1.8716   38.3231 C.3     1  UNL1        0.0396
     23 C           4.8314    2.4950   39.6078 C.3     1  UNL1        0.1426
     24 O           6.2940    2.7227   39.8503 O.3     1  UNL1       -0.3538
     25 C           7.2975    2.3269   38.8080 C.3     1  UNL1        0.1426
     26 C           6.8383    1.7034   37.5233 C.3     1  UNL1        0.0396
     27 C           3.7346    2.9827   34.8964 C.3     1  UNL1        0.1162
     28 C           2.4113    3.3731   35.4847 C.3     1  UNL1        0.0272
     29 C           4.6305    4.0301   34.3042 C.3     1  UNL1        0.1647
     30 C           5.7630    3.9152   31.9689 C.3     1  UNL1        0.1742
     31 O           5.7882    3.6257   33.4404 O.3     1  UNL1       -0.3491
     32 O           1.3190    3.3950   30.3194 O.3     1  UNL1       -0.4714
     33 C           2.1806    4.4421   29.6781 C.3     1  UNL1        0.2525
@<TRIPOS>BOND
     1    30    31    1
     2    31    29    1
     3    29    27    1
     4    27    28    1
     5    27     1    1
     6     1     2   ar
     7     2    21    1
     8    21    22    1
     9    22    23    1
    10    23    24    1
    11    24    25    1
    12    25    26    1
    13     2     3   ar
    14     3     4   ar
    15     4     5   ar
    16     5     6   ar
    17     6     7   ar
    18     7     8   ar
    19     8     9   ar
    20     9    14    1
    21    14    15   ar
    22    15    16    1
    23    15    17   ar
    24    17    18   ar
    25    18    19   ar
    26    19    20    1
    27     9    10   ar
    28    10    32    1
    29    32    33    1
    30    10    11   ar
    31    11    12   ar
    32    12    13   ar
    33    13     1   ar
    34    26    21    1
    35    13     4   ar
    36    12     7   ar
    37    19    14   ar
@<TRIPOS>MOLECULE
*****
 33 37 0 0 0
SMALL
GASTEIGER

@<TRIPOS>ATOM
      1 N           6.4858   -3.0413   26.3485 N.ar    1  UNL1       -0.3142
      2 C           6.5626   -4.1484   25.3392 C.ar    1  UNL1        0.1201
      3 N           6.7872   -5.4343   26.0781 N.ar    1  UNL1       -0.2294
      4 C           6.8492   -5.1220   27.5439 C.ar    1  UNL1        0.1174
      5 C           7.0511   -5.9933   28.7481 C.ar    1  UNL1        0.1193
      6 N           7.0668   -5.3856   30.1194 N.ar    1  UNL1       -0.2422
      7 C           6.8805   -3.9066   30.2864 C.ar    1  UNL1        0.0830
      8 C           6.8962   -3.2989   31.6578 C.ar    1  UNL1        0.0223
      9 C           6.7099   -1.8199   31.8249 C.ar    1  UNL1        0.0394
     10 C           6.5079   -0.9486   30.6206 C.ar    1  UNL1        0.1389
     11 C           6.4922   -1.5564   29.2494 C.ar    1  UNL1        0.0399
     12 C           6.6785   -3.0353   29.0823 C.ar    1  UNL1        0.0380
     13 C           6.6629   -3.6431   27.7110 C.ar    1  UNL1        0.0817
     14 C           6.7255   -1.2122   33.1961 C.ar    1  UNL1        0.0526
     15 C           7.9200   -0.6222   33.8855 C.ar    1  UNL1        0.1007
     16 C           9.3085   -0.5363   33.3245 C.3     1  UNL1        0.0557
     17 N           7.4822   -0.1331   35.2342 N.ar    1  UNL1       -0.0817
     18 O           6.0171   -0.4209   35.3784 O.2     1  UNL1       -0.3581
     19 C           5.5495   -1.0878   34.1189 C.ar    1  UNL1        0.1545
     20 C           4.1513   -1.5493   33.8323 C.3     1  UNL1        0.0754
     21 C           6.4370   -3.9962   23.8523 C.3     1  UNL1        0.0619
     22 C           7.6146   -4.2788   22.9673 C.3     1  UNL1        0.0396
     23 C           7.4889   -4.1267   21.4803 C.3     1  UNL1        0.1426
     24 O           6.1856   -3.6919   20.8784 O.3     1  UNL1       -0.3538
     25 C           5.0080   -3.4093   21.7634 C.3     1  UNL1        0.1426
     26 C           5.1337   -3.5614   23.2503 C.3     1  UNL1        0.0396
     27 C           6.2697   -1.5877   26.0479 C.3     1  UNL1        0.1162
     28 C           7.4402   -0.7059   25.7283 C.3     1  UNL1        0.0272
     29 C           4.8831   -1.0159   26.0670 C.3     1  UNL1        0.1647
     30 C           3.1336   -0.5474   24.2043 C.3     1  UNL1        0.1742
     31 O           4.4005   -0.1803   24.9185 O.3     1  UNL1       -0.3491
     32 O           6.3216    0.5303   30.7877 O.3     1  UNL1       -0.4714
     33 C           4.9395    1.1101   30.8476 C.3     1  UNL1        0.2525
@<TRIPOS>BOND
     1    30    31    1
     2    31    29    1
     3    29    27    1
     4    27    28    1
     5    27     1    1
     6     1     2   ar
     7     2    21    1
     8    21    22    1
     9    22    23    1
    10    23    24    1
    11    24    25    1
    12    25    26    1
    13     2     3   ar
    14     3     4   ar
    15     4     5   ar
    16     5     6   ar
    17     6     7   ar
    18     7     8   ar
    19     8     9   ar
    20     9    14    1
    21    14    15   ar
    22    15    16    1
    23    15    17   ar
    24    17    18   ar
    25    18    19   ar
    26    19    20    1
    27     9    10   ar
    28    10    32    1
    29    32    33    1
    30    10    11   ar
    31    11    12   ar
    32    12    13   ar
    33    13     1   ar
    34    26    21    1
    35    13     4   ar
    36    12     7   ar
    37    19    14   ar
@<TRIPOS>MOLECULE
*****
 33 37 0 0 0
SMALL
GASTEIGER

@<TRIPOS>ATOM
      1 N           2.0141    2.2953   30.6578 N.ar    1  UNL1       -0.3142
      2 C           1.1159    2.8876   29.6126 C.ar    1  UNL1        0.1201
      3 N           0.2945    3.9616   30.2620 N.ar    1  UNL1       -0.2294
      4 C           0.6850    4.0331   31.7085 C.ar    1  UNL1        0.1174
      5 C           0.2102    4.9029   32.8345 C.ar    1  UNL1        0.1193
      6 N           0.7981    4.7428   34.2051 N.ar    1  UNL1       -0.2422
      7 C           1.8609    3.7130   34.4497 C.ar    1  UNL1        0.0830
      8 C           2.4489    3.5529   35.8204 C.ar    1  UNL1        0.0223
      9 C           3.5117    2.5231   36.0651 C.ar    1  UNL1        0.0394
     10 C           3.9865    1.6532   34.9390 C.ar    1  UNL1        0.1389
     11 C           3.3986    1.8133   33.5683 C.ar    1  UNL1        0.0399
     12 C           2.3358    2.8432   33.3237 C.ar    1  UNL1        0.0380
     13 C           1.7478    3.0032   31.9531 C.ar    1  UNL1        0.0817
     14 C           4.0996    2.3630   37.4357 C.ar    1  UNL1        0.0526
     15 C           5.4198    2.9050   37.8976 C.ar    1  UNL1        0.1007
     16 C           6.3838    3.7023   37.0699 C.3     1  UNL1        0.0557
     17 N           5.6068    2.5098   39.3324 N.ar    1  UNL1       -0.0817
     18 O           4.4021    1.7235   39.7573 O.2     1  UNL1       -0.3581
     19 C           3.4707    1.6328   38.5851 C.ar    1  UNL1        0.1545
     20 C           2.1433    0.9344   38.5657 C.3     1  UNL1        0.0754
     21 C           1.0506    2.4778   28.1711 C.3     1  UNL1        0.0619
     22 C          -0.1122    1.6720   27.6724 C.3     1  UNL1        0.0396
     23 C          -0.1775    1.2622   26.2310 C.3     1  UNL1        0.1426
     24 O           0.9199    1.6582   25.2882 O.3     1  UNL1       -0.3538
     25 C           2.0827    2.4640   25.7869 C.3     1  UNL1        0.1426
     26 C           2.1480    2.8738   27.2284 C.3     1  UNL1        0.0396
     27 C           3.0047    1.1892   30.4450 C.3     1  UNL1        0.1162
     28 C           4.4375    1.5135   30.1425 C.3     1  UNL1        0.0272
     29 C           2.5624   -0.2414   30.5348 C.3     1  UNL1        0.1647
     30 C           4.1470   -1.5638   32.1127 C.3     1  UNL1        0.1742
     31 O           2.7857   -1.0176   31.7988 O.3     1  UNL1       -0.3491
     32 O           5.0493    0.6234   35.1836 O.3     1  UNL1       -0.4714
     33 C           6.4262    0.8184   34.6214 C.3     1  UNL1        0.2525
@<TRIPOS>BOND
     1    30    31    1
     2    31    29    1
     3    29    27    1
     4    27    28    1
     5    27     1    1
     6     1     2   ar
     7     2    21    1
     8    21    22    1
     9    22    23    1
    10    23    24    1
    11    24    25    1
    12    25    26    1
    13     2     3   ar
    14     3     4   ar
    15     4     5   ar
    16     5     6   ar
    17     6     7   ar
    18     7     8   ar
    19     8     9   ar
    20     9    14    1
    21    14    15   ar
    22    15    16    1
    23    15    17   ar
    24    17    18   ar
    25    18    19   ar
    26    19    20    1
    27     9    10   ar
    28    10    32    1
    29    32    33    1
    30    10    11   ar
    31    11    12   ar
    32    12    13   ar
    33    13     1   ar
    34    26    21    1
    35    13     4   ar
    36    12     7   ar
    37    19    14   ar
