@<TRIPOS>MOLECULE
*****
 32 34 0 0 0
SMALL
GASTEIGER

@<TRIPOS>ATOM
      1 C          -6.0859  -15.3068   23.8449 C.2     1  UNL1        0.2270
      2 O          -7.0075  -15.2762   22.6618 O.2     1  UNL1       -0.2748
      3 N          -6.6432  -15.4931   25.2250 N.am    1  UNL1       -0.2794
      4 C          -5.8495  -15.5441   26.4968 C.3     1  UNL1        0.0935
      5 C          -6.8078  -15.7436   27.6335 C.3     1  UNL1        0.0233
      6 C          -8.1937  -15.8158   27.0641 C.3     1  UNL1        0.0233
      7 C          -8.0919  -15.6610   25.5756 C.3     1  UNL1        0.0949
      8 C          -4.6071  -15.1511   23.6479 C.3     1  UNL1        0.1010
      9 N          -2.8605  -15.8897   21.8720 N.3     1  UNL1       -0.3215
     10 C          -3.8226  -16.2350   22.9698 C.3     1  UNL1        0.0644
     11 H          -2.8671  -14.8813   21.7188 H       1  UNL1        0.1188
     12 H          -3.1387  -16.3658   21.0139 H       1  UNL1        0.1188
     13 C          -4.0001  -17.6640   23.3896 C.3     1  UNL1        0.0447
     14 C          -4.5529  -18.6671   22.4209 C.ar    1  UNL1        0.0090
     15 C          -6.0366  -18.8439   22.2892 C.ar    1  UNL1        0.0300
     16 C          -6.5893  -19.8469   21.3205 C.ar    1  UNL1        0.1672
     17 F          -8.0731  -20.0237   21.1888 F       1  UNL1       -0.2018
     18 C          -5.6584  -20.6732   20.4835 C.ar    1  UNL1        0.1696
     19 F          -6.2112  -21.6763   19.5148 F       1  UNL1       -0.2017
     20 C          -4.1747  -20.4965   20.6152 C.ar    1  UNL1        0.0612
     21 C          -3.6219  -19.4934   21.5839 C.ar    1  UNL1        0.1386
     22 F          -2.1382  -19.3166   21.7156 F       1  UNL1       -0.2044
     23 C          -9.2377  -15.6721   24.6077 C.3     1  UNL1        0.1091
     24 N          -9.3975  -16.8135   23.6475 N.am    1  UNL1       -0.3027
     25 C         -10.5838  -16.8620   22.7308 C.2     1  UNL1        0.2220
     26 O         -11.6103  -15.7691   22.7742 O.2     1  UNL1       -0.2751
     27 H          -8.7238  -17.5308   23.6191 H       1  UNL1        0.1495
     28 C         -10.7435  -18.0034   21.7707 C.3     1  UNL1        0.0765
     29 C         -11.0935  -19.4167   22.1316 C.3     1  UNL1        0.0091
     30 C         -11.1475  -20.2186   20.8651 C.3     1  UNL1        0.0005
     31 C         -10.8309  -19.3009   19.7215 C.3     1  UNL1        0.0005
     32 C         -10.5812  -17.9319   20.2812 C.3     1  UNL1        0.0091
@<TRIPOS>BOND
     1    10     9    1
     2    10     8    1
     3     8     1    1
     4     1     2    2
     5     1     3   am
     6     3     4    1
     7     4     5    1
     8     5     6    1
     9     6     7    1
    10     7    23    1
    11    23    24    1
    12    24    25   am
    13    25    26    2
    14    25    28    1
    15    28    29    1
    16    29    30    1
    17    30    31    1
    18    31    32    1
    19    10    13    1
    20    13    14    1
    21    14    15   ar
    22    15    16   ar
    23    16    17    1
    24    16    18   ar
    25    18    19    1
    26    18    20   ar
    27    20    21   ar
    28    21    22    1
    29     7     3    1
    30    32    28    1
    31    21    14   ar
    32     9    11    1
    33     9    12    1
    34    24    27    1
@<TRIPOS>MOLECULE
*****
 32 34 0 0 0
SMALL
GASTEIGER

@<TRIPOS>ATOM
      1 C          -8.4566  -16.1799   23.6355 C.2     1  UNL1        0.2270
      2 O          -7.6906  -16.1006   22.3482 O.2     1  UNL1       -0.2748
      3 N          -7.7621  -15.9177   24.9388 N.am    1  UNL1       -0.2794
      4 C          -8.3938  -15.9601   26.2987 C.3     1  UNL1        0.0935
      5 C          -7.3360  -15.6357   27.3115 C.3     1  UNL1        0.0233
      6 C          -6.0505  -15.3928   26.5776 C.3     1  UNL1        0.0233
      7 C          -6.3139  -15.5671   25.1112 C.3     1  UNL1        0.0949
      8 C          -9.9171  -16.5214   23.6193 C.3     1  UNL1        0.1010
      9 N         -10.7107  -18.5775   24.9951 N.3     1  UNL1       -0.3215
     10 C         -10.3527  -17.9556   23.6779 C.3     1  UNL1        0.0644
     11 H         -10.6018  -17.8870   25.7379 H       1  UNL1        0.1188
     12 H         -10.0949  -19.3705   25.1752 H       1  UNL1        0.1188
     13 C         -10.4304  -18.7678   22.4192 C.3     1  UNL1        0.0447
     14 C          -9.1719  -19.2153   21.7365 C.ar    1  UNL1        0.0090
     15 C          -7.9907  -19.6513   22.5517 C.ar    1  UNL1        0.0300
     16 C          -6.7323  -20.0988   21.8690 C.ar    1  UNL1        0.1672
     17 F          -5.5510  -20.5349   22.6842 F       1  UNL1       -0.2018
     18 C          -6.6551  -20.1101   20.3710 C.ar    1  UNL1        0.1696
     19 F          -5.3966  -20.5576   19.6883 F       1  UNL1       -0.2017
     20 C          -7.8362  -19.6740   19.5558 C.ar    1  UNL1        0.0612
     21 C          -9.0946  -19.2266   20.2385 C.ar    1  UNL1        0.1386
     22 F         -10.2759  -18.7905   19.4233 F       1  UNL1       -0.2044
     23 C          -5.3059  -15.4171   24.0105 C.3     1  UNL1        0.1091
     24 N          -4.7637  -16.6328   23.3192 N.am    1  UNL1       -0.3027
     25 C          -3.5761  -16.5121   22.4108 C.2     1  UNL1        0.2220
     26 O          -2.9308  -15.1754   22.1937 O.2     1  UNL1       -0.2751
     27 H          -5.1872  -17.5101   23.4617 H       1  UNL1        0.1495
     28 C          -3.0339  -17.7279   21.7195 C.3     1  UNL1        0.0765
     29 C          -2.4218  -17.7643   20.3506 C.3     1  UNL1        0.0091
     30 C          -2.0183  -19.1796   20.0608 C.3     1  UNL1        0.0005
     31 C          -2.3810  -20.0179   21.2507 C.3     1  UNL1        0.0005
     32 C          -3.0087  -19.1207   22.2758 C.3     1  UNL1        0.0091
@<TRIPOS>BOND
     1    10     9    1
     2    10     8    1
     3     8     1    1
     4     1     2    2
     5     1     3   am
     6     3     4    1
     7     4     5    1
     8     5     6    1
     9     6     7    1
    10     7    23    1
    11    23    24    1
    12    24    25   am
    13    25    26    2
    14    25    28    1
    15    28    29    1
    16    29    30    1
    17    30    31    1
    18    31    32    1
    19    10    13    1
    20    13    14    1
    21    14    15   ar
    22    15    16   ar
    23    16    17    1
    24    16    18   ar
    25    18    19    1
    26    18    20   ar
    27    20    21   ar
    28    21    22    1
    29     7     3    1
    30    32    28    1
    31    21    14   ar
    32     9    11    1
    33     9    12    1
    34    24    27    1
@<TRIPOS>MOLECULE
*****
 32 34 0 0 0
SMALL
GASTEIGER

@<TRIPOS>ATOM
      1 C          -8.1253  -18.1163   20.9722 C.2     1  UNL1        0.2270
      2 O          -7.6968  -16.7088   21.2638 O.2     1  UNL1       -0.2748
      3 N          -9.5183  -18.5608   21.3069 N.am    1  UNL1       -0.2794
      4 C         -10.0868  -19.9294   21.0749 C.3     1  UNL1        0.0935
      5 C         -11.5071  -19.9292   21.5570 C.3     1  UNL1        0.0233
      6 C         -11.8165  -18.5605   22.0870 C.3     1  UNL1        0.0233
      7 C         -10.5873  -17.7148   21.9324 C.3     1  UNL1        0.0949
      8 C          -7.1609  -19.0794   20.3458 C.3     1  UNL1        0.1010
      9 N          -6.8689  -20.4619   22.5262 N.3     1  UNL1       -0.3215
     10 C          -6.3301  -19.9790   21.2122 C.3     1  UNL1        0.0644
     11 H          -7.8056  -20.0842   22.6690 H       1  UNL1        0.1188
     12 H          -6.2575  -20.1488   23.2801 H       1  UNL1        0.1188
     13 C          -4.9604  -20.3957   20.7646 C.3     1  UNL1        0.0447
     14 C          -3.8627  -19.3783   20.6631 C.ar    1  UNL1        0.0090
     15 C          -3.2486  -19.0681   19.3302 C.ar    1  UNL1        0.0300
     16 C          -2.1510  -18.0508   19.2287 C.ar    1  UNL1        0.1672
     17 F          -1.5369  -17.7405   17.8958 F       1  UNL1       -0.2018
     18 C          -1.6675  -17.3438   20.4601 C.ar    1  UNL1        0.1696
     19 F          -0.5698  -16.3265   20.3586 F       1  UNL1       -0.2017
     20 C          -2.2816  -17.6540   21.7930 C.ar    1  UNL1        0.0612
     21 C          -3.3792  -18.6713   21.8945 C.ar    1  UNL1        0.1386
     22 F          -3.9933  -18.9816   23.2274 F       1  UNL1       -0.2044
     23 C         -10.4512  -16.2757   22.3330 C.3     1  UNL1        0.1091
     24 N          -9.3648  -15.8604   23.2804 N.am    1  UNL1       -0.3027
     25 C          -9.1772  -16.5946   24.5749 C.2     1  UNL1        0.2220
     26 O         -10.0761  -17.7443   24.9220 O.2     1  UNL1       -0.2751
     27 H          -8.7749  -15.1058   23.0525 H       1  UNL1        0.1495
     28 C          -8.0909  -16.1792   25.5221 C.3     1  UNL1        0.0765
     29 C          -6.7648  -15.5916   25.1398 C.3     1  UNL1        0.0091
     30 C          -5.9943  -15.3278   26.3994 C.3     1  UNL1        0.0005
     31 C          -6.8442  -15.7523   27.5603 C.3     1  UNL1        0.0005
     32 C          -8.1400  -16.2785   27.0180 C.3     1  UNL1        0.0091
@<TRIPOS>BOND
     1    10     9    1
     2    10     8    1
     3     8     1    1
     4     1     2    2
     5     1     3   am
     6     3     4    1
     7     4     5    1
     8     5     6    1
     9     6     7    1
    10     7    23    1
    11    23    24    1
    12    24    25   am
    13    25    26    2
    14    25    28    1
    15    28    29    1
    16    29    30    1
    17    30    31    1
    18    31    32    1
    19    10    13    1
    20    13    14    1
    21    14    15   ar
    22    15    16   ar
    23    16    17    1
    24    16    18   ar
    25    18    19    1
    26    18    20   ar
    27    20    21   ar
    28    21    22    1
    29     7     3    1
    30    32    28    1
    31    21    14   ar
    32     9    11    1
    33     9    12    1
    34    24    27    1
@<TRIPOS>MOLECULE
*****
 32 34 0 0 0
SMALL
GASTEIGER

@<TRIPOS>ATOM
      1 C          -9.0760  -17.1604   24.6906 C.2     1  UNL1        0.2270
      2 O          -8.8589  -17.1224   23.2069 O.2     1  UNL1       -0.2748
      3 N          -8.0820  -16.5161   25.6108 N.am    1  UNL1       -0.2794
      4 C          -8.1647  -16.4738   27.1079 C.3     1  UNL1        0.0935
      5 C          -6.9646  -15.7325   27.6178 C.3     1  UNL1        0.0233
      6 C          -6.1400  -15.3166   26.4357 C.3     1  UNL1        0.0233
      7 C          -6.8306  -15.8009   25.1953 C.3     1  UNL1        0.0949
      8 C         -10.2870  -17.8428   25.2542 C.3     1  UNL1        0.1010
      9 N          -9.9597  -20.4180   25.3617 N.3     1  UNL1       -0.3215
     10 C         -10.6568  -19.2199   24.7884 C.3     1  UNL1        0.0644
     11 H          -9.2699  -20.1136   26.0486 H       1  UNL1        0.1188
     12 H          -9.4917  -20.9293   24.6134 H       1  UNL1        0.1188
     13 C         -11.7238  -19.3989   23.7494 C.3     1  UNL1        0.0447
     14 C         -11.6828  -18.5919   22.4856 C.ar    1  UNL1        0.0090
     15 C         -10.8271  -19.0389   21.3376 C.ar    1  UNL1        0.0300
     16 C         -10.7863  -18.2319   20.0739 C.ar    1  UNL1        0.1672
     17 F          -9.9305  -18.6790   18.9258 F       1  UNL1       -0.2018
     18 C         -11.6010  -16.9778   19.9581 C.ar    1  UNL1        0.1696
     19 F         -11.5601  -16.1708   18.6943 F       1  UNL1       -0.2017
     20 C         -12.4567  -16.5308   21.1061 C.ar    1  UNL1        0.0612
     21 C         -12.4976  -17.3378   22.3698 C.ar    1  UNL1        0.1386
     22 F         -13.3533  -16.8907   23.5179 F       1  UNL1       -0.2044
     23 C          -6.3536  -15.6044   23.7869 C.3     1  UNL1        0.1091
     24 N          -6.3217  -16.7649   22.8369 N.am    1  UNL1       -0.3027
     25 C          -5.1748  -17.7310   22.8713 C.2     1  UNL1        0.2220
     26 O          -4.0598  -17.5367   23.8557 O.2     1  UNL1       -0.2751
     27 H          -7.0536  -16.8924   22.1909 H       1  UNL1        0.1495
     28 C          -5.1430  -18.8915   21.9214 C.3     1  UNL1        0.0765
     29 C          -3.9802  -19.2991   21.0660 C.3     1  UNL1        0.0091
     30 C          -4.3870  -20.5075   20.2761 C.3     1  UNL1        0.0005
     31 C          -5.8012  -20.8468   20.6432 C.3     1  UNL1        0.0005
     32 C          -6.2685  -19.8480   21.6601 C.3     1  UNL1        0.0091
@<TRIPOS>BOND
     1    10     9    1
     2    10     8    1
     3     8     1    1
     4     1     2    2
     5     1     3   am
     6     3     4    1
     7     4     5    1
     8     5     6    1
     9     6     7    1
    10     7    23    1
    11    23    24    1
    12    24    25   am
    13    25    26    2
    14    25    28    1
    15    28    29    1
    16    29    30    1
    17    30    31    1
    18    31    32    1
    19    10    13    1
    20    13    14    1
    21    14    15   ar
    22    15    16   ar
    23    16    17    1
    24    16    18   ar
    25    18    19    1
    26    18    20   ar
    27    20    21   ar
    28    21    22    1
    29     7     3    1
    30    32    28    1
    31    21    14   ar
    32     9    11    1
    33     9    12    1
    34    24    27    1
@<TRIPOS>MOLECULE
*****
 32 34 0 0 0
SMALL
GASTEIGER

@<TRIPOS>ATOM
      1 C          -4.9917  -19.4502   21.2251 C.2     1  UNL1        0.2270
      2 O          -5.0495  -19.6128   22.7152 O.2     1  UNL1       -0.2748
      3 N          -3.8266  -18.7492   20.5918 N.am    1  UNL1       -0.2794
      4 C          -3.6319  -18.5126   19.1234 C.3     1  UNL1        0.0935
      5 C          -2.3366  -17.7789   18.9398 C.3     1  UNL1        0.0233
      6 C          -1.7307  -17.5619   20.2947 C.3     1  UNL1        0.0233
      7 C          -2.6516  -18.1616   21.3157 C.3     1  UNL1        0.0949
      8 C          -6.0990  -19.9886   20.3684 C.3     1  UNL1        0.1010
      9 N          -8.3778  -19.5848   19.1878 N.3     1  UNL1       -0.3215
     10 C          -7.4032  -19.2530   20.2787 C.3     1  UNL1        0.0644
     11 H          -7.9940  -20.3274   18.6032 H       1  UNL1        0.1188
     12 H          -8.5455  -18.7557   18.6178 H       1  UNL1        0.1188
     13 C          -7.7327  -18.1857   21.2797 C.3     1  UNL1        0.0447
     14 C          -8.9631  -18.3081   22.1291 C.ar    1  UNL1        0.0090
     15 C         -10.0271  -17.2528   22.0645 C.ar    1  UNL1        0.0300
     16 C         -11.2574  -17.3752   22.9138 C.ar    1  UNL1        0.1672
     17 F         -12.3214  -16.3199   22.8492 F       1  UNL1       -0.2018
     18 C         -11.4237  -18.5530   23.8277 C.ar    1  UNL1        0.1696
     19 F         -12.6540  -18.6754   24.6770 F       1  UNL1       -0.2017
     20 C         -10.3597  -19.6083   23.8922 C.ar    1  UNL1        0.0612
     21 C          -9.1294  -19.4859   23.0429 C.ar    1  UNL1        0.1386
     22 F          -8.0654  -20.5412   23.1075 F       1  UNL1       -0.2044
     23 C          -2.4353  -18.1719   22.8000 C.3     1  UNL1        0.1091
     24 N          -3.5421  -17.7538   23.7222 N.am    1  UNL1       -0.3027
     25 C          -4.1535  -16.3904   23.5904 C.2     1  UNL1        0.2220
     26 O          -3.6582  -15.4451   22.5362 O.2     1  UNL1       -0.2751
     27 H          -3.8671  -18.3742   24.4140 H       1  UNL1        0.1495
     28 C          -5.2602  -15.9724   24.5126 C.3     1  UNL1        0.0765
     29 C          -6.6832  -15.7076   24.1189 C.3     1  UNL1        0.0091
     30 C          -7.4406  -15.3174   25.3534 C.3     1  UNL1        0.0005
     31 C          -6.4858  -15.3410   26.5100 C.3     1  UNL1        0.0005
     32 C          -5.1382  -15.7459   25.9903 C.3     1  UNL1        0.0091
@<TRIPOS>BOND
     1    10     9    1
     2    10     8    1
     3     8     1    1
     4     1     2    2
     5     1     3   am
     6     3     4    1
     7     4     5    1
     8     5     6    1
     9     6     7    1
    10     7    23    1
    11    23    24    1
    12    24    25   am
    13    25    26    2
    14    25    28    1
    15    28    29    1
    16    29    30    1
    17    30    31    1
    18    31    32    1
    19    10    13    1
    20    13    14    1
    21    14    15   ar
    22    15    16   ar
    23    16    17    1
    24    16    18   ar
    25    18    19    1
    26    18    20   ar
    27    20    21   ar
    28    21    22    1
    29     7     3    1
    30    32    28    1
    31    21    14   ar
    32     9    11    1
    33     9    12    1
    34    24    27    1
@<TRIPOS>MOLECULE
*****
 32 34 0 0 0
SMALL
GASTEIGER

@<TRIPOS>ATOM
      1 C          -8.4825  -16.0411   23.8435 C.2     1  UNL1        0.2270
      2 O          -7.7984  -16.0104   22.5089 O.2     1  UNL1       -0.2748
      3 N          -7.6972  -15.7816   25.0948 N.am    1  UNL1       -0.2794
      4 C          -8.2414  -15.7790   26.4926 C.3     1  UNL1        0.0935
      5 C          -7.1105  -15.4749   27.4299 C.3     1  UNL1        0.0233
      6 C          -5.8672  -15.2896   26.6113 C.3     1  UNL1        0.0233
      7 C          -6.2299  -15.4792   25.1682 C.3     1  UNL1        0.0949
      8 C          -9.9517  -16.3313   23.9267 C.3     1  UNL1        0.1010
      9 N         -11.4166  -15.7872   21.8511 N.3     1  UNL1       -0.3215
     10 C         -10.6966  -16.7867   22.7068 C.3     1  UNL1        0.0644
     11 H         -11.2950  -14.8535   22.2433 H       1  UNL1        0.1188
     12 H         -12.4100  -16.0171   21.8223 H       1  UNL1        0.1188
     13 C         -10.7213  -18.2416   22.3429 C.3     1  UNL1        0.0447
     14 C          -9.5022  -18.8886   21.7552 C.ar    1  UNL1        0.0090
     15 C          -9.2793  -18.8606   20.2722 C.ar    1  UNL1        0.0300
     16 C          -8.0602  -19.5075   19.6846 C.ar    1  UNL1        0.1672
     17 F          -7.8373  -19.4795   18.2015 F       1  UNL1       -0.2018
     18 C          -7.0640  -20.1825   20.5801 C.ar    1  UNL1        0.1696
     19 F          -5.8449  -20.8295   19.9925 F       1  UNL1       -0.2017
     20 C          -7.2868  -20.2105   22.0632 C.ar    1  UNL1        0.0612
     21 C          -8.5059  -19.5636   22.6507 C.ar    1  UNL1        0.1386
     22 F          -8.7288  -19.5916   24.1339 F       1  UNL1       -0.2044
     23 C          -5.2901  -15.3831   24.0030 C.3     1  UNL1        0.1091
     24 N          -4.7721  -16.6314   23.3522 N.am    1  UNL1       -0.3027
     25 C          -3.5792  -16.5650   22.4453 C.2     1  UNL1        0.2220
     26 O          -2.9042  -15.2501   22.1891 O.2     1  UNL1       -0.2751
     27 H          -5.2151  -17.4944   23.5204 H       1  UNL1        0.1495
     28 C          -3.0613  -17.8133   21.7946 C.3     1  UNL1        0.0765
     29 C          -3.5281  -19.2114   22.0728 C.3     1  UNL1        0.0091
     30 C          -2.7409  -20.1448   21.2016 C.3     1  UNL1        0.0005
     31 C          -1.7876  -19.3236   20.3850 C.3     1  UNL1        0.0005
     32 C          -1.9856  -17.8826   20.7515 C.3     1  UNL1        0.0091
@<TRIPOS>BOND
     1    10     9    1
     2    10     8    1
     3     8     1    1
     4     1     2    2
     5     1     3   am
     6     3     4    1
     7     4     5    1
     8     5     6    1
     9     6     7    1
    10     7    23    1
    11    23    24    1
    12    24    25   am
    13    25    26    2
    14    25    28    1
    15    28    29    1
    16    29    30    1
    17    30    31    1
    18    31    32    1
    19    10    13    1
    20    13    14    1
    21    14    15   ar
    22    15    16   ar
    23    16    17    1
    24    16    18   ar
    25    18    19    1
    26    18    20   ar
    27    20    21   ar
    28    21    22    1
    29     7     3    1
    30    32    28    1
    31    21    14   ar
    32     9    11    1
    33     9    12    1
    34    24    27    1
@<TRIPOS>MOLECULE
*****
 32 34 0 0 0
SMALL
GASTEIGER

@<TRIPOS>ATOM
      1 C          -5.8710  -18.9293   21.4454 C.2     1  UNL1        0.2270
      2 O          -6.4866  -17.6921   22.0290 O.2     1  UNL1       -0.2748
      3 N          -4.3828  -19.1137   21.4784 N.am    1  UNL1       -0.2794
      4 C          -3.6282  -20.2917   20.9371 C.3     1  UNL1        0.0935
      5 C          -2.1669  -20.0586   21.1826 C.3     1  UNL1        0.0233
      6 C          -2.0184  -18.7365   21.8756 C.3     1  UNL1        0.0233
      7 C          -3.3879  -18.1526   22.0583 C.3     1  UNL1        0.0949
      8 C          -6.7437  -19.9819   20.8288 C.3     1  UNL1        0.1010
      9 N          -8.0946  -19.0220   18.8278 N.3     1  UNL1       -0.3215
     10 C          -8.0565  -19.6006   20.2112 C.3     1  UNL1        0.0644
     11 H          -7.1455  -18.9590   18.4594 H       1  UNL1        0.1188
     12 H          -8.5093  -18.0907   18.8601 H       1  UNL1        0.1188
     13 C          -9.3311  -19.7979   20.9770 C.3     1  UNL1        0.0447
     14 C         -10.1088  -18.6089   21.4580 C.ar    1  UNL1        0.0090
     15 C         -11.0343  -17.8895   20.5222 C.ar    1  UNL1        0.0300
     16 C         -11.8119  -16.7005   21.0033 C.ar    1  UNL1        0.1672
     17 F         -12.7376  -15.9810   20.0675 F       1  UNL1       -0.2018
     18 C         -11.6640  -16.2308   22.4202 C.ar    1  UNL1        0.1696
     19 F         -12.4417  -15.0417   22.9013 F       1  UNL1       -0.2017
     20 C         -10.7385  -16.9502   23.3560 C.ar    1  UNL1        0.0612
     21 C          -9.9609  -18.1392   22.8749 C.ar    1  UNL1        0.1386
     22 F          -9.0352  -18.8587   23.8108 F       1  UNL1       -0.2044
     23 C          -3.7066  -16.8383   22.7072 C.3     1  UNL1        0.1091
     24 N          -4.6053  -16.7925   23.9073 N.am    1  UNL1       -0.3027
     25 C          -5.5455  -15.6393   24.0968 C.2     1  UNL1        0.2220
     26 O          -5.5871  -14.5317   23.0861 O.2     1  UNL1       -0.2751
     27 H          -4.5780  -17.5195   24.5707 H       1  UNL1        0.1495
     28 C          -6.4442  -15.5937   25.2970 C.3     1  UNL1        0.0765
     29 C          -7.9440  -15.5950   25.2759 C.3     1  UNL1        0.0091
     30 C          -8.4275  -15.5408   26.6948 C.3     1  UNL1        0.0005
     31 C          -7.2265  -15.5060   27.5928 C.3     1  UNL1        0.0005
     32 C          -6.0007  -15.5387   26.7289 C.3     1  UNL1        0.0091
@<TRIPOS>BOND
     1    10     9    1
     2    10     8    1
     3     8     1    1
     4     1     2    2
     5     1     3   am
     6     3     4    1
     7     4     5    1
     8     5     6    1
     9     6     7    1
    10     7    23    1
    11    23    24    1
    12    24    25   am
    13    25    26    2
    14    25    28    1
    15    28    29    1
    16    29    30    1
    17    30    31    1
    18    31    32    1
    19    10    13    1
    20    13    14    1
    21    14    15   ar
    22    15    16   ar
    23    16    17    1
    24    16    18   ar
    25    18    19    1
    26    18    20   ar
    27    20    21   ar
    28    21    22    1
    29     7     3    1
    30    32    28    1
    31    21    14   ar
    32     9    11    1
    33     9    12    1
    34    24    27    1
@<TRIPOS>MOLECULE
*****
 32 34 0 0 0
SMALL
GASTEIGER

@<TRIPOS>ATOM
      1 C          -8.2491  -15.5952   23.4957 C.2     1  UNL1        0.2270
      2 O          -7.1931  -15.5045   22.4343 O.2     1  UNL1       -0.2748
      3 N          -7.8581  -15.6047   24.9438 N.am    1  UNL1       -0.2794
      4 C          -8.7974  -15.6906   26.1101 C.3     1  UNL1        0.0935
      5 C          -7.9790  -15.6690   27.3670 C.3     1  UNL1        0.0233
      6 C          -6.5339  -15.5697   26.9774 C.3     1  UNL1        0.0233
      7 C          -6.4592  -15.5300   25.4798 C.3     1  UNL1        0.0949
      8 C          -9.6961  -15.6764   23.1090 C.3     1  UNL1        0.1010
      9 N          -9.9909  -15.0134   20.6143 N.3     1  UNL1       -0.3215
     10 C         -10.0779  -16.0399   21.7047 C.3     1  UNL1        0.0644
     11 H          -9.6564  -14.1318   21.0032 H       1  UNL1        0.1188
     12 H         -10.9141  -14.8751   20.2031 H       1  UNL1        0.1188
     13 C         -10.5466  -17.4297   21.3907 C.3     1  UNL1        0.0447
     14 C         -10.1537  -18.5725   22.2794 C.ar    1  UNL1        0.0090
     15 C          -8.8049  -19.2110   22.1278 C.ar    1  UNL1        0.0300
     16 C          -8.4119  -20.3537   23.0165 C.ar    1  UNL1        0.1672
     17 F          -7.0631  -20.9922   22.8650 F       1  UNL1       -0.2018
     18 C          -9.3678  -20.8579   24.0567 C.ar    1  UNL1        0.1696
     19 F          -8.9748  -22.0007   24.9454 F       1  UNL1       -0.2017
     20 C         -10.7166  -20.2194   24.2083 C.ar    1  UNL1        0.0612
     21 C         -11.1095  -19.0767   23.3196 C.ar    1  UNL1        0.1386
     22 F         -12.4584  -18.4381   23.4712 F       1  UNL1       -0.2044
     23 C          -5.2056  -15.4327   24.6619 C.3     1  UNL1        0.1091
     24 N          -4.6660  -16.6486   23.9685 N.am    1  UNL1       -0.3027
     25 C          -3.7281  -16.4959   22.8080 C.2     1  UNL1        0.2220
     26 O          -3.3296  -15.1273   22.3407 O.2     1  UNL1       -0.2751
     27 H          -4.9275  -17.5468   24.2752 H       1  UNL1        0.1495
     28 C          -3.1886  -17.7118   22.1147 C.3     1  UNL1        0.0765
     29 C          -3.6090  -19.1295   22.3663 C.3     1  UNL1        0.0091
     30 C          -2.8142  -20.0173   21.4552 C.3     1  UNL1        0.0005
     31 C          -1.9026  -19.1482   20.6405 C.3     1  UNL1        0.0005
     32 C          -2.1340  -17.7233   21.0481 C.3     1  UNL1        0.0091
@<TRIPOS>BOND
     1    10     9    1
     2    10     8    1
     3     8     1    1
     4     1     2    2
     5     1     3   am
     6     3     4    1
     7     4     5    1
     8     5     6    1
     9     6     7    1
    10     7    23    1
    11    23    24    1
    12    24    25   am
    13    25    26    2
    14    25    28    1
    15    28    29    1
    16    29    30    1
    17    30    31    1
    18    31    32    1
    19    10    13    1
    20    13    14    1
    21    14    15   ar
    22    15    16   ar
    23    16    17    1
    24    16    18   ar
    25    18    19    1
    26    18    20   ar
    27    20    21   ar
    28    21    22    1
    29     7     3    1
    30    32    28    1
    31    21    14   ar
    32     9    11    1
    33     9    12    1
    34    24    27    1
@<TRIPOS>MOLECULE
*****
 32 34 0 0 0
SMALL
GASTEIGER

@<TRIPOS>ATOM
      1 C          -8.8782  -17.3946   24.4638 C.2     1  UNL1        0.2270
      2 O          -8.4236  -17.4794   23.0368 O.2     1  UNL1       -0.2748
      3 N          -8.0755  -16.6136   25.4615 N.am    1  UNL1       -0.2794
      4 C          -8.4032  -16.4402   26.9150 C.3     1  UNL1        0.0935
      5 C          -7.3343  -15.5883   27.5328 C.3     1  UNL1        0.0233
      6 C          -6.3459  -15.2352   26.4611 C.3     1  UNL1        0.0233
      7 C          -6.8040  -15.8689   25.1810 C.3     1  UNL1        0.0949
      8 C         -10.1356  -18.0909   24.8930 C.3     1  UNL1        0.1010
      9 N          -9.9417  -20.6308   25.4042 N.3     1  UNL1       -0.3215
     10 C         -10.3754  -19.5177   24.4970 C.3     1  UNL1        0.0644
     11 H          -9.5054  -20.2389   26.2387 H       1  UNL1        0.1188
     12 H          -9.2709  -21.2248   24.9168 H       1  UNL1        0.1188
     13 C         -11.0488  -19.8314   23.1939 C.3     1  UNL1        0.0447
     14 C         -11.3604  -18.7285   22.2261 C.ar    1  UNL1        0.0090
     15 C         -12.1083  -17.5135   22.6891 C.ar    1  UNL1        0.0300
     16 C         -12.4199  -16.4107   21.7213 C.ar    1  UNL1        0.1672
     17 F         -13.1678  -15.1956   22.1842 F       1  UNL1       -0.2018
     18 C         -11.9836  -16.5228   20.2905 C.ar    1  UNL1        0.1696
     19 F         -12.2952  -15.4199   19.3227 F       1  UNL1       -0.2017
     20 C         -11.2357  -17.7378   19.8276 C.ar    1  UNL1        0.0612
     21 C         -10.9241  -18.8407   20.7953 C.ar    1  UNL1        0.1386
     22 F         -10.1762  -20.0558   20.3324 F       1  UNL1       -0.2044
     23 C          -6.1120  -15.7744   23.8536 C.3     1  UNL1        0.1091
     24 N          -5.6058  -17.0163   23.1815 N.am    1  UNL1       -0.3027
     25 C          -4.2367  -17.0327   22.5688 C.2     1  UNL1        0.2220
     26 O          -3.3738  -15.8072   22.6283 O.2     1  UNL1       -0.2751
     27 H          -6.1722  -17.8206   23.1424 H       1  UNL1        0.1495
     28 C          -3.7306  -18.2746   21.8968 C.3     1  UNL1        0.0765
     29 C          -4.5328  -19.1948   21.0252 C.3     1  UNL1        0.0091
     30 C          -3.6314  -20.3031   20.5681 C.3     1  UNL1        0.0005
     31 C          -2.2721  -20.0679   21.1572 C.3     1  UNL1        0.0005
     32 C          -2.3334  -18.8142   21.9783 C.3     1  UNL1        0.0091
@<TRIPOS>BOND
     1    10     9    1
     2    10     8    1
     3     8     1    1
     4     1     2    2
     5     1     3   am
     6     3     4    1
     7     4     5    1
     8     5     6    1
     9     6     7    1
    10     7    23    1
    11    23    24    1
    12    24    25   am
    13    25    26    2
    14    25    28    1
    15    28    29    1
    16    29    30    1
    17    30    31    1
    18    31    32    1
    19    10    13    1
    20    13    14    1
    21    14    15   ar
    22    15    16   ar
    23    16    17    1
    24    16    18   ar
    25    18    19    1
    26    18    20   ar
    27    20    21   ar
    28    21    22    1
    29     7     3    1
    30    32    28    1
    31    21    14   ar
    32     9    11    1
    33     9    12    1
    34    24    27    1
