@<TRIPOS>MOLECULE
*****
 29 32 0 0 0
SMALL
GASTEIGER

@<TRIPOS>ATOM
      1 C          -9.4993  -18.9300   22.0167 C.ar    1  UNL1        0.1311
      2 C          -8.6157  -19.7194   22.9365 C.ar    1  UNL1        0.0339
      3 C          -7.3547  -20.3415   22.4141 C.ar    1  UNL1        0.0027
      4 C          -6.9773  -20.1741   20.9721 C.ar    1  UNL1        0.0283
      5 C          -7.8610  -19.3847   20.0523 C.ar    1  UNL1        0.2196
      6 F          -7.4836  -19.2174   18.6102 F       1  UNL1       -0.1835
      7 N          -9.1219  -18.7626   20.5747 N.ar    1  UNL1       -0.2035
      8 N         -10.7603  -18.3079   22.5390 N.pl3   1  UNL1       -0.3144
      9 H         -11.6050  -18.8131   22.5152 H       1  UNL1        0.1485
     10 C         -10.7345  -16.9159   23.0976 C.3     1  UNL1        0.1155
     11 C          -7.7056  -15.7788   27.1636 C.3     1  UNL1        0.0521
     12 C          -7.9441  -15.7843   25.6827 C.ar    1  UNL1        0.0591
     13 C          -9.2201  -16.3474   25.1306 C.ar    1  UNL1        0.0121
     14 C          -9.4586  -16.3529   23.6496 C.ar    1  UNL1        0.0001
     15 C          -8.4211  -15.7953   22.7208 C.ar    1  UNL1        0.0180
     16 C          -7.1451  -15.2322   23.2729 C.ar    1  UNL1        0.0982
     17 N          -6.9066  -15.2267   24.7539 N.ar    1  UNL1       -0.2482
     18 C          -5.7162  -20.7963   20.4497 C.3     1  UNL1        0.0582
     19 C          -4.4733  -19.9683   20.3106 C.ar    1  UNL1        0.0044
     20 C          -3.5360  -19.9749   19.1395 C.ar    1  UNL1        0.0966
     21 N          -2.4328  -18.9989   19.4232 N.ar    1  UNL1       -0.2273
     22 C          -2.6883  -18.3891   20.7697 C.ar    1  UNL1        0.1403
     23 N          -1.9356  -17.3658   21.5672 N.ar    1  UNL1       -0.3367
     24 C          -2.4439  -16.9415   22.9131 C.ar    1  UNL1        0.0850
     25 C          -3.7050  -17.5405   23.4615 C.ar    1  UNL1        0.0747
     26 CL         -4.2134  -17.1162   24.8074 Cl      1  UNL1       -0.0807
     27 C          -4.4578  -18.5639   22.6640 C.ar    1  UNL1        0.0156
     28 C          -3.9494  -18.9882   21.3181 C.ar    1  UNL1        0.0327
     29 H          -1.1079  -16.9726   21.2072 H       1  UNL1        0.1674
@<TRIPOS>BOND
     1    11    12    1
     2    12    13   ar
     3    13    14   ar
     4    14    10    1
     5    10     8    1
     6     8     1    1
     7     1     2   ar
     8     2     3   ar
     9     3     4   ar
    10     4    18    1
    11    18    19    1
    12    19    20   ar
    13    20    21   ar
    14    21    22   ar
    15    22    23   ar
    16    23    24   ar
    17    24    25   ar
    18    25    26    1
    19    25    27   ar
    20    27    28   ar
    21     4     5   ar
    22     5     6    1
    23     5     7   ar
    24    14    15   ar
    25    15    16   ar
    26    16    17   ar
    27    17    12   ar
    28     7     1   ar
    29    28    19   ar
    30    28    22    1
    31     8     9    1
    32    23    29    1
@<TRIPOS>MOLECULE
*****
 29 32 0 0 0
SMALL
GASTEIGER

@<TRIPOS>ATOM
      1 C          -5.5575  -19.2815   21.9838 C.ar    1  UNL1        0.1311
      2 C          -6.0258  -20.3867   21.0843 C.ar    1  UNL1        0.0339
      3 C          -7.3137  -20.2437   20.3287 C.ar    1  UNL1        0.0027
      4 C          -8.1332  -18.9957   20.4726 C.ar    1  UNL1        0.0283
      5 C          -7.6648  -17.8905   21.3722 C.ar    1  UNL1        0.2196
      6 F          -8.4843  -16.6424   21.5161 F       1  UNL1       -0.1835
      7 N          -6.3770  -18.0334   22.1278 N.ar    1  UNL1       -0.2035
      8 N          -4.2696  -19.4244   22.7395 N.pl3   1  UNL1       -0.3144
      9 H          -4.2187  -19.1459   23.6824 H       1  UNL1        0.1485
     10 C          -3.0593  -19.9914   22.0585 C.3     1  UNL1        0.1155
     11 C           0.8710  -17.2260   20.0825 C.3     1  UNL1        0.0521
     12 C          -0.4700  -17.8778   19.9189 C.ar    1  UNL1        0.0591
     13 C          -1.0942  -18.6088   21.0705 C.ar    1  UNL1        0.0121
     14 C          -2.4352  -19.2605   20.9069 C.ar    1  UNL1        0.0001
     15 C          -3.1522  -19.1814   19.5917 C.ar    1  UNL1        0.0180
     16 C          -2.5280  -18.4504   18.4401 C.ar    1  UNL1        0.0982
     17 N          -1.1870  -17.7986   18.6037 N.ar    1  UNL1       -0.2482
     18 C          -9.4211  -18.8528   19.7170 C.3     1  UNL1        0.0582
     19 C         -10.6402  -18.3167   20.4073 C.ar    1  UNL1        0.0044
     20 C         -11.6807  -17.4268   19.7945 C.ar    1  UNL1        0.0966
     21 N         -12.7163  -17.1365   20.8401 N.ar    1  UNL1       -0.2273
     22 C         -12.3159  -17.8470   22.0990 C.ar    1  UNL1        0.1403
     23 N         -12.9538  -17.9240   23.4543 N.ar    1  UNL1       -0.3367
     24 C         -12.3087  -18.7305   24.5422 C.ar    1  UNL1        0.0850
     25 C         -11.0256  -19.4599   24.2747 C.ar    1  UNL1        0.0747
     26 CL        -10.3804  -20.2663   25.3626 Cl      1  UNL1       -0.0807
     27 C         -10.3876  -19.3828   22.9193 C.ar    1  UNL1        0.0156
     28 C         -11.0327  -18.5764   21.8315 C.ar    1  UNL1        0.0327
     29 H         -13.7960  -17.4453   23.6299 H       1  UNL1        0.1674
@<TRIPOS>BOND
     1    11    12    1
     2    12    13   ar
     3    13    14   ar
     4    14    10    1
     5    10     8    1
     6     8     1    1
     7     1     2   ar
     8     2     3   ar
     9     3     4   ar
    10     4    18    1
    11    18    19    1
    12    19    20   ar
    13    20    21   ar
    14    21    22   ar
    15    22    23   ar
    16    23    24   ar
    17    24    25   ar
    18    25    26    1
    19    25    27   ar
    20    27    28   ar
    21     4     5   ar
    22     5     6    1
    23     5     7   ar
    24    14    15   ar
    25    15    16   ar
    26    16    17   ar
    27    17    12   ar
    28     7     1   ar
    29    28    19   ar
    30    28    22    1
    31     8     9    1
    32    23    29    1
@<TRIPOS>MOLECULE
*****
 29 32 0 0 0
SMALL
GASTEIGER

@<TRIPOS>ATOM
      1 C          -5.4104  -20.3281   20.2301 C.ar    1  UNL1        0.1311
      2 C          -6.1128  -19.0772   20.6680 C.ar    1  UNL1        0.0339
      3 C          -7.5541  -18.8628   20.3122 C.ar    1  UNL1        0.0027
      4 C          -8.2930  -19.8992   19.5184 C.ar    1  UNL1        0.0283
      5 C          -7.5905  -21.1501   19.0805 C.ar    1  UNL1        0.2196
      6 F          -8.3293  -22.1865   18.2868 F       1  UNL1       -0.1835
      7 N          -6.1492  -21.3645   19.4363 N.ar    1  UNL1       -0.2035
      8 N          -3.9691  -20.5427   20.5858 N.pl3   1  UNL1       -0.3144
      9 H          -3.3838  -21.0541   19.9816 H       1  UNL1        0.1485
     10 C          -3.4194  -19.9779   21.8622 C.3     1  UNL1        0.1155
     11 C          -5.0418  -15.5582   24.0608 C.3     1  UNL1        0.0521
     12 C          -4.1110  -16.2829   23.1343 C.ar    1  UNL1        0.0591
     13 C          -4.2306  -17.7681   22.9615 C.ar    1  UNL1        0.0121
     14 C          -3.2997  -18.4927   22.0350 C.ar    1  UNL1        0.0001
     15 C          -2.2493  -17.7322   21.2812 C.ar    1  UNL1        0.0180
     16 C          -2.1297  -16.2470   21.4541 C.ar    1  UNL1        0.0982
     17 N          -3.0605  -15.5224   22.3806 N.ar    1  UNL1       -0.2482
     18 C          -9.7344  -19.6846   19.1626 C.3     1  UNL1        0.0582
     19 C         -10.5950  -18.8033   20.0185 C.ar    1  UNL1        0.0044
     20 C         -11.4023  -17.6312   19.5449 C.ar    1  UNL1        0.0966
     21 N         -12.1056  -17.0428   20.7320 N.ar    1  UNL1       -0.2273
     22 C         -11.7330  -17.8513   21.9392 C.ar    1  UNL1        0.1403
     23 N         -12.1232  -17.7374   23.3831 N.ar    1  UNL1       -0.3367
     24 C         -11.5798  -18.7115   24.3859 C.ar    1  UNL1        0.0850
     25 C         -10.6462  -19.7995   23.9450 C.ar    1  UNL1        0.0747
     26 CL        -10.1027  -20.7736   24.9479 Cl      1  UNL1       -0.0807
     27 C         -10.2559  -19.9135   22.5012 C.ar    1  UNL1        0.0156
     28 C         -10.7994  -18.9394   21.4983 C.ar    1  UNL1        0.0327
     29 H         -12.7360  -17.0233   23.6725 H       1  UNL1        0.1674
@<TRIPOS>BOND
     1    11    12    1
     2    12    13   ar
     3    13    14   ar
     4    14    10    1
     5    10     8    1
     6     8     1    1
     7     1     2   ar
     8     2     3   ar
     9     3     4   ar
    10     4    18    1
    11    18    19    1
    12    19    20   ar
    13    20    21   ar
    14    21    22   ar
    15    22    23   ar
    16    23    24   ar
    17    24    25   ar
    18    25    26    1
    19    25    27   ar
    20    27    28   ar
    21     4     5   ar
    22     5     6    1
    23     5     7   ar
    24    14    15   ar
    25    15    16   ar
    26    16    17   ar
    27    17    12   ar
    28     7     1   ar
    29    28    19   ar
    30    28    22    1
    31     8     9    1
    32    23    29    1
@<TRIPOS>MOLECULE
*****
 29 32 0 0 0
SMALL
GASTEIGER

@<TRIPOS>ATOM
      1 C          -4.9177  -15.8397   23.5019 C.ar    1  UNL1        0.1311
      2 C          -5.8490  -16.7812   22.7973 C.ar    1  UNL1        0.0339
      3 C          -7.2332  -17.0051   23.3298 C.ar    1  UNL1        0.0027
      4 C          -7.6862  -16.2877   24.5668 C.ar    1  UNL1        0.0283
      5 C          -6.7549  -15.3462   25.2713 C.ar    1  UNL1        0.2196
      6 F          -7.2080  -14.6288   26.5082 F       1  UNL1       -0.1835
      7 N          -5.3707  -15.1223   24.7388 N.ar    1  UNL1       -0.2035
      8 N          -3.5334  -15.6157   22.9694 N.pl3   1  UNL1       -0.3144
      9 H          -3.2445  -14.7096   22.7149 H       1  UNL1        0.1485
     10 C          -2.5890  -16.7722   22.8248 C.3     1  UNL1        0.1155
     11 C          -4.0252  -20.7110   19.7551 C.3     1  UNL1        0.0521
     12 C          -3.2107  -19.4722   19.9836 C.ar    1  UNL1        0.0591
     13 C          -3.3071  -18.7415   21.2900 C.ar    1  UNL1        0.0121
     14 C          -2.4926  -17.5028   21.5184 C.ar    1  UNL1        0.0001
     15 C          -1.5817  -16.9948   20.4403 C.ar    1  UNL1        0.0180
     16 C          -1.4853  -17.7255   19.1339 C.ar    1  UNL1        0.0982
     17 N          -2.2998  -18.9642   18.9055 N.ar    1  UNL1       -0.2482
     18 C          -9.0706  -16.5117   25.0992 C.3     1  UNL1        0.0582
     19 C          -9.9796  -17.5014   24.4326 C.ar    1  UNL1        0.0044
     20 C         -10.4554  -18.7967   25.0205 C.ar    1  UNL1        0.0966
     21 N         -11.3422  -19.4653   24.0122 N.ar    1  UNL1       -0.2273
     22 C         -11.4144  -18.5832   22.8011 C.ar    1  UNL1        0.1403
     23 N         -12.1381  -18.7283   21.4954 N.ar    1  UNL1       -0.3367
     24 C         -12.0198  -17.6597   20.4494 C.ar    1  UNL1        0.0850
     25 C         -11.1776  -16.4459   20.7093 C.ar    1  UNL1        0.0747
     26 CL        -11.0593  -15.3773   19.6633 Cl      1  UNL1       -0.0807
     27 C         -10.4538  -16.3008   22.0150 C.ar    1  UNL1        0.0156
     28 C         -10.5722  -17.3694   23.0609 C.ar    1  UNL1        0.0327
     29 H         -12.6909  -19.5250   21.3248 H       1  UNL1        0.1674
@<TRIPOS>BOND
     1    11    12    1
     2    12    13   ar
     3    13    14   ar
     4    14    10    1
     5    10     8    1
     6     8     1    1
     7     1     2   ar
     8     2     3   ar
     9     3     4   ar
    10     4    18    1
    11    18    19    1
    12    19    20   ar
    13    20    21   ar
    14    21    22   ar
    15    22    23   ar
    16    23    24   ar
    17    24    25   ar
    18    25    26    1
    19    25    27   ar
    20    27    28   ar
    21     4     5   ar
    22     5     6    1
    23     5     7   ar
    24    14    15   ar
    25    15    16   ar
    26    16    17   ar
    27    17    12   ar
    28     7     1   ar
    29    28    19   ar
    30    28    22    1
    31     8     9    1
    32    23    29    1
@<TRIPOS>MOLECULE
*****
 29 32 0 0 0
SMALL
GASTEIGER

@<TRIPOS>ATOM
      1 C          -6.0565  -15.9486   24.2703 C.ar    1  UNL1        0.1311
      2 C          -6.6488  -15.3911   23.0100 C.ar    1  UNL1        0.0339
      3 C          -8.1328  -15.4335   22.7962 C.ar    1  UNL1        0.0027
      4 C          -9.0246  -16.0333   23.8426 C.ar    1  UNL1        0.0283
      5 C          -8.4322  -16.5908   25.1029 C.ar    1  UNL1        0.2196
      6 F          -9.3240  -17.1906   26.1493 F       1  UNL1       -0.1835
      7 N          -6.9482  -16.5484   25.3167 N.ar    1  UNL1       -0.2035
      8 N          -4.5724  -15.9063   24.4842 N.pl3   1  UNL1       -0.3144
      9 H          -4.1417  -15.0728   24.7826 H       1  UNL1        0.1485
     10 C          -3.7445  -17.1338   24.2435 C.3     1  UNL1        0.1155
     11 C          -3.7687  -20.3575   20.1683 C.3     1  UNL1        0.0521
     12 C          -3.3065  -19.0860   20.8161 C.ar    1  UNL1        0.0591
     13 C          -3.7566  -18.7456   22.2059 C.ar    1  UNL1        0.0121
     14 C          -3.2944  -17.4741   22.8537 C.ar    1  UNL1        0.0001
     15 C          -2.3820  -16.5430   22.1117 C.ar    1  UNL1        0.0180
     16 C          -1.9318  -16.8834   20.7219 C.ar    1  UNL1        0.0982
     17 N          -2.3941  -18.1549   20.0741 N.ar    1  UNL1       -0.2482
     18 C         -10.5087  -16.0756   23.6287 C.3     1  UNL1        0.0582
     19 C         -11.0692  -16.6871   22.3789 C.ar    1  UNL1        0.0044
     20 C         -12.4190  -16.4057   21.7884 C.ar    1  UNL1        0.0966
     21 N         -12.5622  -17.2321   20.5448 N.ar    1  UNL1       -0.2273
     22 C         -11.3010  -18.0242   20.3667 C.ar    1  UNL1        0.1403
     23 N         -10.8735  -19.0087   19.3188 N.ar    1  UNL1       -0.3367
     24 C          -9.5233  -19.6563   19.4046 C.ar    1  UNL1        0.0850
     25 C          -8.6005  -19.3195   20.5381 C.ar    1  UNL1        0.0747
     26 CL         -7.2502  -19.9672   20.6238 Cl      1  UNL1       -0.0807
     27 C          -9.0279  -18.3350   21.5860 C.ar    1  UNL1        0.0156
     28 C         -10.3782  -17.6874   21.5003 C.ar    1  UNL1        0.0327
     29 H         -11.4792  -19.2298   18.5748 H       1  UNL1        0.1674
@<TRIPOS>BOND
     1    11    12    1
     2    12    13   ar
     3    13    14   ar
     4    14    10    1
     5    10     8    1
     6     8     1    1
     7     1     2   ar
     8     2     3   ar
     9     3     4   ar
    10     4    18    1
    11    18    19    1
    12    19    20   ar
    13    20    21   ar
    14    21    22   ar
    15    22    23   ar
    16    23    24   ar
    17    24    25   ar
    18    25    26    1
    19    25    27   ar
    20    27    28   ar
    21     4     5   ar
    22     5     6    1
    23     5     7   ar
    24    14    15   ar
    25    15    16   ar
    26    16    17   ar
    27    17    12   ar
    28     7     1   ar
    29    28    19   ar
    30    28    22    1
    31     8     9    1
    32    23    29    1
@<TRIPOS>MOLECULE
*****
 29 32 0 0 0
SMALL
GASTEIGER

@<TRIPOS>ATOM
      1 C          -0.6022    2.2007   20.4173 C.ar    1  UNL1        0.1311
      2 C           0.1197    2.9785   19.3572 C.ar    1  UNL1        0.0339
      3 C           1.1989    2.3214   18.5488 C.ar    1  UNL1        0.0027
      4 C           1.5563    0.8865   18.8006 C.ar    1  UNL1        0.0283
      5 C           0.8345    0.1087   19.8608 C.ar    1  UNL1        0.2196
      6 F           1.1919   -1.3262   20.1126 F       1  UNL1       -0.1835
      7 N          -0.2447    0.7658   20.6691 N.ar    1  UNL1       -0.2035
      8 N          -1.6814    2.8577   21.2257 N.pl3   1  UNL1       -0.3144
      9 H          -1.5509    3.0098   22.1896 H       1  UNL1        0.1485
     10 C          -2.9594    3.2832   20.5656 C.3     1  UNL1        0.1155
     11 C          -5.2101    3.7528   25.2254 C.3     1  UNL1        0.0521
     12 C          -5.2838    3.8561   23.7307 C.ar    1  UNL1        0.0591
     13 C          -4.0847    3.5180   22.8954 C.ar    1  UNL1        0.0121
     14 C          -4.1585    3.6214   21.4008 C.ar    1  UNL1        0.0001
     15 C          -5.4315    4.0629   20.7415 C.ar    1  UNL1        0.0180
     16 C          -6.6306    4.4010   21.5768 C.ar    1  UNL1        0.0982
     17 N          -6.5567    4.2977   23.0714 N.ar    1  UNL1       -0.2482
     18 C           2.6356    0.2294   17.9922 C.3     1  UNL1        0.0582
     19 C           3.9544   -0.0982   18.6274 C.ar    1  UNL1        0.0044
     20 C           5.0488    0.8786   18.9410 C.ar    1  UNL1        0.0966
     21 N           6.1810    0.1204   19.5680 N.ar    1  UNL1       -0.2273
     22 C           5.7864   -1.3249   19.6419 C.ar    1  UNL1        0.1403
     23 N           6.5024   -2.5354   20.1635 N.ar    1  UNL1       -0.3367
     24 C           5.8423   -3.8809   20.1037 C.ar    1  UNL1        0.0850
     25 C           4.4661   -4.0160   19.5224 C.ar    1  UNL1        0.0747
     26 CL          3.8059   -5.3616   19.4627 Cl      1  UNL1       -0.0807
     27 C           3.7501   -2.8055   19.0009 C.ar    1  UNL1        0.0156
     28 C           4.4103   -1.4600   19.0606 C.ar    1  UNL1        0.0327
     29 H           7.4057   -2.4467   20.5450 H       1  UNL1        0.1674
@<TRIPOS>BOND
     1    11    12    1
     2    12    13   ar
     3    13    14   ar
     4    14    10    1
     5    10     8    1
     6     8     1    1
     7     1     2   ar
     8     2     3   ar
     9     3     4   ar
    10     4    18    1
    11    18    19    1
    12    19    20   ar
    13    20    21   ar
    14    21    22   ar
    15    22    23   ar
    16    23    24   ar
    17    24    25   ar
    18    25    26    1
    19    25    27   ar
    20    27    28   ar
    21     4     5   ar
    22     5     6    1
    23     5     7   ar
    24    14    15   ar
    25    15    16   ar
    26    16    17   ar
    27    17    12   ar
    28     7     1   ar
    29    28    19   ar
    30    28    22    1
    31     8     9    1
    32    23    29    1
@<TRIPOS>MOLECULE
*****
 29 32 0 0 0
SMALL
GASTEIGER

@<TRIPOS>ATOM
      1 C           6.4643   -2.6903   24.6063 C.ar    1  UNL1        0.1311
      2 C           5.0164   -2.3784   24.3693 C.ar    1  UNL1        0.0339
      3 C           4.3610   -2.7907   23.0846 C.ar    1  UNL1        0.0027
      4 C           5.1535   -3.5148   22.0370 C.ar    1  UNL1        0.0283
      5 C           6.6015   -3.8267   22.2740 C.ar    1  UNL1        0.2196
      6 F           7.3940   -4.5509   21.2264 F       1  UNL1       -0.1835
      7 N           7.2568   -3.4145   23.5587 N.ar    1  UNL1       -0.2035
      8 N           7.1197   -2.2781   25.8910 N.pl3   1  UNL1       -0.3144
      9 H           8.0736   -2.0347   25.9010 H       1  UNL1        0.1485
     10 C           6.3219   -2.2366   27.1606 C.3     1  UNL1        0.1155
     11 C           6.5869   -3.6641   32.1498 C.3     1  UNL1        0.0521
     12 C           6.6401   -4.0173   30.6930 C.ar    1  UNL1        0.0591
     13 C           6.4544   -2.9503   29.6552 C.ar    1  UNL1        0.0121
     14 C           6.5077   -3.3037   28.1983 C.ar    1  UNL1        0.0001
     15 C           6.7467   -4.7240   27.7793 C.ar    1  UNL1        0.0180
     16 C           6.9325   -5.7909   28.8171 C.ar    1  UNL1        0.0982
     17 N           6.8792   -5.4376   30.2739 N.ar    1  UNL1       -0.2482
     18 C           4.4981   -3.9271   20.7522 C.3     1  UNL1        0.0582
     19 C           4.4826   -2.9876   19.5829 C.ar    1  UNL1        0.0044
     20 C           5.4501   -2.9906   18.4366 C.ar    1  UNL1        0.0966
     21 N           5.0624   -1.8851   17.5000 N.ar    1  UNL1       -0.2273
     22 C           3.8552   -1.1988   18.0673 C.ar    1  UNL1        0.1403
     23 N           3.0361   -0.0414   17.5781 N.ar    1  UNL1       -0.3367
     24 C           1.8586    0.4345   18.3762 C.ar    1  UNL1        0.0850
     25 C           1.5003   -0.2470   19.6635 C.ar    1  UNL1        0.0747
     26 CL          0.3227    0.2290   20.4616 Cl      1  UNL1       -0.0807
     27 C           2.3195   -1.4043   20.1528 C.ar    1  UNL1        0.0156
     28 C           3.4969   -1.8802   19.3547 C.ar    1  UNL1        0.0327
     29 H           3.2712    0.4058   16.7332 H       1  UNL1        0.1674
@<TRIPOS>BOND
     1    11    12    1
     2    12    13   ar
     3    13    14   ar
     4    14    10    1
     5    10     8    1
     6     8     1    1
     7     1     2   ar
     8     2     3   ar
     9     3     4   ar
    10     4    18    1
    11    18    19    1
    12    19    20   ar
    13    20    21   ar
    14    21    22   ar
    15    22    23   ar
    16    23    24   ar
    17    24    25   ar
    18    25    26    1
    19    25    27   ar
    20    27    28   ar
    21     4     5   ar
    22     5     6    1
    23     5     7   ar
    24    14    15   ar
    25    15    16   ar
    26    16    17   ar
    27    17    12   ar
    28     7     1   ar
    29    28    19   ar
    30    28    22    1
    31     8     9    1
    32    23    29    1
@<TRIPOS>MOLECULE
*****
 29 32 0 0 0
SMALL
GASTEIGER

@<TRIPOS>ATOM
      1 C           0.4589    0.8539   21.3114 C.ar    1  UNL1        0.1311
      2 C           0.7153    1.0910   22.7702 C.ar    1  UNL1        0.0339
      3 C           0.0529    2.2399   23.4710 C.ar    1  UNL1        0.0027
      4 C          -0.8660    3.1516   22.7131 C.ar    1  UNL1        0.0283
      5 C          -1.1224    2.9145   21.2544 C.ar    1  UNL1        0.2196
      6 F          -2.0412    3.8263   20.4965 F       1  UNL1       -0.1835
      7 N          -0.4599    1.7657   20.5536 N.ar    1  UNL1       -0.2035
      8 N           1.1213   -0.2950   20.6105 N.pl3   1  UNL1       -0.3144
      9 H           0.5741   -1.0061   20.2056 H       1  UNL1        0.1485
     10 C           2.6176   -0.3604   20.5266 C.3     1  UNL1        0.1155
     11 C           4.4896   -4.9198   18.8811 C.3     1  UNL1        0.0521
     12 C           4.2648   -3.9302   19.9857 C.ar    1  UNL1        0.0591
     13 C           3.5536   -2.6400   19.7038 C.ar    1  UNL1        0.0121
     14 C           3.3289   -1.6505   20.8086 C.ar    1  UNL1        0.0001
     15 C           3.8155   -1.9512   22.1952 C.ar    1  UNL1        0.0180
     16 C           4.5268   -3.2414   22.4771 C.ar    1  UNL1        0.0982
     17 N           4.7515   -4.2309   21.3724 N.ar    1  UNL1       -0.2482
     18 C          -1.5284    4.3006   23.4141 C.3     1  UNL1        0.0582
     19 C          -2.8278    4.0915   24.1337 C.ar    1  UNL1        0.0044
     20 C          -2.9876    3.7767   25.5916 C.ar    1  UNL1        0.0966
     21 N          -4.4541    3.6513   25.8806 N.ar    1  UNL1       -0.2273
     22 C          -5.2007    3.8885   24.6014 C.ar    1  UNL1        0.1403
     23 N          -6.6659    3.8919   24.2803 N.ar    1  UNL1       -0.3367
     24 C          -7.1260    4.1674   22.8795 C.ar    1  UNL1        0.0850
     25 C          -6.1208    4.4396   21.7998 C.ar    1  UNL1        0.0747
     26 CL         -6.5810    4.7151   20.3989 Cl      1  UNL1       -0.0807
     27 C          -4.6557    4.4362   22.1209 C.ar    1  UNL1        0.0156
     28 C          -4.1956    4.1606   23.5218 C.ar    1  UNL1        0.0327
     29 H          -7.3256    3.7133   24.9889 H       1  UNL1        0.1674
@<TRIPOS>BOND
     1    11    12    1
     2    12    13   ar
     3    13    14   ar
     4    14    10    1
     5    10     8    1
     6     8     1    1
     7     1     2   ar
     8     2     3   ar
     9     3     4   ar
    10     4    18    1
    11    18    19    1
    12    19    20   ar
    13    20    21   ar
    14    21    22   ar
    15    22    23   ar
    16    23    24   ar
    17    24    25   ar
    18    25    26    1
    19    25    27   ar
    20    27    28   ar
    21     4     5   ar
    22     5     6    1
    23     5     7   ar
    24    14    15   ar
    25    15    16   ar
    26    16    17   ar
    27    17    12   ar
    28     7     1   ar
    29    28    19   ar
    30    28    22    1
    31     8     9    1
    32    23    29    1
@<TRIPOS>MOLECULE
*****
 29 32 0 0 0
SMALL
GASTEIGER

@<TRIPOS>ATOM
      1 C           3.9882   -1.7060   24.2651 C.ar    1  UNL1        0.1311
      2 C           3.1459   -0.7432   23.4819 C.ar    1  UNL1        0.0339
      3 C           2.9861   -0.9194   22.0009 C.ar    1  UNL1        0.0027
      4 C           3.6685   -2.0585   21.3032 C.ar    1  UNL1        0.0283
      5 C           4.5108   -3.0214   22.0864 C.ar    1  UNL1        0.2196
      6 F           5.1931   -4.1604   21.3887 F       1  UNL1       -0.1835
      7 N           4.6706   -2.8451   23.5674 N.ar    1  UNL1       -0.2035
      8 N           4.1481   -1.5298   25.7461 N.pl3   1  UNL1       -0.3144
      9 H           4.4866   -2.2727   26.2965 H       1  UNL1        0.1485
     10 C           3.7923   -0.2219   26.3887 C.3     1  UNL1        0.1155
     11 C          -0.7524    0.8264   28.6791 C.3     1  UNL1        0.0521
     12 C           0.6589    0.3249   28.7618 C.ar    1  UNL1        0.0591
     13 C           1.5200    0.3022   27.5339 C.ar    1  UNL1        0.0121
     14 C           2.9313   -0.1993   27.6167 C.ar    1  UNL1        0.0001
     15 C           3.4814   -0.6781   28.9274 C.ar    1  UNL1        0.0180
     16 C           2.6202   -0.6554   30.1554 C.ar    1  UNL1        0.0982
     17 N           1.2090   -0.1539   30.0726 N.ar    1  UNL1       -0.2482
     18 C           3.5086   -2.2347   19.8221 C.3     1  UNL1        0.0582
     19 C           4.6441   -1.9017   18.9003 C.ar    1  UNL1        0.0044
     20 C           5.6197   -2.8789   18.3144 C.ar    1  UNL1        0.0966
     21 N           6.5819   -2.1142   17.4546 N.ar    1  UNL1       -0.2273
     22 C           6.2010   -0.6644   17.5090 C.ar    1  UNL1        0.1403
     23 N           6.7900    0.5531   16.8604 N.ar    1  UNL1       -0.3367
     24 C           6.1813    1.9020   17.1053 C.ar    1  UNL1        0.0850
     25 C           4.9836    2.0333   17.9989 C.ar    1  UNL1        0.0747
     26 CL          4.3749    3.3822   18.2438 Cl      1  UNL1       -0.0807
     27 C           4.3947    0.8158   18.6475 C.ar    1  UNL1        0.0156
     28 C           5.0034   -0.5331   18.4025 C.ar    1  UNL1        0.0327
     29 H           7.5760    0.4669   16.2740 H       1  UNL1        0.1674
@<TRIPOS>BOND
     1    11    12    1
     2    12    13   ar
     3    13    14   ar
     4    14    10    1
     5    10     8    1
     6     8     1    1
     7     1     2   ar
     8     2     3   ar
     9     3     4   ar
    10     4    18    1
    11    18    19    1
    12    19    20   ar
    13    20    21   ar
    14    21    22   ar
    15    22    23   ar
    16    23    24   ar
    17    24    25   ar
    18    25    26    1
    19    25    27   ar
    20    27    28   ar
    21     4     5   ar
    22     5     6    1
    23     5     7   ar
    24    14    15   ar
    25    15    16   ar
    26    16    17   ar
    27    17    12   ar
    28     7     1   ar
    29    28    19   ar
    30    28    22    1
    31     8     9    1
    32    23    29    1
