@<TRIPOS>MOLECULE
*****
 33 36 0 0 0
SMALL
GASTEIGER

@<TRIPOS>ATOM
      1 C           7.7299   -5.8351   24.6035 C.ar    1  UNL1        0.0727
      2 C           8.1077   -7.2868   24.6047 C.ar    1  UNL1        0.0062
      3 C           8.1646   -8.0459   25.8972 C.ar    1  UNL1        0.0000
      4 C           7.8436   -7.3533   27.1885 C.ar    1  UNL1        0.0001
      5 C           7.4658   -5.9016   27.1872 C.ar    1  UNL1        0.0280
      6 C           7.4089   -5.1426   25.8948 C.ar    1  UNL1        0.1389
      7 O           7.0581   -3.7014   25.6711 O.3     1  UNL1       -0.4741
      8 C           6.6774   -2.6634   26.6849 C.3     1  UNL1        0.2226
      9 C           6.5536   -2.8102   28.1725 C.3     1  UNL1        0.1203
     10 N           6.7798   -4.0312   29.0139 N.3     1  UNL1       -0.2657
     11 C           7.1858   -5.4070   28.5754 C.3     1  UNL1        0.1023
     12 C           6.8549   -3.7782   21.4303 C.ar    1  UNL1        0.2600
     13 N           6.4574   -4.4199   22.7266 N.ar    1  UNL1       -0.1869
     14 C           7.6731   -5.0760   23.3110 C.ar    1  UNL1        0.2065
     15 N           8.8220   -4.8398   22.3760 N.ar    1  UNL1       -0.0555
     16 O           8.3164   -4.0377   21.2137 O.2     1  UNL1       -0.3324
     17 C           4.1400   -1.4783   18.6754 C.ar    1  UNL1        0.1488
     18 C           3.5573   -2.3245   19.7683 C.ar    1  UNL1        0.0379
     19 C           4.4623   -3.0911   20.6866 C.ar    1  UNL1        0.0079
     20 C           5.9500   -3.0115   20.5120 C.ar    1  UNL1        0.0571
     21 C           6.5327   -2.1654   19.4192 C.ar    1  UNL1        0.0192
     22 C           5.6277   -1.3987   18.5009 C.ar    1  UNL1        0.0917
     23 CL          6.2105   -0.5525   17.4079 Cl      1  UNL1       -0.0791
     24 O           3.2351   -0.7117   17.7571 O.3     1  UNL1       -0.4783
     25 C           3.5469    1.7795   18.4256 C.3     1  UNL1        0.0472
     26 C           2.6516    0.5974   18.1998 C.3     1  UNL1        0.1662
     27 C           1.1728    0.7242   18.4168 C.3     1  UNL1        0.0472
     28 C           6.5727   -3.8528   30.4887 C.3     1  UNL1        0.0729
     29 C           6.2404   -2.4983   31.0410 C.3     1  UNL1        0.0232
     30 C           5.7685   -2.3614   32.4583 C.3     1  UNL1        0.0431
     31 C           4.3010   -2.2671   32.7543 C.2     1  UNL1        0.0504
     32 O           3.6898   -3.1460   33.8049 O.co2   1  UNL1       -0.5492
     33 O           3.4447   -1.2938   31.9996 O.co2   1  UNL1       -0.5492
@<TRIPOS>UNITY_ATOM_ATTR
32 1
charge -1
@<TRIPOS>BOND
     1    25    26    1
     2    26    27    1
     3    26    24    1
     4    24    17    1
     5    17    18   ar
     6    18    19   ar
     7    19    20   ar
     8    20    12    1
     9    12    13   ar
    10    13    14   ar
    11    14     1    1
    12     1     2   ar
    13     2     3   ar
    14     3     4   ar
    15     4     5   ar
    16     5     6   ar
    17     6     7    1
    18     7     8    1
    19     8     9    1
    20     9    10    1
    21    10    28    1
    22    28    29    1
    23    29    30    1
    24    30    31    1
    25    31    32   ar
    26    31    33   ar
    27    10    11    1
    28    14    15   ar
    29    15    16   ar
    30    20    21   ar
    31    21    22   ar
    32    22    23    1
    33    22    17   ar
    34    16    12   ar
    35     6     1   ar
    36    11     5    1
@<TRIPOS>MOLECULE
*****
 33 36 0 0 0
SMALL
GASTEIGER

@<TRIPOS>ATOM
      1 C           7.9898   -6.0651   25.4329 C.ar    1  UNL1        0.0727
      2 C           8.3883   -7.5100   25.3730 C.ar    1  UNL1        0.0062
      3 C           8.4409   -8.3263   26.6303 C.ar    1  UNL1        0.0000
      4 C           8.0952   -7.6977   27.9477 C.ar    1  UNL1        0.0001
      5 C           7.6967   -6.2527   28.0076 C.ar    1  UNL1        0.0280
      6 C           7.6441   -5.4366   26.7502 C.ar    1  UNL1        0.1389
      7 O           7.2753   -3.9916   26.5879 O.3     1  UNL1       -0.4741
      8 C           6.8681   -3.0061   27.6430 C.3     1  UNL1        0.2226
      9 C           6.7292   -3.2222   29.1207 C.3     1  UNL1        0.1203
     10 N           6.9630   -4.4770   29.9086 N.3     1  UNL1       -0.2657
     11 C           7.3936   -5.8257   29.4132 C.3     1  UNL1        0.1023
     12 C           7.1082   -3.9668   22.2888 C.ar    1  UNL1        0.2600
     13 N           6.6960   -4.7272   23.5144 N.ar    1  UNL1       -0.1869
     14 C           7.9372   -5.2488   24.1756 C.ar    1  UNL1        0.2065
     15 N           9.1166   -4.8110   23.3586 N.ar    1  UNL1       -0.0555
     16 O           8.6042   -4.0186   22.1926 O.2     1  UNL1       -0.3324
     17 C           4.3424   -1.8944   19.4070 C.ar    1  UNL1        0.1488
     18 C           5.4319   -1.1209   20.0887 C.ar    1  UNL1        0.0379
     19 C           6.3539   -1.8117   21.0493 C.ar    1  UNL1        0.0079
     20 C           6.1863   -3.2760   21.3282 C.ar    1  UNL1        0.0571
     21 C           5.0968   -4.0495   20.6465 C.ar    1  UNL1        0.0192
     22 C           4.1749   -3.3586   19.6859 C.ar    1  UNL1        0.0917
     23 CL          3.0853   -4.1321   19.0041 Cl      1  UNL1       -0.0791
     24 O           3.4205   -1.2035   18.4463 O.3     1  UNL1       -0.4783
     25 C           1.4156   -0.6003   19.9847 C.3     1  UNL1        0.0472
     26 C           2.4263   -0.2002   18.9510 C.3     1  UNL1        0.1662
     27 C           2.4426    1.2033   18.4219 C.3     1  UNL1        0.0472
     28 C           6.7363   -4.3688   31.3874 C.3     1  UNL1        0.0729
     29 C           7.3467   -3.2364   32.1589 C.3     1  UNL1        0.0232
     30 C           6.4654   -2.2450   32.8594 C.3     1  UNL1        0.0431
     31 C           4.9949   -2.2102   32.5658 C.2     1  UNL1        0.0504
     32 O           4.0298   -2.8968   33.4863 O.co2   1  UNL1       -0.5492
     33 O           4.4892   -1.4888   31.3518 O.co2   1  UNL1       -0.5492
@<TRIPOS>UNITY_ATOM_ATTR
32 1
charge -1
@<TRIPOS>BOND
     1    25    26    1
     2    26    27    1
     3    26    24    1
     4    24    17    1
     5    17    18   ar
     6    18    19   ar
     7    19    20   ar
     8    20    12    1
     9    12    13   ar
    10    13    14   ar
    11    14     1    1
    12     1     2   ar
    13     2     3   ar
    14     3     4   ar
    15     4     5   ar
    16     5     6   ar
    17     6     7    1
    18     7     8    1
    19     8     9    1
    20     9    10    1
    21    10    28    1
    22    28    29    1
    23    29    30    1
    24    30    31    1
    25    31    32   ar
    26    31    33   ar
    27    10    11    1
    28    14    15   ar
    29    15    16   ar
    30    20    21   ar
    31    21    22   ar
    32    22    23    1
    33    22    17   ar
    34    16    12   ar
    35     6     1   ar
    36    11     5    1
@<TRIPOS>MOLECULE
*****
 33 36 0 0 0
SMALL
GASTEIGER

@<TRIPOS>ATOM
      1 C           0.9361    2.4138   31.4087 C.ar    1  UNL1        0.0727
      2 C           0.2207    3.6946   31.7218 C.ar    1  UNL1        0.0062
      3 C           0.4664    4.3910   33.0275 C.ar    1  UNL1        0.0000
      4 C           1.4275    3.8066   34.0200 C.ar    1  UNL1        0.0001
      5 C           2.1428    2.5259   33.7067 C.ar    1  UNL1        0.0280
      6 C           1.8970    1.8296   32.4012 C.ar    1  UNL1        0.1389
      7 O           2.5005    0.5534   31.8937 O.3     1  UNL1       -0.4741
      8 C           3.4988   -0.3414   32.5667 C.3     1  UNL1        0.2226
      9 C           4.1400   -0.1812   33.9131 C.3     1  UNL1        0.1203
     10 N           3.9415    0.9135   34.9193 N.3     1  UNL1       -0.2657
     11 C           3.0526    2.1182   34.8275 C.3     1  UNL1        0.1023
     12 C           0.7977    1.1072   27.7564 C.ar    1  UNL1        0.2600
     13 N           1.3314    2.0547   28.7896 N.ar    1  UNL1       -0.1869
     14 C           0.6903    1.7174   30.1030 C.ar    1  UNL1        0.2065
     15 N          -0.2397    0.5615   29.8817 N.ar    1  UNL1       -0.0555
     16 O          -0.1733    0.1843   28.4314 O.2     1  UNL1       -0.3324
     17 C           1.9135    1.0443   23.3975 C.ar    1  UNL1        0.1488
     18 C           0.4918    1.2961   23.8041 C.ar    1  UNL1        0.0379
     19 C           0.1199    1.3171   25.2571 C.ar    1  UNL1        0.0079
     20 C           1.1696    1.0862   26.3034 C.ar    1  UNL1        0.0571
     21 C           2.5913    0.8344   25.8968 C.ar    1  UNL1        0.0192
     22 C           2.9632    0.8134   24.4438 C.ar    1  UNL1        0.0917
     23 CL          4.3850    0.5616   24.0370 Cl      1  UNL1       -0.0791
     24 O           2.2854    1.0233   21.9445 O.3     1  UNL1       -0.4783
     25 C           3.1172   -1.3219   21.1973 C.3     1  UNL1        0.0472
     26 C           2.0931   -0.2274   21.1390 C.3     1  UNL1        0.1662
     27 C           0.8768   -0.3836   20.2753 C.3     1  UNL1        0.0472
     28 C           4.7370    0.7866   36.1845 C.3     1  UNL1        0.0729
     29 C           4.3595    1.5927   37.3919 C.3     1  UNL1        0.0232
     30 C           3.4064    1.0275   38.4031 C.3     1  UNL1        0.0431
     31 C           1.9676    1.4515   38.3963 C.2     1  UNL1        0.0504
     32 O           0.9066    0.5123   38.8884 O.co2   1  UNL1       -0.5492
     33 O           1.5898    2.8148   37.8975 O.co2   1  UNL1       -0.5492
@<TRIPOS>UNITY_ATOM_ATTR
32 1
charge -1
@<TRIPOS>BOND
     1    25    26    1
     2    26    27    1
     3    26    24    1
     4    24    17    1
     5    17    18   ar
     6    18    19   ar
     7    19    20   ar
     8    20    12    1
     9    12    13   ar
    10    13    14   ar
    11    14     1    1
    12     1     2   ar
    13     2     3   ar
    14     3     4   ar
    15     4     5   ar
    16     5     6   ar
    17     6     7    1
    18     7     8    1
    19     8     9    1
    20     9    10    1
    21    10    28    1
    22    28    29    1
    23    29    30    1
    24    30    31    1
    25    31    32   ar
    26    31    33   ar
    27    10    11    1
    28    14    15   ar
    29    15    16   ar
    30    20    21   ar
    31    21    22   ar
    32    22    23    1
    33    22    17   ar
    34    16    12   ar
    35     6     1   ar
    36    11     5    1
@<TRIPOS>MOLECULE
*****
 33 36 0 0 0
SMALL
GASTEIGER

@<TRIPOS>ATOM
      1 C           0.3812    1.5597   26.9786 C.ar    1  UNL1        0.0727
      2 C          -0.8773    2.3560   26.7992 C.ar    1  UNL1        0.0062
      3 C          -1.2802    2.8240   25.4321 C.ar    1  UNL1        0.0000
      4 C          -0.4246    2.4956   24.2446 C.ar    1  UNL1        0.0001
      5 C           0.8339    1.6993   24.4242 C.ar    1  UNL1        0.0280
      6 C           1.2367    1.2314   25.7911 C.ar    1  UNL1        0.1389
      7 O           2.4422    0.4320   26.1885 O.3     1  UNL1       -0.4741
      8 C           3.5425   -0.0969   25.3169 C.3     1  UNL1        0.2226
      9 C           3.7091    0.0430   23.8328 C.3     1  UNL1        0.1203
     10 N           2.8166    0.7463   22.8536 N.3     1  UNL1       -0.2657
     11 C           1.5370    1.4835   23.1168 C.3     1  UNL1        0.1023
     12 C           1.5434    1.0805   30.6508 C.ar    1  UNL1        0.2600
     13 N           1.2463    1.9636   29.4753 N.ar    1  UNL1       -0.1869
     14 C           0.7841    1.0918   28.3457 C.ar    1  UNL1        0.2065
     15 N           0.7955   -0.3303   28.8229 N.ar    1  UNL1       -0.0555
     16 O           1.2648   -0.3372   30.2477 O.2     1  UNL1       -0.3324
     17 C           3.0124    2.4446   34.6796 C.ar    1  UNL1        0.1488
     18 C           3.6229    1.2397   34.0273 C.ar    1  UNL1        0.0379
     19 C           3.1332    0.7850   32.6843 C.ar    1  UNL1        0.0079
     20 C           2.0330    1.5352   31.9938 C.ar    1  UNL1        0.0571
     21 C           1.4226    2.7401   32.6461 C.ar    1  UNL1        0.0192
     22 C           1.9123    3.1948   33.9890 C.ar    1  UNL1        0.0917
     23 CL          1.3018    4.3998   34.6414 Cl      1  UNL1       -0.0791
     24 O           3.5021    2.8993   36.0225 O.3     1  UNL1       -0.4783
     25 C           3.3891    0.9772   37.7668 C.3     1  UNL1        0.0472
     26 C           2.9166    2.3123   37.2725 C.3     1  UNL1        0.1662
     27 C           1.8587    3.0603   38.0283 C.3     1  UNL1        0.0472
     28 C           3.2626    0.7073   21.4221 C.3     1  UNL1        0.0729
     29 C           3.1825   -0.5739   20.6461 C.3     1  UNL1        0.0232
     30 C           1.8681   -1.0303   20.0855 C.3     1  UNL1        0.0431
     31 C           0.8393   -0.0211   19.6695 C.2     1  UNL1        0.0504
     32 O          -0.2616    0.3607   20.6141 O.co2   1  UNL1       -0.5492
     33 O           0.9113    0.6063   18.3089 O.co2   1  UNL1       -0.5492
@<TRIPOS>UNITY_ATOM_ATTR
32 1
charge -1
@<TRIPOS>BOND
     1    25    26    1
     2    26    27    1
     3    26    24    1
     4    24    17    1
     5    17    18   ar
     6    18    19   ar
     7    19    20   ar
     8    20    12    1
     9    12    13   ar
    10    13    14   ar
    11    14     1    1
    12     1     2   ar
    13     2     3   ar
    14     3     4   ar
    15     4     5   ar
    16     5     6   ar
    17     6     7    1
    18     7     8    1
    19     8     9    1
    20     9    10    1
    21    10    28    1
    22    28    29    1
    23    29    30    1
    24    30    31    1
    25    31    32   ar
    26    31    33   ar
    27    10    11    1
    28    14    15   ar
    29    15    16   ar
    30    20    21   ar
    31    21    22   ar
    32    22    23    1
    33    22    17   ar
    34    16    12   ar
    35     6     1   ar
    36    11     5    1
@<TRIPOS>MOLECULE
*****
 33 36 0 0 0
SMALL
GASTEIGER

@<TRIPOS>ATOM
      1 C           1.6730    0.6585   30.7110 C.ar    1  UNL1        0.0727
      2 C           2.6877   -0.4441   30.7795 C.ar    1  UNL1        0.0062
      3 C           3.6574   -0.5010   31.9225 C.ar    1  UNL1        0.0000
      4 C           3.6124    0.5448   32.9970 C.ar    1  UNL1        0.0001
      5 C           2.5977    1.6474   32.9284 C.ar    1  UNL1        0.0280
      6 C           1.6281    1.7042   31.7854 C.ar    1  UNL1        0.1389
      7 O           0.5451    2.7094   31.5268 O.3     1  UNL1       -0.4741
      8 C           0.1644    3.9060   32.3474 C.3     1  UNL1        0.2226
      9 C           0.7726    4.3929   33.6290 C.3     1  UNL1        0.1203
     10 N           1.9118    3.8035   34.4069 N.3     1  UNL1       -0.2657
     11 C           2.7240    2.5817   34.0951 C.3     1  UNL1        0.1023
     12 C          -0.4428    1.4139   27.5458 C.ar    1  UNL1        0.2600
     13 N           0.6934    1.7374   28.4702 N.ar    1  UNL1       -0.1869
     14 C           0.7033    0.7154   29.5680 C.ar    1  UNL1        0.2065
     15 N          -0.4268   -0.2399   29.3222 N.ar    1  UNL1       -0.0555
     16 O          -1.1351    0.1918   28.0724 O.2     1  UNL1       -0.3324
     17 C          -1.5755    3.7067   23.8432 C.ar    1  UNL1        0.1488
     18 C          -2.3411    3.9127   25.1164 C.ar    1  UNL1        0.0379
     19 C          -1.9636    3.1485   26.3506 C.ar    1  UNL1        0.0079
     20 C          -0.8203    2.1782   26.3116 C.ar    1  UNL1        0.0571
     21 C          -0.0546    1.9722   25.0383 C.ar    1  UNL1        0.0192
     22 C          -0.4322    2.7364   23.8041 C.ar    1  UNL1        0.0917
     23 CL          0.3335    2.5304   22.5307 Cl      1  UNL1       -0.0791
     24 O          -1.9530    4.4710   22.6089 O.3     1  UNL1       -0.4783
     25 C          -4.4855    4.2397   22.0769 C.3     1  UNL1        0.0472
     26 C          -3.0535    3.9679   21.7225 C.3     1  UNL1        0.1662
     27 C          -2.7221    3.1930   20.4817 C.3     1  UNL1        0.0472
     28 C           2.2884    4.5324   35.6626 C.3     1  UNL1        0.0729
     29 C           1.5728    4.2336   36.9466 C.3     1  UNL1        0.0232
     30 C           2.2785    3.4932   38.0439 C.3     1  UNL1        0.0431
     31 C           1.5499    2.4434   38.8293 C.2     1  UNL1        0.0504
     32 O           2.3169    1.3489   39.5103 O.co2   1  UNL1       -0.5492
     33 O           0.0541    2.4881   38.9338 O.co2   1  UNL1       -0.5492
@<TRIPOS>UNITY_ATOM_ATTR
32 1
charge -1
@<TRIPOS>BOND
     1    25    26    1
     2    26    27    1
     3    26    24    1
     4    24    17    1
     5    17    18   ar
     6    18    19   ar
     7    19    20   ar
     8    20    12    1
     9    12    13   ar
    10    13    14   ar
    11    14     1    1
    12     1     2   ar
    13     2     3   ar
    14     3     4   ar
    15     4     5   ar
    16     5     6   ar
    17     6     7    1
    18     7     8    1
    19     8     9    1
    20     9    10    1
    21    10    28    1
    22    28    29    1
    23    29    30    1
    24    30    31    1
    25    31    32   ar
    26    31    33   ar
    27    10    11    1
    28    14    15   ar
    29    15    16   ar
    30    20    21   ar
    31    21    22   ar
    32    22    23    1
    33    22    17   ar
    34    16    12   ar
    35     6     1   ar
    36    11     5    1
@<TRIPOS>MOLECULE
*****
 33 36 0 0 0
SMALL
GASTEIGER

@<TRIPOS>ATOM
      1 C          -1.2758    3.1274   23.6559 C.ar    1  UNL1        0.0727
      2 C          -0.8395    3.0848   25.0905 C.ar    1  UNL1        0.0062
      3 C          -1.8366    3.3252   26.1851 C.ar    1  UNL1        0.0000
      4 C          -3.2699    3.6081   25.8451 C.ar    1  UNL1        0.0001
      5 C          -3.7061    3.6507   24.4105 C.ar    1  UNL1        0.0280
      6 C          -2.7091    3.4104   23.3161 C.ar    1  UNL1        0.1389
      7 O          -2.9313    3.4075   21.8325 O.3     1  UNL1       -0.4741
      8 C          -4.2056    3.6443   21.0773 C.3     1  UNL1        0.2226
      9 C          -5.5721    3.9423   21.6190 C.3     1  UNL1        0.1203
     10 N          -6.0022    4.0773   23.0496 N.3     1  UNL1       -0.2657
     11 C          -5.1717    3.9476   24.2920 C.3     1  UNL1        0.1023
     12 C           1.2539    1.7844   21.0364 C.ar    1  UNL1        0.2600
     13 N           0.3046    1.5601   22.1759 N.ar    1  UNL1       -0.1869
     14 C          -0.2787    2.8871   22.5614 C.ar    1  UNL1        0.2065
     15 N           0.3100    3.9317   21.6601 N.ar    1  UNL1       -0.0555
     16 O           1.2573    3.2502   20.7176 O.2     1  UNL1       -0.3324
     17 C           3.6679   -1.3834   18.9419 C.ar    1  UNL1        0.1488
     18 C           2.7249   -1.7654   20.0441 C.ar    1  UNL1        0.0379
     19 C           1.9202   -0.7095   20.7422 C.ar    1  UNL1        0.0079
     20 C           2.0586    0.7285   20.3382 C.ar    1  UNL1        0.0571
     21 C           3.0016    1.1104   19.2361 C.ar    1  UNL1        0.0192
     22 C           3.8063    0.0545   18.5379 C.ar    1  UNL1        0.0917
     23 CL          4.7494    0.4365   17.4357 Cl      1  UNL1       -0.0791
     24 O           4.4726   -2.4394   18.2438 O.3     1  UNL1       -0.4783
     25 C           6.1809   -3.4829   19.9000 C.3     1  UNL1        0.0472
     26 C           4.9814   -3.6240   19.0105 C.3     1  UNL1        0.1662
     27 C           4.2906   -4.9498   18.8877 C.3     1  UNL1        0.0472
     28 C          -7.4546    4.3824   23.2666 C.3     1  UNL1        0.0729
     29 C          -7.8880    5.1385   24.4876 C.3     1  UNL1        0.0232
     30 C          -9.3048    5.6156   24.6108 C.3     1  UNL1        0.0431
     31 C         -10.4240    4.6225   24.7162 C.2     1  UNL1        0.0504
     32 O         -10.2400    3.2272   24.1972 O.co2   1  UNL1       -0.5492
     33 O         -11.7272    5.0246   25.3407 O.co2   1  UNL1       -0.5492
@<TRIPOS>UNITY_ATOM_ATTR
32 1
charge -1
@<TRIPOS>BOND
     1    25    26    1
     2    26    27    1
     3    26    24    1
     4    24    17    1
     5    17    18   ar
     6    18    19   ar
     7    19    20   ar
     8    20    12    1
     9    12    13   ar
    10    13    14   ar
    11    14     1    1
    12     1     2   ar
    13     2     3   ar
    14     3     4   ar
    15     4     5   ar
    16     5     6   ar
    17     6     7    1
    18     7     8    1
    19     8     9    1
    20     9    10    1
    21    10    28    1
    22    28    29    1
    23    29    30    1
    24    30    31    1
    25    31    32   ar
    26    31    33   ar
    27    10    11    1
    28    14    15   ar
    29    15    16   ar
    30    20    21   ar
    31    21    22   ar
    32    22    23    1
    33    22    17   ar
    34    16    12   ar
    35     6     1   ar
    36    11     5    1
@<TRIPOS>MOLECULE
*****
 33 36 0 0 0
SMALL
GASTEIGER

@<TRIPOS>ATOM
      1 C           7.6765   -2.6167   31.9300 C.ar    1  UNL1        0.0727
      2 C           9.0551   -2.5863   32.5204 C.ar    1  UNL1        0.0062
      3 C           9.3571   -1.6762   33.6739 C.ar    1  UNL1        0.0000
      4 C           8.2805   -0.7964   34.2369 C.ar    1  UNL1        0.0001
      5 C           6.9019   -0.8268   33.6465 C.ar    1  UNL1        0.0280
      6 C           6.6000   -1.7369   32.4931 C.ar    1  UNL1        0.1389
      7 O           5.3034   -1.9210   31.7615 O.3     1  UNL1       -0.4741
      8 C           3.9886   -1.2404   32.0028 C.3     1  UNL1        0.2226
      9 C           3.6457   -0.2077   33.0351 C.3     1  UNL1        0.1203
     10 N           4.5328    0.3996   34.0812 N.3     1  UNL1       -0.2657
     11 C           5.9819    0.1240   34.3533 C.3     1  UNL1        0.1023
     12 C           7.0975   -4.3820   28.5221 C.ar    1  UNL1        0.2600
     13 N           7.5008   -3.1794   29.3229 N.ar    1  UNL1       -0.1869
     14 C           7.3745   -3.5268   30.7765 C.ar    1  UNL1        0.2065
     15 N           6.8931   -4.9441   30.8744 N.ar    1  UNL1       -0.0555
     16 O           6.7219   -5.4727   29.4810 O.2     1  UNL1       -0.3324
     17 C           7.0268   -4.6678   24.0318 C.ar    1  UNL1        0.1488
     18 C           6.5245   -3.4291   24.7124 C.ar    1  UNL1        0.0379
     19 C           6.5481   -3.3339   26.2092 C.ar    1  UNL1        0.0079
     20 C           7.0740   -4.4773   27.0253 C.ar    1  UNL1        0.0571
     21 C           7.5763   -5.7160   26.3447 C.ar    1  UNL1        0.0192
     22 C           7.5527   -5.8112   24.8479 C.ar    1  UNL1        0.0917
     23 CL          8.0550   -7.0500   24.1672 Cl      1  UNL1       -0.0791
     24 O           7.0033   -4.7631   22.5350 O.3     1  UNL1       -0.4783
     25 C           6.8744   -2.7331   20.9187 C.3     1  UNL1        0.0472
     26 C           6.1900   -3.7897   21.7342 C.3     1  UNL1        0.1662
     27 C           4.6924   -3.8729   21.7491 C.3     1  UNL1        0.0472
     28 C           3.8851    1.4168   34.9732 C.3     1  UNL1        0.0729
     29 C           4.4495    1.6866   36.3366 C.3     1  UNL1        0.0232
     30 C           4.0294    0.8418   37.5028 C.3     1  UNL1        0.0431
     31 C           2.8039    1.2038   38.2882 C.2     1  UNL1        0.0504
     32 O           1.7596    2.0932   37.6812 O.co2   1  UNL1       -0.5492
     33 O           2.6225    0.6763   39.6806 O.co2   1  UNL1       -0.5492
@<TRIPOS>UNITY_ATOM_ATTR
32 1
charge -1
@<TRIPOS>BOND
     1    25    26    1
     2    26    27    1
     3    26    24    1
     4    24    17    1
     5    17    18   ar
     6    18    19   ar
     7    19    20   ar
     8    20    12    1
     9    12    13   ar
    10    13    14   ar
    11    14     1    1
    12     1     2   ar
    13     2     3   ar
    14     3     4   ar
    15     4     5   ar
    16     5     6   ar
    17     6     7    1
    18     7     8    1
    19     8     9    1
    20     9    10    1
    21    10    28    1
    22    28    29    1
    23    29    30    1
    24    30    31    1
    25    31    32   ar
    26    31    33   ar
    27    10    11    1
    28    14    15   ar
    29    15    16   ar
    30    20    21   ar
    31    21    22   ar
    32    22    23    1
    33    22    17   ar
    34    16    12   ar
    35     6     1   ar
    36    11     5    1
@<TRIPOS>MOLECULE
*****
 33 36 0 0 0
SMALL
GASTEIGER

@<TRIPOS>ATOM
      1 C          -1.3275    3.1191   24.4816 C.ar    1  UNL1        0.0727
      2 C          -1.1287    3.3003   25.9573 C.ar    1  UNL1        0.0062
      3 C          -2.2706    3.7538   26.8178 C.ar    1  UNL1        0.0000
      4 C          -3.6113    4.0262   26.2025 C.ar    1  UNL1        0.0001
      5 C          -3.8100    3.8450   24.7268 C.ar    1  UNL1        0.0280
      6 C          -2.6681    3.3915   23.8664 C.ar    1  UNL1        0.1389
      7 O          -2.6510    3.1498   22.3860 O.3     1  UNL1       -0.4741
      8 C          -3.7717    3.3021   21.4006 C.3     1  UNL1        0.2226
      9 C          -5.1860    3.7335   21.6521 C.3     1  UNL1        0.1203
     10 N          -5.8292    4.1193   22.9511 N.3     1  UNL1       -0.2657
     11 C          -5.2168    4.1689   24.3195 C.3     1  UNL1        0.1023
     12 C           1.4869    1.2680   22.5533 C.ar    1  UNL1        0.2600
     13 N           0.3485    1.2669   23.5302 N.ar    1  UNL1       -0.1869
     14 C          -0.1856    2.6655   23.6211 C.ar    1  UNL1        0.2065
     15 N           0.6226    3.5312   22.7004 N.ar    1  UNL1       -0.0555
     16 O           1.6562    2.6674   22.0405 O.2     1  UNL1       -0.3324
     17 C           3.9595   -2.3004   21.3692 C.ar    1  UNL1        0.1488
     18 C           3.1574   -1.5674   20.3352 C.ar    1  UNL1        0.0379
     19 C           2.3331   -0.3779   20.7299 C.ar    1  UNL1        0.0079
     20 C           2.3111    0.0785   22.1586 C.ar    1  UNL1        0.0571
     21 C           3.1133   -0.6545   23.1926 C.ar    1  UNL1        0.0192
     22 C           3.9375   -1.8440   22.7979 C.ar    1  UNL1        0.0917
     23 CL          4.7397   -2.5771   23.8319 Cl      1  UNL1       -0.0791
     24 O           4.7838   -3.4899   20.9745 O.3     1  UNL1       -0.4783
     25 C           6.1736   -2.8377   18.8785 C.3     1  UNL1        0.0472
     26 C           5.1437   -3.7086   19.5348 C.3     1  UNL1        0.1662
     27 C           4.4736   -4.7981   18.7514 C.3     1  UNL1        0.0472
     28 C          -7.2761    4.5067   22.8712 C.3     1  UNL1        0.0729
     29 C          -7.6570    5.9286   22.5825 C.3     1  UNL1        0.0232
     30 C          -8.3464    6.7484   23.6326 C.3     1  UNL1        0.0431
     31 C          -9.0564    6.0706   24.7668 C.2     1  UNL1        0.0504
     32 O          -8.5658    6.2497   26.1729 O.co2   1  UNL1       -0.5492
     33 O         -10.2571    5.2136   24.4949 O.co2   1  UNL1       -0.5492
@<TRIPOS>UNITY_ATOM_ATTR
32 1
charge -1
@<TRIPOS>BOND
     1    25    26    1
     2    26    27    1
     3    26    24    1
     4    24    17    1
     5    17    18   ar
     6    18    19   ar
     7    19    20   ar
     8    20    12    1
     9    12    13   ar
    10    13    14   ar
    11    14     1    1
    12     1     2   ar
    13     2     3   ar
    14     3     4   ar
    15     4     5   ar
    16     5     6   ar
    17     6     7    1
    18     7     8    1
    19     8     9    1
    20     9    10    1
    21    10    28    1
    22    28    29    1
    23    29    30    1
    24    30    31    1
    25    31    32   ar
    26    31    33   ar
    27    10    11    1
    28    14    15   ar
    29    15    16   ar
    30    20    21   ar
    31    21    22   ar
    32    22    23    1
    33    22    17   ar
    34    16    12   ar
    35     6     1   ar
    36    11     5    1
@<TRIPOS>MOLECULE
*****
 33 36 0 0 0
SMALL
GASTEIGER

@<TRIPOS>ATOM
      1 C           2.3817    0.2864   30.1360 C.ar    1  UNL1        0.0727
      2 C           2.4603    0.8366   31.5293 C.ar    1  UNL1        0.0062
      3 C           3.6957    0.6208   32.3523 C.ar    1  UNL1        0.0000
      4 C           4.8524   -0.1452   31.7820 C.ar    1  UNL1        0.0001
      5 C           4.7738   -0.6954   30.3887 C.ar    1  UNL1        0.0280
      6 C           3.5385   -0.4796   29.5658 C.ar    1  UNL1        0.1389
      7 O           3.2548   -0.9392   28.1663 O.3     1  UNL1       -0.4741
      8 C           4.1367   -1.7281   27.2443 C.3     1  UNL1        0.2226
      9 C           5.5196   -2.2522   27.4939 C.3     1  UNL1        0.1203
     10 N           6.3626   -2.1169   28.7273 N.3     1  UNL1       -0.2657
     11 C           6.0307   -1.4241   30.0156 C.3     1  UNL1        0.1023
     12 C          -0.3872    1.3352   27.6264 C.ar    1  UNL1        0.2600
     13 N           1.0148    1.4395   28.1495 N.ar    1  UNL1       -0.1869
     14 C           1.1464    0.5022   29.3130 C.ar    1  UNL1        0.2065
     15 N          -0.1743   -0.1816   29.5092 N.ar    1  UNL1       -0.0555
     16 O          -1.1221    0.3333   28.4667 O.2     1  UNL1       -0.3324
     17 C          -2.0897    3.6257   24.1471 C.ar    1  UNL1        0.1488
     18 C          -0.8312    2.8277   23.9760 C.ar    1  UNL1        0.0379
     19 C          -0.2637    2.0642   25.1357 C.ar    1  UNL1        0.0079
     20 C          -0.9547    2.0987   26.4666 C.ar    1  UNL1        0.0571
     21 C          -2.2133    2.8967   26.6378 C.ar    1  UNL1        0.0192
     22 C          -2.7808    3.6602   25.4780 C.ar    1  UNL1        0.0917
     23 CL         -4.0394    4.4582   25.6491 Cl      1  UNL1       -0.0791
     24 O          -2.6572    4.3892   22.9874 O.3     1  UNL1       -0.4783
     25 C          -4.8930    3.2648   22.2896 C.3     1  UNL1        0.0472
     26 C          -3.4905    3.6824   21.9598 C.3     1  UNL1        0.1662
     27 C          -2.9215    3.3931   20.6024 C.3     1  UNL1        0.0472
     28 C           7.7165   -2.7595   28.6639 C.3     1  UNL1        0.0729
     29 C           8.1099   -3.7825   29.6880 C.3     1  UNL1        0.0232
     30 C           7.1474   -4.8667   30.0732 C.3     1  UNL1        0.0431
     31 C           6.8162   -5.0969   31.5179 C.2     1  UNL1        0.0504
     32 O           6.8428   -6.4868   32.0813 O.co2   1  UNL1       -0.5492
     33 O           6.4583   -3.9371   32.3994 O.co2   1  UNL1       -0.5492
@<TRIPOS>UNITY_ATOM_ATTR
32 1
charge -1
@<TRIPOS>BOND
     1    25    26    1
     2    26    27    1
     3    26    24    1
     4    24    17    1
     5    17    18   ar
     6    18    19   ar
     7    19    20   ar
     8    20    12    1
     9    12    13   ar
    10    13    14   ar
    11    14     1    1
    12     1     2   ar
    13     2     3   ar
    14     3     4   ar
    15     4     5   ar
    16     5     6   ar
    17     6     7    1
    18     7     8    1
    19     8     9    1
    20     9    10    1
    21    10    28    1
    22    28    29    1
    23    29    30    1
    24    30    31    1
    25    31    32   ar
    26    31    33   ar
    27    10    11    1
    28    14    15   ar
    29    15    16   ar
    30    20    21   ar
    31    21    22   ar
    32    22    23    1
    33    22    17   ar
    34    16    12   ar
    35     6     1   ar
    36    11     5    1
