@<TRIPOS>MOLECULE
*****
 27 29 0 0 0
SMALL
GASTEIGER

@<TRIPOS>ATOM
      1 C          -6.2787  -18.6155   22.0822 C.ar    1  UNL1        0.1227
      2 C          -6.9593  -19.9520   22.0629 C.ar    1  UNL1        0.1421
      3 O          -6.3370  -21.0998   21.3243 O.3     1  UNL1       -0.5052
      4 C          -8.2620  -20.1408   22.7820 C.ar    1  UNL1        0.0517
      5 C          -8.8842  -18.9929   23.5205 C.ar    1  UNL1        0.0655
      6 N          -8.2036  -17.6564   23.5399 N.ar    1  UNL1       -0.2144
      7 N          -8.5742  -16.3506   24.1782 N.ar    1  UNL1       -0.1413
      8 C          -7.5004  -15.3548   23.8536 C.ar    1  UNL1        0.2213
      9 N          -6.4662  -16.0451   23.0146 N.ar    1  UNL1       -0.2032
     10 C          -6.9008  -17.4676   22.8207 C.ar    1  UNL1        0.1725
     11 H          -5.5232  -20.9819   20.8751 H       1  UNL1        0.2922
     12 N          -3.7806  -17.9018   22.1018 N.am    1  UNL1       -0.2958
     13 C          -4.9759  -18.4267   21.3631 C.2     1  UNL1        0.2521
     14 O          -4.8684  -18.7629   19.9051 O.2     1  UNL1       -0.2699
     15 H          -3.8511  -17.6811   23.0587 H       1  UNL1        0.1501
     16 C          -2.4778  -17.7131   21.3826 C.3     1  UNL1        0.1318
     17 O          -1.9601  -20.2538   21.5470 O.co2   1  UNL1       -0.5474
     18 C          -1.6820  -18.9075   20.9467 C.2     1  UNL1        0.0702
     19 O          -0.6080  -18.7557   19.9105 O.co2   1  UNL1       -0.5474
     20 C         -10.1870  -19.1817   24.2396 C.3     1  UNL1        0.0507
     21 C         -11.4793  -19.1125   23.4812 C.3     1  UNL1        0.0326
     22 C         -11.5847  -18.2532   22.2562 C.ar    1  UNL1       -0.0218
     23 C         -12.1715  -16.8762   22.3542 C.ar    1  UNL1       -0.0043
     24 C         -12.2769  -16.0170   21.1292 C.ar    1  UNL1       -0.0003
     25 C         -11.7955  -16.5348   19.8061 C.ar    1  UNL1       -0.0000
     26 C         -11.2087  -17.9117   19.7082 C.ar    1  UNL1       -0.0003
     27 C         -11.1033  -18.7709   20.9332 C.ar    1  UNL1       -0.0043
@<TRIPOS>UNITY_ATOM_ATTR
17 1
charge -1
@<TRIPOS>BOND
     1    17    18   ar
     2    18    19   ar
     3    18    16    1
     4    16    12    1
     5    12    13   am
     6    13    14    2
     7    13     1    1
     8     1     2   ar
     9     2     3    1
    10     2     4   ar
    11     4     5   ar
    12     5    20    1
    13    20    21    1
    14    21    22    1
    15    22    23   ar
    16    23    24   ar
    17    24    25   ar
    18    25    26   ar
    19    26    27   ar
    20     5     6   ar
    21     6     7   ar
    22     7     8   ar
    23     8     9   ar
    24     9    10   ar
    25    10     1   ar
    26    27    22   ar
    27    10     6   ar
    28    12    15    1
    29     3    11    1
@<TRIPOS>MOLECULE
*****
 27 29 0 0 0
SMALL
GASTEIGER

@<TRIPOS>ATOM
      1 C          -5.7230  -18.9744   21.2941 C.ar    1  UNL1        0.1227
      2 C          -6.0866  -20.0785   20.3462 C.ar    1  UNL1        0.1421
      3 O          -5.0475  -21.0723   19.9185 O.3     1  UNL1       -0.5052
      4 C          -7.4891  -20.1889   19.8260 C.ar    1  UNL1        0.0517
      5 C          -8.5281  -19.1951   20.2536 C.ar    1  UNL1        0.0655
      6 N          -8.1645  -18.0909   21.2016 N.ar    1  UNL1       -0.2144
      7 N          -8.9688  -16.9731   21.7962 N.ar    1  UNL1       -0.1413
      8 C          -8.0633  -16.1718   22.6839 C.ar    1  UNL1        0.2213
      9 N          -6.6994  -16.7945   22.6380 N.ar    1  UNL1       -0.2032
     10 C          -6.7619  -17.9806   21.7218 C.ar    1  UNL1        0.1725
     11 H          -4.1714  -21.0034   20.2435 H       1  UNL1        0.2922
     12 N          -3.1728  -18.7393   20.8566 N.am    1  UNL1       -0.2958
     13 C          -4.3204  -18.8640   21.8144 C.2     1  UNL1        0.2521
     14 O          -4.0654  -18.8784   23.2926 O.2     1  UNL1       -0.2699
     15 H          -3.3401  -18.7298   19.8864 H       1  UNL1        0.1501
     16 C          -1.7703  -18.6289   21.3769 C.3     1  UNL1        0.1318
     17 O          -0.5976  -16.5280   20.3964 O.co2   1  UNL1       -0.5474
     18 C          -0.6990  -18.0194   20.5220 C.2     1  UNL1        0.0702
     19 O           0.2709  -18.9011   19.7927 O.co2   1  UNL1       -0.5474
     20 C          -9.9307  -19.3055   19.7333 C.3     1  UNL1        0.0507
     21 C         -10.9801  -20.0021   20.5478 C.3     1  UNL1        0.0326
     22 C         -11.3235  -19.4975   21.9180 C.ar    1  UNL1       -0.0218
     23 C         -12.3447  -18.4112   22.0830 C.ar    1  UNL1       -0.0043
     24 C         -12.6881  -17.9066   23.4532 C.ar    1  UNL1       -0.0003
     25 C         -12.0103  -18.4883   24.6584 C.ar    1  UNL1       -0.0000
     26 C         -10.9892  -19.5745   24.4934 C.ar    1  UNL1       -0.0003
     27 C         -10.6458  -20.0791   23.1231 C.ar    1  UNL1       -0.0043
@<TRIPOS>UNITY_ATOM_ATTR
17 1
charge -1
@<TRIPOS>BOND
     1    17    18   ar
     2    18    19   ar
     3    18    16    1
     4    16    12    1
     5    12    13   am
     6    13    14    2
     7    13     1    1
     8     1     2   ar
     9     2     3    1
    10     2     4   ar
    11     4     5   ar
    12     5    20    1
    13    20    21    1
    14    21    22    1
    15    22    23   ar
    16    23    24   ar
    17    24    25   ar
    18    25    26   ar
    19    26    27   ar
    20     5     6   ar
    21     6     7   ar
    22     7     8   ar
    23     8     9   ar
    24     9    10   ar
    25    10     1   ar
    26    27    22   ar
    27    10     6   ar
    28    12    15    1
    29     3    11    1
@<TRIPOS>MOLECULE
*****
 27 29 0 0 0
SMALL
GASTEIGER

@<TRIPOS>ATOM
      1 C          -7.9184  -16.4157   22.5569 C.ar    1  UNL1        0.1227
      2 C          -7.1126  -15.5279   23.4582 C.ar    1  UNL1        0.1421
      3 O          -7.6497  -14.1883   23.8671 O.3     1  UNL1       -0.5052
      4 C          -5.7697  -15.9796   23.9507 C.ar    1  UNL1        0.0517
      5 C          -5.2326  -17.3191   23.5419 C.ar    1  UNL1        0.0655
      6 N          -6.0384  -18.2069   22.6405 N.ar    1  UNL1       -0.2144
      7 N          -5.7709  -19.5695   22.0733 N.ar    1  UNL1       -0.1413
      8 C          -6.9485  -19.9599   21.2302 C.ar    1  UNL1        0.2213
      9 N          -7.9438  -18.8386   21.2764 N.ar    1  UNL1       -0.2032
     10 C          -7.3813  -17.7552   22.1480 C.ar    1  UNL1        0.1725
     11 H          -8.4886  -13.9062   23.5594 H       1  UNL1        0.2922
     12 N         -10.5034  -16.3542   22.8091 N.am    1  UNL1       -0.2958
     13 C          -9.2613  -15.9639   22.0644 C.2     1  UNL1        0.2521
     14 O          -9.3620  -15.1219   20.8270 O.2     1  UNL1       -0.2699
     15 H         -10.4374  -16.9068   23.6212 H       1  UNL1        0.1501
     16 C         -11.8463  -15.9024   22.3166 C.3     1  UNL1        0.1318
     17 O         -13.1417  -17.9112   21.2983 O.co2   1  UNL1       -0.5474
     18 C         -12.4771  -16.5764   21.1343 C.2     1  UNL1        0.0702
     19 O         -12.4434  -15.9158   19.7880 O.co2   1  UNL1       -0.5474
     20 C          -3.8896  -17.7708   24.0344 C.3     1  UNL1        0.0507
     21 C          -2.6461  -17.3649   23.3003 C.3     1  UNL1        0.0326
     22 C          -2.4593  -17.7609   21.8656 C.ar    1  UNL1       -0.0218
     23 C          -2.7266  -19.1730   21.4364 C.ar    1  UNL1       -0.0043
     24 C          -2.5398  -19.5690   20.0017 C.ar    1  UNL1       -0.0003
     25 C          -2.0856  -18.5526   18.9962 C.ar    1  UNL1       -0.0000
     26 C          -1.8183  -17.1404   19.4254 C.ar    1  UNL1       -0.0003
     27 C          -2.0052  -16.7446   20.8601 C.ar    1  UNL1       -0.0043
@<TRIPOS>UNITY_ATOM_ATTR
17 1
charge -1
@<TRIPOS>BOND
     1    17    18   ar
     2    18    19   ar
     3    18    16    1
     4    16    12    1
     5    12    13   am
     6    13    14    2
     7    13     1    1
     8     1     2   ar
     9     2     3    1
    10     2     4   ar
    11     4     5   ar
    12     5    20    1
    13    20    21    1
    14    21    22    1
    15    22    23   ar
    16    23    24   ar
    17    24    25   ar
    18    25    26   ar
    19    26    27   ar
    20     5     6   ar
    21     6     7   ar
    22     7     8   ar
    23     8     9   ar
    24     9    10   ar
    25    10     1   ar
    26    27    22   ar
    27    10     6   ar
    28    12    15    1
    29     3    11    1
@<TRIPOS>MOLECULE
*****
 27 29 0 0 0
SMALL
GASTEIGER

@<TRIPOS>ATOM
      1 C          -8.1223  -17.4891   22.1453 C.ar    1  UNL1        0.1227
      2 C          -7.5466  -18.6941   21.4624 C.ar    1  UNL1        0.1421
      3 O          -8.3876  -19.4881   20.5071 O.3     1  UNL1       -0.5052
      4 C          -6.1301  -19.1053   21.7347 C.ar    1  UNL1        0.0517
      5 C          -5.2891  -18.3113   22.6900 C.ar    1  UNL1        0.0655
      6 N          -5.8648  -17.1062   23.3728 N.ar    1  UNL1       -0.2144
      7 N          -5.2813  -16.1356   24.3564 N.ar    1  UNL1       -0.1413
      8 C          -6.3374  -15.1246   24.6920 C.ar    1  UNL1        0.2213
      9 N          -7.5735  -15.4704   23.9158 N.ar    1  UNL1       -0.2032
     10 C          -7.2814  -16.6951   23.1005 C.ar    1  UNL1        0.1725
     11 H          -9.2725  -19.2313   20.3371 H       1  UNL1        0.2922
     12 N         -10.4241  -16.6430   23.0030 N.am    1  UNL1       -0.2958
     13 C          -9.5389  -17.0779   21.8729 C.2     1  UNL1        0.2521
     14 O         -10.0704  -17.1018   20.4703 O.2     1  UNL1       -0.2699
     15 H         -10.0754  -16.6273   23.9236 H       1  UNL1        0.1501
     16 C         -11.8408  -16.2319   22.7306 C.3     1  UNL1        0.1318
     17 O         -13.1778  -17.8533   21.2030 O.co2   1  UNL1       -0.5474
     18 C         -12.9048  -17.2753   22.5600 C.2     1  UNL1        0.0702
     19 O         -13.6960  -17.7406   23.7464 O.co2   1  UNL1       -0.5474
     20 C          -3.8724  -18.7225   22.9623 C.3     1  UNL1        0.0507
     21 C          -3.1275  -19.5551   21.9613 C.3     1  UNL1        0.0326
     22 C          -2.4427  -18.8973   20.8001 C.ar    1  UNL1       -0.0218
     23 C          -3.1918  -18.6636   19.5218 C.ar    1  UNL1       -0.0043
     24 C          -2.5069  -18.0059   18.3606 C.ar    1  UNL1       -0.0003
     25 C          -1.0728  -17.5819   18.4778 C.ar    1  UNL1       -0.0000
     26 C          -0.3236  -17.8156   19.7561 C.ar    1  UNL1       -0.0003
     27 C          -1.0086  -18.4733   20.9173 C.ar    1  UNL1       -0.0043
@<TRIPOS>UNITY_ATOM_ATTR
17 1
charge -1
@<TRIPOS>BOND
     1    17    18   ar
     2    18    19   ar
     3    18    16    1
     4    16    12    1
     5    12    13   am
     6    13    14    2
     7    13     1    1
     8     1     2   ar
     9     2     3    1
    10     2     4   ar
    11     4     5   ar
    12     5    20    1
    13    20    21    1
    14    21    22    1
    15    22    23   ar
    16    23    24   ar
    17    24    25   ar
    18    25    26   ar
    19    26    27   ar
    20     5     6   ar
    21     6     7   ar
    22     7     8   ar
    23     8     9   ar
    24     9    10   ar
    25    10     1   ar
    26    27    22   ar
    27    10     6   ar
    28    12    15    1
    29     3    11    1
@<TRIPOS>MOLECULE
*****
 27 29 0 0 0
SMALL
GASTEIGER

@<TRIPOS>ATOM
      1 C          -4.6420  -18.3822   22.0774 C.ar    1  UNL1        0.1227
      2 C          -4.9630  -19.7104   21.4588 C.ar    1  UNL1        0.1421
      3 O          -3.8871  -20.4964   20.7697 O.3     1  UNL1       -0.5052
      4 C          -6.3597  -20.2527   21.5292 C.ar    1  UNL1        0.0517
      5 C          -7.4356  -19.4667   22.2183 C.ar    1  UNL1        0.0655
      6 N          -7.1146  -18.1384   22.8369 N.ar    1  UNL1       -0.2144
      7 N          -7.9608  -17.1451   23.5767 N.ar    1  UNL1       -0.1413
      8 C          -7.0869  -15.9889   23.9635 C.ar    1  UNL1        0.2213
      9 N          -5.7007  -16.2677   23.4627 N.ar    1  UNL1       -0.2032
     10 C          -5.7179  -17.5962   22.7664 C.ar    1  UNL1        0.1725
     11 H          -3.0146  -20.1576   20.7257 H       1  UNL1        0.2922
     12 N          -2.7018  -17.3344   20.7034 N.am    1  UNL1       -0.2958
     13 C          -3.2453  -17.8399   22.0069 C.2     1  UNL1        0.2521
     14 O          -2.3919  -17.8031   23.2401 O.2     1  UNL1       -0.2699
     15 H          -3.2619  -17.3586   19.8941 H       1  UNL1        0.1501
     16 C          -1.3050  -16.7922   20.6330 C.3     1  UNL1        0.1318
     17 O          -0.4506  -19.1009   19.8022 O.co2   1  UNL1       -0.5474
     18 C          -0.1812  -17.6723   20.1721 C.2     1  UNL1        0.0702
     19 O           1.2120  -17.1239   20.0810 O.co2   1  UNL1       -0.5474
     20 C          -8.8324  -20.0090   22.2887 C.3     1  UNL1        0.0507
     21 C          -9.8733  -19.5281   21.3217 C.3     1  UNL1        0.0326
     22 C         -10.8194  -18.4346   21.7207 C.ar    1  UNL1       -0.0218
     23 C         -10.7341  -17.0908   21.0598 C.ar    1  UNL1       -0.0043
     24 C         -11.6802  -15.9973   21.4588 C.ar    1  UNL1       -0.0003
     25 C         -12.7118  -16.2477   22.5188 C.ar    1  UNL1       -0.0000
     26 C         -12.7971  -17.5916   23.1796 C.ar    1  UNL1       -0.0003
     27 C         -11.8509  -18.6850   22.7806 C.ar    1  UNL1       -0.0043
@<TRIPOS>UNITY_ATOM_ATTR
17 1
charge -1
@<TRIPOS>BOND
     1    17    18   ar
     2    18    19   ar
     3    18    16    1
     4    16    12    1
     5    12    13   am
     6    13    14    2
     7    13     1    1
     8     1     2   ar
     9     2     3    1
    10     2     4   ar
    11     4     5   ar
    12     5    20    1
    13    20    21    1
    14    21    22    1
    15    22    23   ar
    16    23    24   ar
    17    24    25   ar
    18    25    26   ar
    19    26    27   ar
    20     5     6   ar
    21     6     7   ar
    22     7     8   ar
    23     8     9   ar
    24     9    10   ar
    25    10     1   ar
    26    27    22   ar
    27    10     6   ar
    28    12    15    1
    29     3    11    1
@<TRIPOS>MOLECULE
*****
 27 29 0 0 0
SMALL
GASTEIGER

@<TRIPOS>ATOM
      1 C          -8.0562  -17.5657   22.2135 C.ar    1  UNL1        0.1227
      2 C          -7.2972  -18.7367   21.6633 C.ar    1  UNL1        0.1421
      3 O          -7.9639  -19.6797   20.7060 O.3     1  UNL1       -0.5052
      4 C          -5.8717  -18.9647   22.0704 C.ar    1  UNL1        0.0517
      5 C          -5.2050  -18.0217   23.0277 C.ar    1  UNL1        0.0655
      6 N          -5.9640  -16.8507   23.5778 N.ar    1  UNL1       -0.2144
      7 N          -5.5741  -15.7603   24.5313 N.ar    1  UNL1       -0.1413
      8 C          -6.7587  -14.8585   24.7135 C.ar    1  UNL1        0.2213
      9 N          -7.8808  -15.3914   23.8727 N.ar    1  UNL1       -0.2032
     10 C          -7.3895  -16.6227   23.1707 C.ar    1  UNL1        0.1725
     11 H          -8.8544  -19.5372   20.4518 H       1  UNL1        0.2922
     12 N          -9.8943  -17.5336   20.3776 N.am    1  UNL1       -0.2958
     13 C          -9.4818  -17.3377   21.8064 C.2     1  UNL1        0.2521
     14 O         -10.4949  -16.9137   22.8282 O.2     1  UNL1       -0.2699
     15 H          -9.2294  -17.8118   19.7070 H       1  UNL1        0.1501
     16 C         -11.3199  -17.3056   19.9706 C.3     1  UNL1        0.1318
     17 O         -13.2044  -15.5532   19.6125 O.co2   1  UNL1       -0.5474
     18 C         -11.7606  -15.9474   19.5111 C.2     1  UNL1        0.0702
     19 O         -10.7575  -14.9834   18.9503 O.co2   1  UNL1       -0.5474
     20 C          -3.7794  -18.2497   23.4347 C.3     1  UNL1        0.0507
     21 C          -2.6906  -17.3873   22.8684 C.3     1  UNL1        0.0326
     22 C          -2.2301  -17.5920   21.4556 C.ar    1  UNL1       -0.0218
     23 C          -2.9872  -18.5135   20.5460 C.ar    1  UNL1       -0.0043
     24 C          -2.5267  -18.7182   19.1332 C.ar    1  UNL1       -0.0003
     25 C          -1.3090  -18.0013   18.6300 C.ar    1  UNL1       -0.0000
     26 C          -0.5518  -17.0797   19.5396 C.ar    1  UNL1       -0.0003
     27 C          -1.0124  -16.8751   20.9524 C.ar    1  UNL1       -0.0043
@<TRIPOS>UNITY_ATOM_ATTR
17 1
charge -1
@<TRIPOS>BOND
     1    17    18   ar
     2    18    19   ar
     3    18    16    1
     4    16    12    1
     5    12    13   am
     6    13    14    2
     7    13     1    1
     8     1     2   ar
     9     2     3    1
    10     2     4   ar
    11     4     5   ar
    12     5    20    1
    13    20    21    1
    14    21    22    1
    15    22    23   ar
    16    23    24   ar
    17    24    25   ar
    18    25    26   ar
    19    26    27   ar
    20     5     6   ar
    21     6     7   ar
    22     7     8   ar
    23     8     9   ar
    24     9    10   ar
    25    10     1   ar
    26    27    22   ar
    27    10     6   ar
    28    12    15    1
    29     3    11    1
@<TRIPOS>MOLECULE
*****
 27 29 0 0 0
SMALL
GASTEIGER

@<TRIPOS>ATOM
      1 C          -5.4311  -18.5808   22.0658 C.ar    1  UNL1        0.1227
      2 C          -6.6533  -19.4497   22.0316 C.ar    1  UNL1        0.1421
      3 O          -6.6453  -20.7246   21.2412 O.3     1  UNL1       -0.5052
      4 C          -7.8835  -19.0438   22.7876 C.ar    1  UNL1        0.0517
      5 C          -7.8916  -17.7689   23.5780 C.ar    1  UNL1        0.0655
      6 N          -6.6694  -16.9000   23.6122 N.ar    1  UNL1       -0.2144
      7 N          -6.3829  -15.5974   24.2987 N.ar    1  UNL1       -0.1413
      8 C          -4.9755  -15.1983   23.9668 C.ar    1  UNL1        0.2213
      9 N          -4.3923  -16.2543   23.0752 N.ar    1  UNL1       -0.2032
     10 C          -5.4391  -17.3060   22.8561 C.ar    1  UNL1        0.1725
     11 H          -5.8768  -20.9782   20.7689 H       1  UNL1        0.2922
     12 N          -3.6242  -18.0729   20.2693 N.am    1  UNL1       -0.2958
     13 C          -4.2009  -18.9868   21.3097 C.2     1  UNL1        0.2521
     14 O          -3.5473  -20.3067   21.5939 O.2     1  UNL1       -0.2699
     15 H          -4.0532  -17.2067   20.0828 H       1  UNL1        0.1501
     16 C          -2.3940  -18.4790   19.5132 C.3     1  UNL1        0.1318
     17 O           0.1644  -18.8417   19.7840 O.co2   1  UNL1       -0.5474
     18 C          -1.0487  -17.9737   19.9431 C.2     1  UNL1        0.0702
     19 O          -0.9163  -16.6006   20.5321 O.co2   1  UNL1       -0.5474
     20 C          -9.1219  -17.3629   24.3341 C.3     1  UNL1        0.0507
     21 C         -10.1259  -16.4483   23.6974 C.3     1  UNL1        0.0326
     22 C         -10.6619  -16.7580   22.3311 C.ar    1  UNL1       -0.0218
     23 C         -10.5729  -15.7322   21.2403 C.ar    1  UNL1       -0.0043
     24 C         -11.1089  -16.0419   19.8740 C.ar    1  UNL1       -0.0003
     25 C         -11.7340  -17.3774   19.5985 C.ar    1  UNL1       -0.0000
     26 C         -11.8230  -18.4032   20.6893 C.ar    1  UNL1       -0.0003
     27 C         -11.2869  -18.0934   22.0556 C.ar    1  UNL1       -0.0043
@<TRIPOS>UNITY_ATOM_ATTR
17 1
charge -1
@<TRIPOS>BOND
     1    17    18   ar
     2    18    19   ar
     3    18    16    1
     4    16    12    1
     5    12    13   am
     6    13    14    2
     7    13     1    1
     8     1     2   ar
     9     2     3    1
    10     2     4   ar
    11     4     5   ar
    12     5    20    1
    13    20    21    1
    14    21    22    1
    15    22    23   ar
    16    23    24   ar
    17    24    25   ar
    18    25    26   ar
    19    26    27   ar
    20     5     6   ar
    21     6     7   ar
    22     7     8   ar
    23     8     9   ar
    24     9    10   ar
    25    10     1   ar
    26    27    22   ar
    27    10     6   ar
    28    12    15    1
    29     3    11    1
@<TRIPOS>MOLECULE
*****
 27 29 0 0 0
SMALL
GASTEIGER

@<TRIPOS>ATOM
      1 C          -8.7878  -18.5833   20.9603 C.ar    1  UNL1        0.1227
      2 C          -7.6368  -18.3948   21.9036 C.ar    1  UNL1        0.1421
      3 O          -7.7223  -17.3700   22.9957 O.3     1  UNL1       -0.5052
      4 C          -6.4005  -19.2309   21.7547 C.ar    1  UNL1        0.0517
      5 C          -6.3150  -20.2556   20.6626 C.ar    1  UNL1        0.0655
      6 N          -7.4660  -20.4441   19.7193 N.ar    1  UNL1       -0.2144
      7 N          -7.6690  -21.3687   18.5557 N.ar    1  UNL1       -0.1413
      8 C          -9.0308  -21.1039   17.9855 C.ar    1  UNL1        0.2213
      9 N          -9.6695  -20.0157   18.7966 N.ar    1  UNL1       -0.2032
     10 C          -8.7024  -19.6079   19.8682 C.ar    1  UNL1        0.1725
     11 H          -8.4947  -16.8477   23.0887 H       1  UNL1        0.2922
     12 N         -11.3703  -18.4050   21.1819 N.am    1  UNL1       -0.2958
     13 C         -10.0242  -17.7471   21.1092 C.2     1  UNL1        0.2521
     14 O          -9.9145  -16.2530   21.1854 O.2     1  UNL1       -0.2699
     15 H         -11.4423  -19.3856   21.1320 H       1  UNL1        0.1501
     16 C         -12.6067  -17.5687   21.3308 C.3     1  UNL1        0.1318
     17 O         -13.6624  -17.7101   23.7006 O.co2   1  UNL1       -0.5474
     18 C         -12.9266  -16.9315   22.6505 C.2     1  UNL1        0.0702
     19 O         -12.5108  -15.5158   22.9202 O.co2   1  UNL1       -0.5474
     20 C          -5.0786  -21.0917   20.5137 C.3     1  UNL1        0.0507
     21 C          -3.9006  -20.5598   19.7526 C.3     1  UNL1        0.0326
     22 C          -3.1771  -19.3418   20.2456 C.ar    1  UNL1       -0.0218
     23 C          -2.8359  -19.2097   21.7003 C.ar    1  UNL1       -0.0043
     24 C          -2.1124  -17.9917   22.1933 C.ar    1  UNL1       -0.0003
     25 C          -1.7300  -16.9059   21.2316 C.ar    1  UNL1       -0.0000
     26 C          -2.0711  -17.0380   19.7769 C.ar    1  UNL1       -0.0003
     27 C          -2.7947  -18.2560   19.2840 C.ar    1  UNL1       -0.0043
@<TRIPOS>UNITY_ATOM_ATTR
17 1
charge -1
@<TRIPOS>BOND
     1    17    18   ar
     2    18    19   ar
     3    18    16    1
     4    16    12    1
     5    12    13   am
     6    13    14    2
     7    13     1    1
     8     1     2   ar
     9     2     3    1
    10     2     4   ar
    11     4     5   ar
    12     5    20    1
    13    20    21    1
    14    21    22    1
    15    22    23   ar
    16    23    24   ar
    17    24    25   ar
    18    25    26   ar
    19    26    27   ar
    20     5     6   ar
    21     6     7   ar
    22     7     8   ar
    23     8     9   ar
    24     9    10   ar
    25    10     1   ar
    26    27    22   ar
    27    10     6   ar
    28    12    15    1
    29     3    11    1
@<TRIPOS>MOLECULE
*****
 27 29 0 0 0
SMALL
GASTEIGER

@<TRIPOS>ATOM
      1 C          -8.6580  -18.9777   20.3184 C.ar    1  UNL1        0.1227
      2 C          -8.2998  -20.1173   19.4113 C.ar    1  UNL1        0.1421
      3 O          -9.3080  -20.6419   18.4322 O.3     1  UNL1       -0.5052
      4 C          -6.9337  -20.7324   19.4833 C.ar    1  UNL1        0.0517
      5 C          -5.9256  -20.2079   20.4624 C.ar    1  UNL1        0.0655
      6 N          -6.2837  -19.0682   21.3695 N.ar    1  UNL1       -0.2144
      7 N          -5.5046  -18.3445   22.4274 N.ar    1  UNL1       -0.1413
      8 C          -6.3894  -17.2820   23.0092 C.ar    1  UNL1        0.2213
      9 N          -7.7152  -17.3492   22.3109 N.ar    1  UNL1       -0.2032
     10 C          -7.6499  -18.4531   21.2975 C.ar    1  UNL1        0.1725
     11 H         -10.1614  -20.2576   18.3872 H       1  UNL1        0.2922
     12 N         -10.2128  -16.9132   20.5834 N.am    1  UNL1       -0.2958
     13 C         -10.0242  -18.3626   20.2464 C.2     1  UNL1        0.2521
     14 O         -11.2018  -19.1969   19.8374 O.2     1  UNL1       -0.2699
     15 H          -9.4400  -16.3655   20.8519 H       1  UNL1        0.1501
     16 C         -11.5791  -16.2981   20.5114 C.3     1  UNL1        0.1318
     17 O         -13.3998  -17.7503   21.6631 O.co2   1  UNL1       -0.5474
     18 C         -12.5567  -16.5100   21.6291 C.2     1  UNL1        0.0702
     19 O         -12.6914  -15.4817   22.7128 O.co2   1  UNL1       -0.5474
     20 C          -4.5594  -20.8230   20.5343 C.3     1  UNL1        0.0507
     21 C          -3.4619  -20.3185   19.6450 C.3     1  UNL1        0.0326
     22 C          -2.6783  -19.1013   20.0378 C.ar    1  UNL1       -0.0218
     23 C          -1.9370  -18.3179   18.9953 C.ar    1  UNL1       -0.0043
     24 C          -1.1533  -17.1006   19.3881 C.ar    1  UNL1       -0.0003
     25 C          -1.1110  -16.6668   20.8235 C.ar    1  UNL1       -0.0000
     26 C          -1.8523  -17.4502   21.8659 C.ar    1  UNL1       -0.0003
     27 C          -2.6359  -18.6674   21.4730 C.ar    1  UNL1       -0.0043
@<TRIPOS>UNITY_ATOM_ATTR
17 1
charge -1
@<TRIPOS>BOND
     1    17    18   ar
     2    18    19   ar
     3    18    16    1
     4    16    12    1
     5    12    13   am
     6    13    14    2
     7    13     1    1
     8     1     2   ar
     9     2     3    1
    10     2     4   ar
    11     4     5   ar
    12     5    20    1
    13    20    21    1
    14    21    22    1
    15    22    23   ar
    16    23    24   ar
    17    24    25   ar
    18    25    26   ar
    19    26    27   ar
    20     5     6   ar
    21     6     7   ar
    22     7     8   ar
    23     8     9   ar
    24     9    10   ar
    25    10     1   ar
    26    27    22   ar
    27    10     6   ar
    28    12    15    1
    29     3    11    1
