@<TRIPOS>MOLECULE
*****
 39 42 0 0 0
SMALL
GASTEIGER

@<TRIPOS>ATOM
      1 C           4.2364   -2.3078   21.3223 C.ar    1  UNL1        0.0445
      2 C           3.1833   -1.3794   21.8506 C.ar    1  UNL1        0.0224
      3 C           3.2159   -0.9481   23.2869 C.ar    1  UNL1        0.0430
      4 C           4.3016   -1.4451   24.1948 C.ar    1  UNL1        0.0125
      5 C           5.3546   -2.3735   23.6665 C.ar    1  UNL1        0.0512
      6 C           5.3220   -2.8048   22.2302 C.ar    1  UNL1       -0.0041
      7 C           6.3751   -3.7333   21.7019 C.3     1  UNL1        0.0325
      8 C           6.4403   -2.8705   24.5744 C.2     1  UNL1        0.2456
      9 O           7.7851   -2.2061   24.5691 O.2     1  UNL1       -0.2702
     10 N           6.1811   -4.0318   25.4876 N.am    1  UNL1       -0.3001
     11 H           5.2985   -4.4679   25.4911 H       1  UNL1        0.1498
     12 C           7.2668   -4.5289   26.3955 C.3     1  UNL1        0.1029
     13 C           7.0987   -4.4413   27.8836 C.3     1  UNL1        0.1164
     14 C           7.4175   -5.6268   28.7454 C.2     1  UNL1       -0.0330
     15 C           7.9044   -6.9000   28.1193 C.3     1  UNL1        0.0269
     16 C           7.2494   -5.5393   30.2334 C.2     1  UNL1        0.0042
     17 C           6.7625   -4.2661   30.8596 C.2     1  UNL1        0.0508
     18 C           6.5944   -4.1785   32.3475 C.3     1  UNL1        0.0493
     19 N           6.4437   -3.0805   29.9976 N.am    1  UNL1       -0.1833
     20 C           6.6118   -3.1681   28.5097 C.2     1  UNL1        0.2503
     21 O           6.2931   -1.9825   27.6478 O.2     1  UNL1       -0.2726
     22 C           2.1629   -0.0196   23.8153 C.1     1  UNL1       -0.0644
     23 C           1.1099    0.9088   24.3436 C.1     1  UNL1       -0.0873
     24 C           0.0568    1.8372   24.8720 C.3     1  UNL1        0.0672
     25 C          -0.5354    2.8860   23.9780 C.3     1  UNL1        0.0303
     26 C          -1.5884    3.8144   24.5063 C.3     1  UNL1        0.0731
     27 N          -2.0492    3.6940   25.9286 N.3     1  UNL1       -0.2714
     28 C          -3.1023    4.6224   26.4570 C.3     1  UNL1        0.0896
     29 C          -1.4570    2.6452   26.8227 C.3     1  UNL1        0.0731
     30 C          -0.4040    1.7168   26.2944 C.3     1  UNL1        0.0303
     31 N           4.2038   -2.7392   19.8860 N.pl3   1  UNL1       -0.3092
     32 C           4.7477   -1.8360   18.8191 C.3     1  UNL1        0.0778
     33 C           3.8234   -1.2364   17.8011 C.3     1  UNL1        0.0519
     34 C           4.3674   -0.3332   16.7341 C.3     1  UNL1        0.1439
     35 O           5.8355   -0.0295   16.6852 O.3     1  UNL1       -0.3537
     36 C           6.7597   -0.6290   17.7033 C.3     1  UNL1        0.1439
     37 C           6.2158   -1.5323   18.7702 C.3     1  UNL1        0.0519
     38 C           4.4776   -5.0892   18.8124 C.3     1  UNL1        0.0232
     39 C           3.6273   -4.0739   19.5167 C.3     1  UNL1        0.0908
@<TRIPOS>BOND
     1    38    39    1
     2    39    31    1
     3    31     1    1
     4     1     2   ar
     5     2     3   ar
     6     3    22    1
     7    22    23    3
     8    23    24    1
     9    24    25    1
    10    25    26    1
    11    26    27    1
    12    27    28    1
    13    27    29    1
    14    29    30    1
    15     3     4   ar
    16     4     5   ar
    17     5     8    1
    18     8     9    2
    19     8    10   am
    20    10    12    1
    21    12    13    1
    22    13    14    1
    23    14    15    1
    24    14    16    2
    25    16    17    1
    26    17    18    1
    27    17    19    2
    28    19    20    1
    29    20    21    2
    30     5     6   ar
    31     6     7    1
    32    31    32    1
    33    32    33    1
    34    33    34    1
    35    34    35    1
    36    35    36    1
    37    36    37    1
    38     6     1   ar
    39    37    32    1
    40    30    24    1
    41    20    13    1
    42    10    11    1
@<TRIPOS>MOLECULE
*****
 39 42 0 0 0
SMALL
GASTEIGER

@<TRIPOS>ATOM
      1 C           4.2231   -2.2986   21.3134 C.ar    1  UNL1        0.0445
      2 C           3.1707   -1.3669   21.8372 C.ar    1  UNL1        0.0224
      3 C           3.1996   -0.9340   23.2730 C.ar    1  UNL1        0.0430
      4 C           4.2809   -1.4328   24.1851 C.ar    1  UNL1        0.0125
      5 C           5.3334   -2.3644   23.6614 C.ar    1  UNL1        0.0512
      6 C           5.3044   -2.7974   22.2256 C.ar    1  UNL1       -0.0041
      7 C           6.3569   -3.7291   21.7017 C.3     1  UNL1        0.0325
      8 C           6.4147   -2.8632   24.5735 C.2     1  UNL1        0.2456
      9 O           7.7721   -2.2254   24.5464 O.2     1  UNL1       -0.2702
     10 N           6.1387   -3.9997   25.5127 N.am    1  UNL1       -0.3001
     11 H           5.2478   -4.4183   25.5305 H       1  UNL1        0.1498
     12 C           7.2200   -4.4984   26.4248 C.3     1  UNL1        0.1029
     13 C           7.0546   -4.3930   27.9120 C.3     1  UNL1        0.1164
     14 C           7.3659   -5.5711   28.7866 C.2     1  UNL1       -0.0330
     15 C           7.8426   -6.8547   28.1742 C.3     1  UNL1        0.0269
     16 C           7.2005   -5.4656   30.2738 C.2     1  UNL1        0.0042
     17 C           6.7238   -4.1820   30.8862 C.2     1  UNL1        0.0508
     18 C           6.5584   -4.0765   32.3733 C.3     1  UNL1        0.0493
     19 N           6.4126   -3.0038   30.0115 N.am    1  UNL1       -0.1833
     20 C           6.5780   -3.1093   28.5244 C.2     1  UNL1        0.2503
     21 O           6.2667   -1.9312   27.6496 O.2     1  UNL1       -0.2726
     22 C           2.1471   -0.0023   23.7968 C.1     1  UNL1       -0.0644
     23 C           1.0947    0.9294   24.3206 C.1     1  UNL1       -0.0873
     24 C           0.0423    1.8611   24.8445 C.3     1  UNL1        0.0672
     25 C          -0.4181    1.7484   26.2676 C.3     1  UNL1        0.0303
     26 C          -1.4705    2.6800   26.7914 C.3     1  UNL1        0.0731
     27 N          -2.0625    3.7244   25.8921 N.3     1  UNL1       -0.2714
     28 C          -3.1150    4.6561   26.4159 C.3     1  UNL1        0.0896
     29 C          -1.6021    3.8371   24.4690 C.3     1  UNL1        0.0731
     30 C          -0.5497    2.9055   23.9451 C.3     1  UNL1        0.0303
     31 N           4.1942   -2.7316   19.8775 N.pl3   1  UNL1       -0.3092
     32 C           4.7374   -1.8279   18.8106 C.3     1  UNL1        0.0778
     33 C           6.2051   -1.5223   18.7623 C.3     1  UNL1        0.0519
     34 C           6.7483   -0.6186   17.6953 C.3     1  UNL1        0.1439
     35 O           5.8238   -0.0206   16.6768 O.3     1  UNL1       -0.3537
     36 C           4.3560   -0.3262   16.7251 C.3     1  UNL1        0.1439
     37 C           3.8128   -1.2298   17.7920 C.3     1  UNL1        0.0519
     38 C           4.4857   -5.0940   18.8363 C.3     1  UNL1        0.0232
     39 C           3.6221   -4.0682   19.5086 C.3     1  UNL1        0.0908
@<TRIPOS>BOND
     1    38    39    1
     2    39    31    1
     3    31     1    1
     4     1     2   ar
     5     2     3   ar
     6     3    22    1
     7    22    23    3
     8    23    24    1
     9    24    25    1
    10    25    26    1
    11    26    27    1
    12    27    28    1
    13    27    29    1
    14    29    30    1
    15     3     4   ar
    16     4     5   ar
    17     5     8    1
    18     8     9    2
    19     8    10   am
    20    10    12    1
    21    12    13    1
    22    13    14    1
    23    14    15    1
    24    14    16    2
    25    16    17    1
    26    17    18    1
    27    17    19    2
    28    19    20    1
    29    20    21    2
    30     5     6   ar
    31     6     7    1
    32    31    32    1
    33    32    33    1
    34    33    34    1
    35    34    35    1
    36    35    36    1
    37    36    37    1
    38     6     1   ar
    39    37    32    1
    40    30    24    1
    41    20    13    1
    42    10    11    1
@<TRIPOS>MOLECULE
*****
 39 42 0 0 0
SMALL
GASTEIGER

@<TRIPOS>ATOM
      1 C          -0.0853    1.8013   27.1519 C.ar    1  UNL1        0.0445
      2 C          -1.4377    2.4299   26.9918 C.ar    1  UNL1        0.0224
      3 C          -1.8541    2.9848   25.6619 C.ar    1  UNL1        0.0430
      4 C          -0.9180    2.9110   24.4921 C.ar    1  UNL1        0.0125
      5 C           0.4344    2.2823   24.6522 C.ar    1  UNL1        0.0512
      6 C           0.8508    1.7274   25.9822 C.ar    1  UNL1       -0.0041
      7 C           2.2033    1.0987   26.1424 C.3     1  UNL1        0.0325
      8 C           1.3705    2.2085   23.4825 C.2     1  UNL1        0.2456
      9 O           2.3508    3.3165   23.2353 O.2     1  UNL1       -0.2702
     10 N           1.3262    1.0266   22.5599 N.am    1  UNL1       -0.3001
     11 H           0.6827    0.2994   22.7221 H       1  UNL1        0.1498
     12 C           2.2622    0.9528   21.3901 C.3     1  UNL1        0.1029
     13 C           2.8428   -0.3669   20.9763 C.3     1  UNL1        0.1164
     14 C           2.9188   -0.7302   19.5229 C.2     1  UNL1       -0.0330
     15 C           2.4142    0.2262   18.4834 C.3     1  UNL1        0.0269
     16 C           3.4994   -2.0500   19.1091 C.2     1  UNL1        0.0042
     17 C           4.0040   -3.0064   20.1486 C.2     1  UNL1        0.0508
     18 C           4.5846   -4.3261   19.7349 C.3     1  UNL1        0.0493
     19 N           3.9280   -2.6430   21.6020 N.am    1  UNL1       -0.1833
     20 C           3.3474   -1.3233   22.0158 C.2     1  UNL1        0.2503
     21 O           3.2714   -0.9600   23.4692 O.2     1  UNL1       -0.2726
     22 C          -3.2065    3.6135   25.5017 C.1     1  UNL1       -0.0644
     23 C          -4.5589    4.2422   25.3415 C.1     1  UNL1       -0.0873
     24 C          -5.9114    4.8709   25.1813 C.3     1  UNL1        0.0672
     25 C          -6.4396    5.7937   26.2393 C.3     1  UNL1        0.0303
     26 C          -7.7920    6.4224   26.0792 C.3     1  UNL1        0.0731
     27 N          -8.6162    6.1283   24.8610 N.3     1  UNL1       -0.2714
     28 C          -9.9687    6.7570   24.7008 C.3     1  UNL1        0.0896
     29 C          -8.0880    5.2055   23.8029 C.3     1  UNL1        0.0731
     30 C          -6.7356    4.5768   23.9630 C.3     1  UNL1        0.0303
     31 N           0.3312    1.2464   28.4819 N.pl3   1  UNL1       -0.3092
     32 C           1.0890    2.1064   29.4493 C.3     1  UNL1        0.0778
     33 C           1.2176    3.5802   29.2014 C.3     1  UNL1        0.0519
     34 C           1.9755    4.4402   30.1689 C.3     1  UNL1        0.1439
     35 O           2.6048    3.8264   31.3843 O.3     1  UNL1       -0.3537
     36 C           2.4763    2.3526   31.6322 C.3     1  UNL1        0.1439
     37 C           1.7185    1.4926   30.6648 C.3     1  UNL1        0.0519
     38 C          -1.4439   -0.6084   28.8806 C.3     1  UNL1        0.0232
     39 C          -0.0103   -0.1686   28.8444 C.3     1  UNL1        0.0908
@<TRIPOS>BOND
     1    38    39    1
     2    39    31    1
     3    31     1    1
     4     1     2   ar
     5     2     3   ar
     6     3    22    1
     7    22    23    3
     8    23    24    1
     9    24    25    1
    10    25    26    1
    11    26    27    1
    12    27    28    1
    13    27    29    1
    14    29    30    1
    15     3     4   ar
    16     4     5   ar
    17     5     8    1
    18     8     9    2
    19     8    10   am
    20    10    12    1
    21    12    13    1
    22    13    14    1
    23    14    15    1
    24    14    16    2
    25    16    17    1
    26    17    18    1
    27    17    19    2
    28    19    20    1
    29    20    21    2
    30     5     6   ar
    31     6     7    1
    32    31    32    1
    33    32    33    1
    34    33    34    1
    35    34    35    1
    36    35    36    1
    37    36    37    1
    38     6     1   ar
    39    37    32    1
    40    30    24    1
    41    20    13    1
    42    10    11    1
@<TRIPOS>MOLECULE
*****
 39 42 0 0 0
SMALL
GASTEIGER

@<TRIPOS>ATOM
      1 C           3.0001   -0.5761   20.7614 C.ar    1  UNL1        0.0445
      2 C           3.2355   -0.7658   22.2306 C.ar    1  UNL1        0.0224
      3 C           2.5490    0.1268   23.2215 C.ar    1  UNL1        0.0430
      4 C           1.6272    1.2091   22.7431 C.ar    1  UNL1        0.0125
      5 C           1.3918    1.3988   21.2739 C.ar    1  UNL1        0.0512
      6 C           2.0783    0.5062   20.2831 C.ar    1  UNL1       -0.0041
      7 C           1.8430    0.6959   18.8138 C.3     1  UNL1        0.0325
      8 C           0.4700    2.4812   20.7956 C.2     1  UNL1        0.2456
      9 O           1.0190    3.8311   20.4402 O.2     1  UNL1       -0.2702
     10 N          -1.0008    2.2136   20.6728 N.am    1  UNL1       -0.3001
     11 H          -1.3611    1.3276   20.9061 H       1  UNL1        0.1498
     12 C          -1.9226    3.2960   20.1945 C.3     1  UNL1        0.1029
     13 C          -3.2234    3.5396   20.9007 C.3     1  UNL1        0.1164
     14 C          -4.4859    3.7111   20.1092 C.2     1  UNL1       -0.0330
     15 C          -4.4477    3.6390   18.6114 C.3     1  UNL1        0.0269
     16 C          -5.7867    3.9547   20.8154 C.2     1  UNL1        0.0042
     17 C          -5.8249    4.0269   22.3132 C.2     1  UNL1        0.0508
     18 C          -7.1256    4.2705   23.0194 C.3     1  UNL1        0.0493
     19 N          -4.5623    3.8554   23.1047 N.am    1  UNL1       -0.1833
     20 C          -3.2616    3.6117   22.3985 C.2     1  UNL1        0.2503
     21 O          -1.9990    3.4402   23.1900 O.2     1  UNL1       -0.2726
     22 C           2.7843   -0.0629   24.6907 C.1     1  UNL1       -0.0644
     23 C           3.0197   -0.2526   26.1599 C.1     1  UNL1       -0.0873
     24 C           3.2550   -0.4422   27.6292 C.3     1  UNL1        0.0672
     25 C           2.1022   -0.3834   28.5871 C.3     1  UNL1        0.0303
     26 C           2.3374   -0.5731   30.0563 C.3     1  UNL1        0.0731
     27 N           3.7255   -0.8216   30.5676 N.3     1  UNL1       -0.2714
     28 C           3.9608   -1.0112   32.0369 C.3     1  UNL1        0.0896
     29 C           4.8783   -0.8803   29.6097 C.3     1  UNL1        0.0731
     30 C           4.6431   -0.6907   28.1405 C.3     1  UNL1        0.0303
     31 N           3.6866   -1.4688   19.7704 N.pl3   1  UNL1       -0.3092
     32 C           4.9785   -1.0377   19.1418 C.3     1  UNL1        0.0778
     33 C           6.2542   -1.1047   19.9279 C.3     1  UNL1        0.0519
     34 C           7.5461   -0.6736   19.2991 C.3     1  UNL1        0.1439
     35 O           7.5622   -0.1755   17.8844 O.3     1  UNL1       -0.3537
     36 C           6.2865   -0.1085   17.0983 C.3     1  UNL1        0.1439
     37 C           4.9947   -0.5396   17.7269 C.3     1  UNL1        0.0519
     38 C           3.9638   -3.9838   19.1808 C.3     1  UNL1        0.0232
     39 C           3.0812   -2.7925   19.4081 C.3     1  UNL1        0.0908
@<TRIPOS>BOND
     1    38    39    1
     2    39    31    1
     3    31     1    1
     4     1     2   ar
     5     2     3   ar
     6     3    22    1
     7    22    23    3
     8    23    24    1
     9    24    25    1
    10    25    26    1
    11    26    27    1
    12    27    28    1
    13    27    29    1
    14    29    30    1
    15     3     4   ar
    16     4     5   ar
    17     5     8    1
    18     8     9    2
    19     8    10   am
    20    10    12    1
    21    12    13    1
    22    13    14    1
    23    14    15    1
    24    14    16    2
    25    16    17    1
    26    17    18    1
    27    17    19    2
    28    19    20    1
    29    20    21    2
    30     5     6   ar
    31     6     7    1
    32    31    32    1
    33    32    33    1
    34    33    34    1
    35    34    35    1
    36    35    36    1
    37    36    37    1
    38     6     1   ar
    39    37    32    1
    40    30    24    1
    41    20    13    1
    42    10    11    1
@<TRIPOS>MOLECULE
*****
 39 42 0 0 0
SMALL
GASTEIGER

@<TRIPOS>ATOM
      1 C           4.2536   -2.3944   21.4787 C.ar    1  UNL1        0.0445
      2 C           3.2074   -1.4301   21.9537 C.ar    1  UNL1        0.0224
      3 C           3.2073   -0.9664   23.3802 C.ar    1  UNL1        0.0430
      4 C           4.2533   -1.4669   24.3317 C.ar    1  UNL1        0.0125
      5 C           5.2995   -2.4311   23.8567 C.ar    1  UNL1        0.0512
      6 C           5.2996   -2.8949   22.4302 C.ar    1  UNL1       -0.0041
      7 C           6.3459   -3.8592   21.9552 C.3     1  UNL1        0.0325
      8 C           6.3455   -2.9316   24.8082 C.2     1  UNL1        0.2456
      9 O           6.0897   -2.9045   26.2859 O.2     1  UNL1       -0.2702
     10 N           7.6473   -3.4592   24.2819 N.am    1  UNL1       -0.3001
     11 H           7.8151   -3.4770   23.3120 H       1  UNL1        0.1498
     12 C           8.6933   -3.9597   25.2334 C.3     1  UNL1        0.1029
     13 C           8.5660   -5.3274   25.8363 C.3     1  UNL1        0.1164
     14 C           8.5604   -6.5391   24.9522 C.2     1  UNL1       -0.0330
     15 C           8.6820   -6.3833   23.4653 C.3     1  UNL1        0.0269
     16 C           8.4331   -7.9068   25.5550 C.2     1  UNL1        0.0042
     17 C           8.3115   -8.0626   27.0420 C.2     1  UNL1        0.0508
     18 C           8.1843   -9.4302   27.6448 C.3     1  UNL1        0.0493
     19 N           8.3171   -6.8508   27.9260 N.am    1  UNL1       -0.1833
     20 C           8.4444   -5.4832   27.3232 C.2     1  UNL1        0.2503
     21 O           8.4500   -4.2714   28.2072 O.2     1  UNL1       -0.2726
     22 C           2.1610   -0.0021   23.8552 C.1     1  UNL1       -0.0644
     23 C           1.1148    0.9621   24.3303 C.1     1  UNL1       -0.0873
     24 C           0.0686    1.9264   24.8053 C.3     1  UNL1        0.0672
     25 C          -0.4588    1.8307   26.2063 C.3     1  UNL1        0.0303
     26 C          -1.5050    2.7949   26.6814 C.3     1  UNL1        0.0731
     27 N          -2.0238    3.8549   25.7555 N.3     1  UNL1       -0.2714
     28 C          -3.0700    4.8192   26.2305 C.3     1  UNL1        0.0896
     29 C          -1.4963    3.9506   24.3545 C.3     1  UNL1        0.0731
     30 C          -0.4502    2.9864   23.8795 C.3     1  UNL1        0.0303
     31 N           4.2538   -2.8582   20.0522 N.pl3   1  UNL1       -0.3092
     32 C           4.7847   -1.9625   18.9724 C.3     1  UNL1        0.0778
     33 C           3.8457   -1.3555   17.9724 C.3     1  UNL1        0.0519
     34 C           4.3767   -0.4598   16.8926 C.3     1  UNL1        0.1439
     35 O           5.8464   -0.1712   16.8128 O.3     1  UNL1       -0.3537
     36 C           6.7853   -0.7782   17.8128 C.3     1  UNL1        0.1439
     37 C           6.2545   -1.6738   18.8926 C.3     1  UNL1        0.0519
     38 C           4.4901   -5.1064   18.7717 C.3     1  UNL1        0.0232
     39 C           3.7232   -4.2177   19.7055 C.3     1  UNL1        0.0908
@<TRIPOS>BOND
     1    38    39    1
     2    39    31    1
     3    31     1    1
     4     1     2   ar
     5     2     3   ar
     6     3    22    1
     7    22    23    3
     8    23    24    1
     9    24    25    1
    10    25    26    1
    11    26    27    1
    12    27    28    1
    13    27    29    1
    14    29    30    1
    15     3     4   ar
    16     4     5   ar
    17     5     8    1
    18     8     9    2
    19     8    10   am
    20    10    12    1
    21    12    13    1
    22    13    14    1
    23    14    15    1
    24    14    16    2
    25    16    17    1
    26    17    18    1
    27    17    19    2
    28    19    20    1
    29    20    21    2
    30     5     6   ar
    31     6     7    1
    32    31    32    1
    33    32    33    1
    34    33    34    1
    35    34    35    1
    36    35    36    1
    37    36    37    1
    38     6     1   ar
    39    37    32    1
    40    30    24    1
    41    20    13    1
    42    10    11    1
@<TRIPOS>MOLECULE
*****
 39 42 0 0 0
SMALL
GASTEIGER

@<TRIPOS>ATOM
      1 C           3.2124    0.2244   20.5628 C.ar    1  UNL1        0.0445
      2 C           3.4137   -0.0333   22.0267 C.ar    1  UNL1        0.0224
      3 C           2.5215    0.6289   23.0344 C.ar    1  UNL1        0.0430
      4 C           1.4280    1.5487   22.5781 C.ar    1  UNL1        0.0125
      5 C           1.2266    1.8064   21.1142 C.ar    1  UNL1        0.0512
      6 C           2.1189    1.1442   20.1066 C.ar    1  UNL1       -0.0041
      7 C           1.9176    1.4019   18.6426 C.3     1  UNL1        0.0325
      8 C           0.1331    2.7262   20.6580 C.2     1  UNL1        0.2456
      9 O           0.4749    4.0565   20.0551 O.2     1  UNL1       -0.2702
     10 N          -1.3021    2.3158   20.8047 N.am    1  UNL1       -0.3001
     11 H          -1.5264    1.4427   21.2005 H       1  UNL1        0.1498
     12 C          -2.3956    3.2356   20.3485 C.3     1  UNL1        0.1029
     13 C          -3.5320    3.5651   21.2707 C.3     1  UNL1        0.1164
     14 C          -4.9269    3.6790   20.7311 C.2     1  UNL1       -0.0330
     15 C          -5.1855    3.4635   19.2693 C.3     1  UNL1        0.0269
     16 C          -6.0632    4.0086   21.6532 C.2     1  UNL1        0.0042
     17 C          -5.8045    4.2241   23.1149 C.2     1  UNL1        0.0508
     18 C          -6.9408    4.5536   24.0370 C.3     1  UNL1        0.0493
     19 N          -4.4095    4.1102   23.6545 N.am    1  UNL1       -0.1833
     20 C          -3.2733    3.7807   22.7324 C.2     1  UNL1        0.2503
     21 O          -1.8783    3.6668   23.2720 O.2     1  UNL1       -0.2726
     22 C           2.7228    0.3712   24.4983 C.1     1  UNL1       -0.0644
     23 C           2.9240    0.1136   25.9622 C.1     1  UNL1       -0.0873
     24 C           3.1253   -0.1441   27.4262 C.3     1  UNL1        0.0672
     25 C           4.5114   -0.3105   27.9748 C.3     1  UNL1        0.0303
     26 C           4.7127   -0.5682   29.4387 C.3     1  UNL1        0.0731
     27 N           3.5279   -0.6594   30.3540 N.3     1  UNL1       -0.2714
     28 C           3.7292   -0.9170   31.8180 C.3     1  UNL1        0.0896
     29 C           2.1418   -0.4930   29.8054 C.3     1  UNL1        0.0731
     30 C           1.9405   -0.2353   28.3415 C.3     1  UNL1        0.0303
     31 N           4.1046   -0.4378   19.5550 N.pl3   1  UNL1       -0.3092
     32 C           4.3688   -1.9118   19.6411 C.3     1  UNL1        0.0778
     33 C           3.2951   -2.8894   19.2650 C.3     1  UNL1        0.0519
     34 C           3.5594   -4.3635   19.3511 C.3     1  UNL1        0.1439
     35 O           4.8973   -4.8599   19.8133 O.3     1  UNL1       -0.3537
     36 C           5.9710   -3.8822   20.1894 C.3     1  UNL1        0.1439
     37 C           5.7068   -2.4082   20.1033 C.3     1  UNL1        0.0519
     38 C           4.8879   -0.2099   17.0884 C.3     1  UNL1        0.0232
     39 C           4.7326    0.3741   18.4612 C.3     1  UNL1        0.0908
@<TRIPOS>BOND
     1    38    39    1
     2    39    31    1
     3    31     1    1
     4     1     2   ar
     5     2     3   ar
     6     3    22    1
     7    22    23    3
     8    23    24    1
     9    24    25    1
    10    25    26    1
    11    26    27    1
    12    27    28    1
    13    27    29    1
    14    29    30    1
    15     3     4   ar
    16     4     5   ar
    17     5     8    1
    18     8     9    2
    19     8    10   am
    20    10    12    1
    21    12    13    1
    22    13    14    1
    23    14    15    1
    24    14    16    2
    25    16    17    1
    26    17    18    1
    27    17    19    2
    28    19    20    1
    29    20    21    2
    30     5     6   ar
    31     6     7    1
    32    31    32    1
    33    32    33    1
    34    33    34    1
    35    34    35    1
    36    35    36    1
    37    36    37    1
    38     6     1   ar
    39    37    32    1
    40    30    24    1
    41    20    13    1
    42    10    11    1
@<TRIPOS>MOLECULE
*****
 39 42 0 0 0
SMALL
GASTEIGER

@<TRIPOS>ATOM
      1 C           1.4533    1.2983   27.8857 C.ar    1  UNL1        0.0445
      2 C           0.1104    1.8562   27.5178 C.ar    1  UNL1        0.0224
      3 C          -0.2034    2.1727   26.0856 C.ar    1  UNL1        0.0430
      4 C           0.8257    1.9313   25.0213 C.ar    1  UNL1        0.0125
      5 C           2.1686    1.3734   25.3892 C.ar    1  UNL1        0.0512
      6 C           2.4824    1.0569   26.8214 C.ar    1  UNL1       -0.0041
      7 C           3.8253    0.4990   27.1894 C.3     1  UNL1        0.0325
      8 C           3.1976    1.1320   24.3249 C.2     1  UNL1        0.2456
      9 O           4.3240    2.1045   24.1364 O.2     1  UNL1       -0.2702
     10 N           3.1003   -0.0818   23.4491 N.am    1  UNL1       -0.3001
     11 H           2.3611   -0.7201   23.5728 H       1  UNL1        0.1498
     12 C           4.1294   -0.3232   22.3848 C.3     1  UNL1        0.1029
     13 C           4.1060   -1.5977   21.5941 C.3     1  UNL1        0.1164
     14 C           3.7473   -1.5705   20.1379 C.2     1  UNL1       -0.0330
     15 C           3.4120   -0.2688   19.4723 C.3     1  UNL1        0.0269
     16 C           3.7238   -2.8451   19.3473 C.2     1  UNL1        0.0042
     17 C           4.0591   -4.1468   20.0130 C.2     1  UNL1        0.0508
     18 C           4.0357   -5.4214   19.2225 C.3     1  UNL1        0.0493
     19 N           4.4178   -4.1740   21.4693 N.am    1  UNL1       -0.1833
     20 C           4.4412   -2.8995   22.2598 C.2     1  UNL1        0.2503
     21 O           4.7999   -2.9266   23.7161 O.2     1  UNL1       -0.2726
     22 C          -1.5463    2.7306   25.7177 C.1     1  UNL1       -0.0644
     23 C          -2.8892    3.2885   25.3498 C.1     1  UNL1       -0.0873
     24 C          -4.2321    3.8465   24.9818 C.3     1  UNL1        0.0672
     25 C          -4.9715    4.7217   25.9499 C.3     1  UNL1        0.0303
     26 C          -6.3143    5.2796   25.5820 C.3     1  UNL1        0.0731
     27 N          -6.9178    4.9623   24.2460 N.3     1  UNL1       -0.2714
     28 C          -8.2608    5.5202   23.8780 C.3     1  UNL1        0.0896
     29 C          -6.1785    4.0871   23.2779 C.3     1  UNL1        0.0731
     30 C          -4.8356    3.5291   23.6458 C.3     1  UNL1        0.0303
     31 N           1.7672    0.9817   29.3180 N.pl3   1  UNL1       -0.3092
     32 C           1.8974    2.0903   30.3200 C.3     1  UNL1        0.0778
     33 C           0.8485    2.2733   31.3765 C.3     1  UNL1        0.0519
     34 C           0.9787    3.3820   32.3786 C.3     1  UNL1        0.1439
     35 O           2.1578    4.3076   32.3240 O.3     1  UNL1       -0.3537
     36 C           3.2067    4.1246   31.2674 C.3     1  UNL1        0.1439
     37 C           3.0765    3.0160   30.2654 C.3     1  UNL1        0.0519
     38 C           2.9354   -0.7798   30.8287 C.3     1  UNL1        0.0232
     39 C           1.9509   -0.4435   29.7482 C.3     1  UNL1        0.0908
@<TRIPOS>BOND
     1    38    39    1
     2    39    31    1
     3    31     1    1
     4     1     2   ar
     5     2     3   ar
     6     3    22    1
     7    22    23    3
     8    23    24    1
     9    24    25    1
    10    25    26    1
    11    26    27    1
    12    27    28    1
    13    27    29    1
    14    29    30    1
    15     3     4   ar
    16     4     5   ar
    17     5     8    1
    18     8     9    2
    19     8    10   am
    20    10    12    1
    21    12    13    1
    22    13    14    1
    23    14    15    1
    24    14    16    2
    25    16    17    1
    26    17    18    1
    27    17    19    2
    28    19    20    1
    29    20    21    2
    30     5     6   ar
    31     6     7    1
    32    31    32    1
    33    32    33    1
    34    33    34    1
    35    34    35    1
    36    35    36    1
    37    36    37    1
    38     6     1   ar
    39    37    32    1
    40    30    24    1
    41    20    13    1
    42    10    11    1
@<TRIPOS>MOLECULE
*****
 39 42 0 0 0
SMALL
GASTEIGER

@<TRIPOS>ATOM
      1 C           2.0210    1.4973   24.4281 C.ar    1  UNL1        0.0445
      2 C           0.6888    2.1861   24.4544 C.ar    1  UNL1        0.0224
      3 C          -0.1418    2.1650   25.7033 C.ar    1  UNL1        0.0430
      4 C           0.3598    1.4552   26.9258 C.ar    1  UNL1        0.0125
      5 C           1.6921    0.7665   26.8995 C.ar    1  UNL1        0.0512
      6 C           2.5227    0.7876   25.6507 C.ar    1  UNL1       -0.0041
      7 C           3.8550    0.0988   25.6243 C.3     1  UNL1        0.0325
      8 C           2.1937    0.0567   28.1220 C.2     1  UNL1        0.2456
      9 O           2.7928   -1.3131   28.0011 O.2     1  UNL1       -0.2702
     10 N           2.0963    0.7167   29.4654 N.am    1  UNL1       -0.3001
     11 H           1.7031    1.6158   29.5448 H       1  UNL1        0.1498
     12 C           2.5980    0.0069   30.6879 C.3     1  UNL1        0.1029
     13 C           2.6775    0.7339   31.9976 C.3     1  UNL1        0.1164
     14 C           3.8443    0.5061   32.9122 C.2     1  UNL1       -0.0330
     15 C           4.9317   -0.4486   32.5172 C.3     1  UNL1        0.0269
     16 C           3.9238    1.2331   34.2219 C.2     1  UNL1        0.0042
     17 C           2.8364    2.1879   34.6170 C.2     1  UNL1        0.0508
     18 C           2.9159    2.9149   35.9266 C.3     1  UNL1        0.0493
     19 N           1.6696    2.4157   33.7023 N.am    1  UNL1       -0.1833
     20 C           1.5901    1.6887   32.3926 C.2     1  UNL1        0.2503
     21 O           0.4232    1.9165   31.4779 O.2     1  UNL1       -0.2726
     22 C          -1.4741    2.8537   25.7296 C.1     1  UNL1       -0.0644
     23 C          -2.8064    3.5425   25.7560 C.1     1  UNL1       -0.0873
     24 C          -4.1387    4.2312   25.7824 C.3     1  UNL1        0.0672
     25 C          -4.5025    5.1166   26.9372 C.3     1  UNL1        0.0303
     26 C          -5.8348    5.8054   26.9636 C.3     1  UNL1        0.0731
     27 N          -6.8032    5.6086   25.8352 N.3     1  UNL1       -0.2714
     28 C          -8.1355    6.2974   25.8616 C.3     1  UNL1        0.0896
     29 C          -6.4394    4.7232   24.6804 C.3     1  UNL1        0.0731
     30 C          -5.1071    4.0345   24.6540 C.3     1  UNL1        0.0303
     31 N           2.8517    1.5184   23.1793 N.pl3   1  UNL1       -0.3092
     32 C           2.6614    0.4596   22.1340 C.3     1  UNL1        0.0778
     33 C           1.4304    0.4645   21.2769 C.3     1  UNL1        0.0519
     34 C           1.2401   -0.5944   20.2316 C.3     1  UNL1        0.1439
     35 O           2.2807   -1.6581   20.0434 O.3     1  UNL1       -0.3537
     36 C           3.5117   -1.6630   20.9005 C.3     1  UNL1        0.1439
     37 C           3.7021   -0.6042   21.9457 C.3     1  UNL1        0.0519
     38 C           3.9102    3.3613   21.6849 C.3     1  UNL1        0.0232
     39 C           3.8727    2.5983   22.9758 C.3     1  UNL1        0.0908
@<TRIPOS>BOND
     1    38    39    1
     2    39    31    1
     3    31     1    1
     4     1     2   ar
     5     2     3   ar
     6     3    22    1
     7    22    23    3
     8    23    24    1
     9    24    25    1
    10    25    26    1
    11    26    27    1
    12    27    28    1
    13    27    29    1
    14    29    30    1
    15     3     4   ar
    16     4     5   ar
    17     5     8    1
    18     8     9    2
    19     8    10   am
    20    10    12    1
    21    12    13    1
    22    13    14    1
    23    14    15    1
    24    14    16    2
    25    16    17    1
    26    17    18    1
    27    17    19    2
    28    19    20    1
    29    20    21    2
    30     5     6   ar
    31     6     7    1
    32    31    32    1
    33    32    33    1
    34    33    34    1
    35    34    35    1
    36    35    36    1
    37    36    37    1
    38     6     1   ar
    39    37    32    1
    40    30    24    1
    41    20    13    1
    42    10    11    1
@<TRIPOS>MOLECULE
*****
 39 42 0 0 0
SMALL
GASTEIGER

@<TRIPOS>ATOM
      1 C          -0.2738    2.8718   22.7128 C.ar    1  UNL1        0.0445
      2 C           0.1112    2.6708   24.1485 C.ar    1  UNL1        0.0224
      3 C           1.0750    1.5836   24.5213 C.ar    1  UNL1        0.0430
      4 C           1.6538    0.6975   23.4584 C.ar    1  UNL1        0.0125
      5 C           1.2688    0.8985   22.0227 C.ar    1  UNL1        0.0512
      6 C           0.3050    1.9857   21.6499 C.ar    1  UNL1       -0.0041
      7 C          -0.0801    2.1868   20.2141 C.3     1  UNL1        0.0325
      8 C           1.8476    0.0124   20.9598 C.2     1  UNL1        0.2456
      9 O           0.9788   -0.9971   20.2699 O.2     1  UNL1       -0.2702
     10 N           3.2952    0.1358   20.5867 N.am    1  UNL1       -0.3001
     11 H           3.8654    0.7984   21.0395 H       1  UNL1        0.1498
     12 C           3.8739   -0.7503   19.5238 C.3     1  UNL1        0.1029
     13 C           4.9749   -1.7102   19.8652 C.3     1  UNL1        0.1164
     14 C           4.7769   -3.1827   19.6589 C.2     1  UNL1       -0.0330
     15 C           3.4779   -3.6953   19.1113 C.3     1  UNL1        0.0269
     16 C           5.8779   -4.1426   20.0003 C.2     1  UNL1        0.0042
     17 C           7.1768   -3.6300   20.5479 C.2     1  UNL1        0.0508
     18 C           8.2778   -4.5899   20.8893 C.3     1  UNL1        0.0493
     19 N           7.3748   -2.1575   20.7542 N.am    1  UNL1       -0.1833
     20 C           6.2739   -1.1976   20.4128 C.2     1  UNL1        0.2503
     21 O           6.4719    0.2749   20.6190 O.2     1  UNL1       -0.2726
     22 C           1.4601    1.3825   25.9571 C.1     1  UNL1       -0.0644
     23 C           1.8452    1.1814   27.3928 C.1     1  UNL1       -0.0873
     24 C           2.2303    0.9803   28.8285 C.3     1  UNL1        0.0672
     25 C           2.4683    2.1671   29.7145 C.3     1  UNL1        0.0303
     26 C           2.8534    1.9660   31.1501 C.3     1  UNL1        0.0731
     27 N           3.0004    0.5782   31.6999 N.3     1  UNL1       -0.2714
     28 C           3.3855    0.3771   33.1357 C.3     1  UNL1        0.0896
     29 C           2.7623   -0.6086   30.8139 C.3     1  UNL1        0.0731
     30 C           2.3773   -0.4075   29.3783 C.3     1  UNL1        0.0303
     31 N          -1.2377    3.9591   22.3400 N.pl3   1  UNL1       -0.3092
     32 C          -2.7150    3.7157   22.4320 C.3     1  UNL1        0.0778
     33 C          -3.3922    3.7102   23.7704 C.3     1  UNL1        0.0519
     34 C          -4.8696    3.4668   23.8623 C.3     1  UNL1        0.1439
     35 O          -5.6695    3.2291   22.6159 O.3     1  UNL1       -0.3537
     36 C          -4.9922    3.2347   21.2776 C.3     1  UNL1        0.1439
     37 C          -3.5150    3.4780   21.1856 C.3     1  UNL1        0.0519
     38 C          -0.6312    6.4357   22.8383 C.3     1  UNL1        0.0232
     39 C          -0.7243    5.2896   21.8751 C.3     1  UNL1        0.0908
@<TRIPOS>BOND
     1    38    39    1
     2    39    31    1
     3    31     1    1
     4     1     2   ar
     5     2     3   ar
     6     3    22    1
     7    22    23    3
     8    23    24    1
     9    24    25    1
    10    25    26    1
    11    26    27    1
    12    27    28    1
    13    27    29    1
    14    29    30    1
    15     3     4   ar
    16     4     5   ar
    17     5     8    1
    18     8     9    2
    19     8    10   am
    20    10    12    1
    21    12    13    1
    22    13    14    1
    23    14    15    1
    24    14    16    2
    25    16    17    1
    26    17    18    1
    27    17    19    2
    28    19    20    1
    29    20    21    2
    30     5     6   ar
    31     6     7    1
    32    31    32    1
    33    32    33    1
    34    33    34    1
    35    34    35    1
    36    35    36    1
    37    36    37    1
    38     6     1   ar
    39    37    32    1
    40    30    24    1
    41    20    13    1
    42    10    11    1
