@<TRIPOS>MOLECULE
*****
 32 34 0 0 0
SMALL
GASTEIGER

@<TRIPOS>ATOM
      1 C           6.4321   -3.8374   27.4702 C.3     1  UNL1        0.0044
      2 C           7.1482   -4.9928   28.1045 C.3     1  UNL1        0.0187
      3 C           6.6085   -4.3165   29.3298 C.3     1  UNL1        0.0044
      4 C           7.6769   -5.9133   29.1643 C.3     1  UNL1        0.0044
      5 C           8.4966   -7.1088   28.7785 C.3     1  UNL1        0.0044
      6 C           8.7876   -7.3839   27.3330 C.3     1  UNL1        0.0195
      7 C           9.5038   -8.5393   27.9673 C.3     1  UNL1        0.0044
      8 C           9.3274   -8.0602   26.1077 C.3     1  UNL1        0.0044
      9 C           8.2590   -6.4634   26.2732 C.ar    1  UNL1       -0.0132
     10 C           7.4393   -5.2679   26.6590 C.ar    1  UNL1       -0.0256
     11 C           6.9106   -4.3474   25.5991 C.ar    1  UNL1        0.0030
     12 C           7.2016   -4.6224   24.1536 C.ar    1  UNL1        0.0878
     13 C           8.0213   -5.8179   23.7678 C.ar    1  UNL1        0.1481
     14 O           8.3124   -6.0930   22.3222 O.3     1  UNL1       -0.5045
     15 C           8.5500   -6.7384   24.8276 C.ar    1  UNL1        0.0871
     16 CL          9.3697   -7.9339   24.4419 Cl      1  UNL1       -0.0794
     17 H           7.9821   -5.5179   21.6602 H       1  UNL1        0.2922
     18 C           6.6729   -3.7019   23.0937 C.2     1  UNL1        0.2525
     19 O           6.8452   -2.2185   23.2346 O.2     1  UNL1       -0.2697
     20 N           5.9720   -4.2649   21.8930 N.am    1  UNL1       -0.2802
     21 H           5.8590   -5.2385   21.8005 H       1  UNL1        0.1552
     22 C           5.4434   -3.3444   20.8331 C.ar    1  UNL1        0.0550
     23 C           6.3353   -2.9015   19.7114 C.ar    1  UNL1        0.0445
     24 C           5.8066   -1.9811   18.6515 C.ar    1  UNL1        0.1446
     25 F           6.6985   -1.5382   17.5298 F       1  UNL1       -0.2040
     26 C           4.3859   -1.5036   18.7134 C.ar    1  UNL1        0.0689
     27 C           3.4940   -1.9465   19.8352 C.ar    1  UNL1        0.1446
     28 F           2.0735   -1.4689   19.8971 F       1  UNL1       -0.2040
     29 C           4.0228   -2.8669   20.8950 C.ar    1  UNL1        0.0445
     30 C           3.8573   -0.5832   17.6536 C.2     1  UNL1        0.0772
     31 O           3.8254   -1.0282   16.2215 O.co2   1  UNL1       -0.5444
     32 O           3.3605    0.7823   18.0258 O.co2   1  UNL1       -0.5444
@<TRIPOS>UNITY_ATOM_ATTR
31 1
charge -1
@<TRIPOS>BOND
     1     1     2    1
     2     2     3    1
     3     2     4    1
     4     4     5    1
     5     5     6    1
     6     6     7    1
     7     6     8    1
     8     6     9    1
     9     9    10   ar
    10    10    11   ar
    11    11    12   ar
    12    12    18    1
    13    18    19    2
    14    18    20   am
    15    20    22    1
    16    22    23   ar
    17    23    24   ar
    18    24    25    1
    19    24    26   ar
    20    26    30    1
    21    30    31   ar
    22    30    32   ar
    23    26    27   ar
    24    27    28    1
    25    27    29   ar
    26    12    13   ar
    27    13    14    1
    28    13    15   ar
    29    15    16    1
    30    10     2    1
    31    29    22   ar
    32    15     9   ar
    33    20    21    1
    34    14    17    1
@<TRIPOS>MOLECULE
*****
 32 34 0 0 0
SMALL
GASTEIGER

@<TRIPOS>ATOM
      1 C          -2.4291    3.4987   24.6234 C.3     1  UNL1        0.0044
      2 C          -3.8355    3.9288   24.9188 C.3     1  UNL1        0.0187
      3 C          -3.2800    3.8805   26.3113 C.3     1  UNL1        0.0044
      4 C          -5.0489    4.3420   25.6977 C.3     1  UNL1        0.0044
      5 C          -6.3295    4.6542   24.9817 C.3     1  UNL1        0.0044
      6 C          -6.3966    4.5531   23.4866 C.3     1  UNL1        0.0195
      7 C          -7.8030    4.9831   23.7820 C.3     1  UNL1        0.0044
      8 C          -6.9522    4.6013   22.0941 C.3     1  UNL1        0.0044
      9 C          -5.1832    4.1398   22.7076 C.ar    1  UNL1       -0.0132
     10 C          -3.9027    3.8277   23.4237 C.ar    1  UNL1       -0.0256
     11 C          -2.6892    3.4144   22.6446 C.ar    1  UNL1        0.0030
     12 C          -2.7564    3.3133   21.1496 C.ar    1  UNL1        0.0878
     13 C          -4.0369    3.6255   20.4335 C.ar    1  UNL1        0.1481
     14 O          -4.1040    3.5244   18.9384 O.3     1  UNL1       -0.5045
     15 C          -5.2503    4.0387   21.2125 C.ar    1  UNL1        0.0871
     16 CL         -6.5309    4.3509   20.4964 Cl      1  UNL1       -0.0794
     17 H          -3.3460    3.2663   18.4518 H       1  UNL1        0.2922
     18 C          -1.5429    2.9001   20.3705 C.2     1  UNL1        0.2525
     19 O          -1.2382    3.5528   19.0549 O.2     1  UNL1       -0.2697
     20 N          -0.6343    1.8341   20.9072 N.am    1  UNL1       -0.2802
     21 H          -0.8344    1.4056   21.7707 H       1  UNL1        0.1552
     22 C           0.5790    1.4208   20.1282 C.ar    1  UNL1        0.0550
     23 C           1.3569    2.4429   19.3534 C.ar    1  UNL1        0.0445
     24 C           2.5703    2.0296   18.5744 C.ar    1  UNL1        0.1446
     25 F           3.3481    3.0517   17.7996 F       1  UNL1       -0.2040
     26 C           3.0059    0.5942   18.5702 C.ar    1  UNL1        0.0689
     27 C           2.2280   -0.4279   19.3450 C.ar    1  UNL1        0.1446
     28 F           2.6636   -1.8632   19.3409 F       1  UNL1       -0.2040
     29 C           1.0146   -0.0145   20.1240 C.ar    1  UNL1        0.0445
     30 C           4.2193    0.1809   17.7912 C.2     1  UNL1        0.0772
     31 O           5.5710    0.7068   18.1736 O.co2   1  UNL1       -0.5444
     32 O           4.0809   -0.7583   16.6299 O.co2   1  UNL1       -0.5444
@<TRIPOS>UNITY_ATOM_ATTR
31 1
charge -1
@<TRIPOS>BOND
     1     1     2    1
     2     2     3    1
     3     2     4    1
     4     4     5    1
     5     5     6    1
     6     6     7    1
     7     6     8    1
     8     6     9    1
     9     9    10   ar
    10    10    11   ar
    11    11    12   ar
    12    12    18    1
    13    18    19    2
    14    18    20   am
    15    20    22    1
    16    22    23   ar
    17    23    24   ar
    18    24    25    1
    19    24    26   ar
    20    26    30    1
    21    30    31   ar
    22    30    32   ar
    23    26    27   ar
    24    27    28    1
    25    27    29   ar
    26    12    13   ar
    27    13    14    1
    28    13    15   ar
    29    15    16    1
    30    10     2    1
    31    29    22   ar
    32    15     9   ar
    33    20    21    1
    34    14    17    1
@<TRIPOS>MOLECULE
*****
 32 34 0 0 0
SMALL
GASTEIGER

@<TRIPOS>ATOM
      1 C           1.8511    0.0862   21.6740 C.3     1  UNL1        0.0044
      2 C           2.5206   -0.9139   20.7786 C.3     1  UNL1        0.0187
      3 C           1.6301   -0.2293   19.7844 C.3     1  UNL1        0.0044
      4 C           2.8809   -1.6762   19.5380 C.3     1  UNL1        0.0044
      5 C           3.8991   -2.7758   19.6025 C.3     1  UNL1        0.0044
      6 C           4.5571   -3.1131   20.9076 C.3     1  UNL1        0.0195
      7 C           5.2266   -4.1132   20.0122 C.3     1  UNL1        0.0044
      8 C           5.4476   -3.7977   21.9017 C.3     1  UNL1        0.0044
      9 C           4.1968   -2.3508   22.1481 C.ar    1  UNL1       -0.0132
     10 C           3.1786   -1.2512   22.0837 C.ar    1  UNL1       -0.0256
     11 C           2.8184   -0.4889   23.3244 C.ar    1  UNL1        0.0030
     12 C           3.4764   -0.8262   24.6294 C.ar    1  UNL1        0.0878
     13 C           4.4946   -1.9258   24.6939 C.ar    1  UNL1        0.1481
     14 O           5.1526   -2.2631   25.9991 O.3     1  UNL1       -0.5045
     15 C           4.8548   -2.6881   23.4533 C.ar    1  UNL1        0.0871
     16 CL          5.8730   -3.7877   23.5178 Cl      1  UNL1       -0.0794
     17 H           4.9276   -1.7869   26.7740 H       1  UNL1        0.2922
     18 C           3.1162   -0.0639   25.8701 C.2     1  UNL1        0.2525
     19 O           2.9890    1.4299   25.8221 O.2     1  UNL1       -0.2697
     20 N           2.8831   -0.7955   27.1587 N.am    1  UNL1       -0.2802
     21 H           2.9666   -1.7759   27.1902 H       1  UNL1        0.1552
     22 C           2.5229   -0.0333   28.3993 C.ar    1  UNL1        0.0550
     23 C           1.0824    0.2173   28.7339 C.ar    1  UNL1        0.0445
     24 C           0.7222    0.9795   29.9746 C.ar    1  UNL1        0.1446
     25 F          -0.7184    1.2301   30.3092 F       1  UNL1       -0.2040
     26 C           1.8026    1.4912   30.8807 C.ar    1  UNL1        0.0689
     27 C           3.2431    1.2406   30.5461 C.ar    1  UNL1        0.1446
     28 F           4.3235    1.7523   31.4521 F       1  UNL1       -0.2040
     29 C           3.6033    0.4784   29.3054 C.ar    1  UNL1        0.0445
     30 C           1.4424    2.2534   32.1213 C.2     1  UNL1        0.0772
     31 O           0.5052    3.4217   32.0383 O.co2   1  UNL1       -0.5444
     32 O           2.0193    1.8474   33.4450 O.co2   1  UNL1       -0.5444
@<TRIPOS>UNITY_ATOM_ATTR
31 1
charge -1
@<TRIPOS>BOND
     1     1     2    1
     2     2     3    1
     3     2     4    1
     4     4     5    1
     5     5     6    1
     6     6     7    1
     7     6     8    1
     8     6     9    1
     9     9    10   ar
    10    10    11   ar
    11    11    12   ar
    12    12    18    1
    13    18    19    2
    14    18    20   am
    15    20    22    1
    16    22    23   ar
    17    23    24   ar
    18    24    25    1
    19    24    26   ar
    20    26    30    1
    21    30    31   ar
    22    30    32   ar
    23    26    27   ar
    24    27    28    1
    25    27    29   ar
    26    12    13   ar
    27    13    14    1
    28    13    15   ar
    29    15    16    1
    30    10     2    1
    31    29    22   ar
    32    15     9   ar
    33    20    21    1
    34    14    17    1
@<TRIPOS>MOLECULE
*****
 32 34 0 0 0
SMALL
GASTEIGER

@<TRIPOS>ATOM
      1 C           1.8627    0.1012   21.7005 C.3     1  UNL1        0.0044
      2 C           2.4999   -0.9017   20.7850 C.3     1  UNL1        0.0187
      3 C           1.5970   -0.1997   19.8144 C.3     1  UNL1        0.0044
      4 C           2.8235   -1.6608   19.5324 C.3     1  UNL1        0.0044
      5 C           3.8287   -2.7736   19.5683 C.3     1  UNL1        0.0044
      6 C           4.5103   -3.1273   20.8568 C.3     1  UNL1        0.0195
      7 C           5.1474   -4.1302   19.9413 C.3     1  UNL1        0.0044
      8 C           5.4132   -3.8293   21.8274 C.3     1  UNL1        0.0044
      9 C           4.1867   -2.3682   22.1094 C.ar    1  UNL1       -0.0132
     10 C           3.1815   -1.2554   22.0735 C.ar    1  UNL1       -0.0256
     11 C           2.8579   -0.4963   23.3262 C.ar    1  UNL1        0.0030
     12 C           3.5395   -0.8500   24.6147 C.ar    1  UNL1        0.0878
     13 C           4.5447   -1.9628   24.6506 C.ar    1  UNL1        0.1481
     14 O           5.2263   -2.3164   25.9392 O.3     1  UNL1       -0.5045
     15 C           4.8683   -2.7219   23.3980 C.ar    1  UNL1        0.0871
     16 CL          5.8735   -3.8346   23.4339 Cl      1  UNL1       -0.0794
     17 H           5.0242   -1.8422   26.7216 H       1  UNL1        0.2922
     18 C           3.2159   -0.0909   25.8673 C.2     1  UNL1        0.2525
     19 O           3.2325    1.4090   25.8608 O.2     1  UNL1       -0.2697
     20 N           2.8758   -0.8317   27.1265 N.am    1  UNL1       -0.2802
     21 H           2.8649   -1.8161   27.1308 H       1  UNL1        0.1552
     22 C           2.5522   -0.0727   28.3791 C.ar    1  UNL1        0.0550
     23 C           3.6566    0.3853   29.2850 C.ar    1  UNL1        0.0445
     24 C           3.3330    1.1443   30.5377 C.ar    1  UNL1        0.1446
     25 F           4.4374    1.6022   31.4436 F       1  UNL1       -0.2040
     26 C           1.9050    1.4454   30.8844 C.ar    1  UNL1        0.0689
     27 C           0.8006    0.9875   29.9785 C.ar    1  UNL1        0.1446
     28 F          -0.6273    1.2886   30.3253 F       1  UNL1       -0.2040
     29 C           1.1243    0.2284   28.7258 C.ar    1  UNL1        0.0445
     30 C           1.5815    2.2045   32.1371 C.2     1  UNL1        0.0772
     31 O           0.7149    3.4270   32.0705 O.co2   1  UNL1       -0.5444
     32 O           2.1245    1.7409   33.4562 O.co2   1  UNL1       -0.5444
@<TRIPOS>UNITY_ATOM_ATTR
31 1
charge -1
@<TRIPOS>BOND
     1     1     2    1
     2     2     3    1
     3     2     4    1
     4     4     5    1
     5     5     6    1
     6     6     7    1
     7     6     8    1
     8     6     9    1
     9     9    10   ar
    10    10    11   ar
    11    11    12   ar
    12    12    18    1
    13    18    19    2
    14    18    20   am
    15    20    22    1
    16    22    23   ar
    17    23    24   ar
    18    24    25    1
    19    24    26   ar
    20    26    30    1
    21    30    31   ar
    22    30    32   ar
    23    26    27   ar
    24    27    28    1
    25    27    29   ar
    26    12    13   ar
    27    13    14    1
    28    13    15   ar
    29    15    16    1
    30    10     2    1
    31    29    22   ar
    32    15     9   ar
    33    20    21    1
    34    14    17    1
@<TRIPOS>MOLECULE
*****
 32 34 0 0 0
SMALL
GASTEIGER

@<TRIPOS>ATOM
      1 C           8.3508   -6.5538   24.5105 C.3     1  UNL1        0.0044
      2 C           8.5522   -6.8948   25.9573 C.3     1  UNL1        0.0187
      3 C           9.2797   -8.0392   25.3162 C.3     1  UNL1        0.0044
      4 C           9.0061   -7.6333   27.1814 C.3     1  UNL1        0.0044
      5 C           8.6627   -7.1089   28.5442 C.3     1  UNL1        0.0044
      6 C           7.8652   -5.8461   28.6828 C.3     1  UNL1        0.0195
      7 C           8.0665   -6.1871   30.1296 C.3     1  UNL1        0.0044
      8 C           7.1376   -4.7016   29.3239 C.3     1  UNL1        0.0044
      9 C           7.4112   -5.1076   27.4587 C.ar    1  UNL1       -0.0132
     10 C           7.7547   -5.6320   26.0959 C.ar    1  UNL1       -0.0256
     11 C           7.3007   -4.8934   24.8718 C.ar    1  UNL1        0.0030
     12 C           6.5032   -3.6306   25.0104 C.ar    1  UNL1        0.0878
     13 C           6.1597   -3.1062   26.3731 C.ar    1  UNL1        0.1481
     14 O           5.3622   -1.8433   26.5117 O.3     1  UNL1       -0.5045
     15 C           6.6137   -3.8447   27.5973 C.ar    1  UNL1        0.0871
     16 CL          6.2702   -3.3203   28.9600 Cl      1  UNL1       -0.0794
     17 H           5.0786   -1.3820   25.7470 H       1  UNL1        0.2922
     18 C           6.0492   -2.8921   23.7862 C.2     1  UNL1        0.2525
     19 O           6.1422   -1.3958   23.7354 O.2     1  UNL1       -0.2697
     20 N           5.5021   -3.6498   22.6130 N.am    1  UNL1       -0.2802
     21 H           5.4411   -4.6319   22.6464 H       1  UNL1        0.1552
     22 C           5.0481   -2.9114   21.3889 C.ar    1  UNL1        0.0550
     23 C           5.9988   -2.6922   20.2495 C.ar    1  UNL1        0.0445
     24 C           5.5447   -1.9537   19.0254 C.ar    1  UNL1        0.1446
     25 F           6.4954   -1.7345   17.8860 F       1  UNL1       -0.2040
     26 C           4.1400   -1.4344   18.9406 C.ar    1  UNL1        0.0689
     27 C           3.1893   -1.6536   20.0800 C.ar    1  UNL1        0.1446
     28 F           1.7847   -1.1344   19.9952 F       1  UNL1       -0.2040
     29 C           3.6434   -2.3921   21.3041 C.ar    1  UNL1        0.0445
     30 C           3.6860   -0.6960   17.7165 C.2     1  UNL1        0.0772
     31 O           3.0073    0.6348   17.8519 O.co2   1  UNL1       -0.5444
     32 O           3.9106   -1.2883   16.3568 O.co2   1  UNL1       -0.5444
@<TRIPOS>UNITY_ATOM_ATTR
31 1
charge -1
@<TRIPOS>BOND
     1     1     2    1
     2     2     3    1
     3     2     4    1
     4     4     5    1
     5     5     6    1
     6     6     7    1
     7     6     8    1
     8     6     9    1
     9     9    10   ar
    10    10    11   ar
    11    11    12   ar
    12    12    18    1
    13    18    19    2
    14    18    20   am
    15    20    22    1
    16    22    23   ar
    17    23    24   ar
    18    24    25    1
    19    24    26   ar
    20    26    30    1
    21    30    31   ar
    22    30    32   ar
    23    26    27   ar
    24    27    28    1
    25    27    29   ar
    26    12    13   ar
    27    13    14    1
    28    13    15   ar
    29    15    16    1
    30    10     2    1
    31    29    22   ar
    32    15     9   ar
    33    20    21    1
    34    14    17    1
@<TRIPOS>MOLECULE
*****
 32 34 0 0 0
SMALL
GASTEIGER

@<TRIPOS>ATOM
      1 C           2.1419    0.6184   21.6158 C.3     1  UNL1        0.0044
      2 C           2.5028   -0.2373   20.4378 C.3     1  UNL1        0.0187
      3 C           1.6484    0.7924   19.7598 C.3     1  UNL1        0.0044
      4 C           2.5670   -0.7353   19.0244 C.3     1  UNL1        0.0044
      5 C           3.3603   -1.9658   18.6980 C.3     1  UNL1        0.0044
      6 C           4.0894   -2.6984   19.7851 C.3     1  UNL1        0.0195
      7 C           4.4503   -3.5540   18.6071 C.3     1  UNL1        0.0044
      8 C           4.9438   -3.7281   20.4631 C.3     1  UNL1        0.0044
      9 C           4.0252   -2.2004   21.1985 C.ar    1  UNL1       -0.0132
     10 C           3.2319   -0.9698   21.5249 C.ar    1  UNL1       -0.0256
     11 C           3.1678   -0.4718   22.9384 C.ar    1  UNL1        0.0030
     12 C           3.8968   -1.2044   24.0255 C.ar    1  UNL1        0.0878
     13 C           4.6901   -2.4349   23.6991 C.ar    1  UNL1        0.1481
     14 O           5.4192   -3.1675   24.7863 O.3     1  UNL1       -0.5045
     15 C           4.7543   -2.9329   22.2857 C.ar    1  UNL1        0.0871
     16 CL          5.5475   -4.1635   21.9593 Cl      1  UNL1       -0.0794
     17 H           5.3791   -2.8564   25.6692 H       1  UNL1        0.2922
     18 C           3.8327   -0.7064   25.4390 C.2     1  UNL1        0.2525
     19 O           4.0568    0.7473   25.7329 O.2     1  UNL1       -0.2697
     20 N           3.5443   -1.6622   26.5585 N.am    1  UNL1       -0.2802
     21 H           3.3972   -2.6163   26.3656 H       1  UNL1        0.1552
     22 C           3.4802   -1.1642   27.9720 C.ar    1  UNL1        0.0550
     23 C           2.2187   -0.5400   28.4907 C.ar    1  UNL1        0.0445
     24 C           2.1546   -0.0421   29.9042 C.ar    1  UNL1        0.1446
     25 F           0.8931    0.5821   30.4230 F       1  UNL1       -0.2040
     26 C           3.3519   -0.1684   30.7990 C.ar    1  UNL1        0.0689
     27 C           4.6133   -0.7926   30.2802 C.ar    1  UNL1        0.1446
     28 F           5.8106   -0.9189   31.1749 F       1  UNL1       -0.2040
     29 C           4.6775   -1.2905   28.8667 C.ar    1  UNL1        0.0445
     30 C           3.2877    0.3295   32.2124 C.2     1  UNL1        0.0772
     31 O           3.5360   -0.6138   33.3519 O.co2   1  UNL1       -0.5444
     32 O           2.9753    1.7708   32.4864 O.co2   1  UNL1       -0.5444
@<TRIPOS>UNITY_ATOM_ATTR
31 1
charge -1
@<TRIPOS>BOND
     1     1     2    1
     2     2     3    1
     3     2     4    1
     4     4     5    1
     5     5     6    1
     6     6     7    1
     7     6     8    1
     8     6     9    1
     9     9    10   ar
    10    10    11   ar
    11    11    12   ar
    12    12    18    1
    13    18    19    2
    14    18    20   am
    15    20    22    1
    16    22    23   ar
    17    23    24   ar
    18    24    25    1
    19    24    26   ar
    20    26    30    1
    21    30    31   ar
    22    30    32   ar
    23    26    27   ar
    24    27    28    1
    25    27    29   ar
    26    12    13   ar
    27    13    14    1
    28    13    15   ar
    29    15    16    1
    30    10     2    1
    31    29    22   ar
    32    15     9   ar
    33    20    21    1
    34    14    17    1
@<TRIPOS>MOLECULE
*****
 32 34 0 0 0
SMALL
GASTEIGER

@<TRIPOS>ATOM
      1 C           4.8826   -3.5532   22.0190 C.3     1  UNL1        0.0044
      2 C           4.0409   -2.8417   21.0015 C.3     1  UNL1        0.0187
      3 C           4.6290   -3.9224   20.1433 C.3     1  UNL1        0.0044
      4 C           3.4035   -2.5055   19.6860 C.3     1  UNL1        0.0044
      5 C           2.4702   -1.3357   19.5820 C.3     1  UNL1        0.0044
      6 C           2.1745   -0.5022   20.7935 C.3     1  UNL1        0.0195
      7 C           1.3328    0.2094   19.7759 C.3     1  UNL1        0.0044
      8 C           1.5864    0.5785   21.6516 C.3     1  UNL1        0.0044
      9 C           2.8120   -0.8384   22.1089 C.ar    1  UNL1       -0.0132
     10 C           3.7452   -2.0081   22.2129 C.ar    1  UNL1       -0.0256
     11 C           4.3827   -2.3443   23.5285 C.ar    1  UNL1        0.0030
     12 C           4.0869   -1.5108   24.7400 C.ar    1  UNL1        0.0878
     13 C           3.1537   -0.3411   24.6360 C.ar    1  UNL1        0.1481
     14 O           2.8580    0.4925   25.8476 O.3     1  UNL1       -0.5045
     15 C           2.5163   -0.0048   23.3205 C.ar    1  UNL1        0.0871
     16 CL          1.5831    1.1649   23.2165 Cl      1  UNL1       -0.0794
     17 H           3.2562    0.2825   26.6693 H       1  UNL1        0.2922
     18 C           4.7244   -1.8470   26.0556 C.2     1  UNL1        0.2525
     19 O           4.0838   -1.3988   27.3357 O.2     1  UNL1       -0.2697
     20 N           6.0025   -2.6314   26.0910 N.am    1  UNL1       -0.2802
     21 H           6.4229   -2.9255   25.2508 H       1  UNL1        0.1552
     22 C           6.6400   -2.9676   27.4064 C.ar    1  UNL1        0.0550
     23 C           6.2671   -4.2339   28.1187 C.ar    1  UNL1        0.0445
     24 C           6.9046   -4.5702   29.4342 C.ar    1  UNL1        0.1446
     25 F           6.5317   -5.8365   30.1464 F       1  UNL1       -0.2040
     26 C           7.9150   -3.6400   30.0375 C.ar    1  UNL1        0.0689
     27 C           8.2879   -2.3736   29.3252 C.ar    1  UNL1        0.1446
     28 F           9.2983   -1.4435   29.9284 F       1  UNL1       -0.2040
     29 C           7.6503   -2.0374   28.0097 C.ar    1  UNL1        0.0445
     30 C           8.5525   -3.9762   31.3530 C.2     1  UNL1        0.0772
     31 O           8.4126   -3.0387   32.5155 O.co2   1  UNL1       -0.5444
     32 O           9.3298   -5.2499   31.5059 O.co2   1  UNL1       -0.5444
@<TRIPOS>UNITY_ATOM_ATTR
31 1
charge -1
@<TRIPOS>BOND
     1     1     2    1
     2     2     3    1
     3     2     4    1
     4     4     5    1
     5     5     6    1
     6     6     7    1
     7     6     8    1
     8     6     9    1
     9     9    10   ar
    10    10    11   ar
    11    11    12   ar
    12    12    18    1
    13    18    19    2
    14    18    20   am
    15    20    22    1
    16    22    23   ar
    17    23    24   ar
    18    24    25    1
    19    24    26   ar
    20    26    30    1
    21    30    31   ar
    22    30    32   ar
    23    26    27   ar
    24    27    28    1
    25    27    29   ar
    26    12    13   ar
    27    13    14    1
    28    13    15   ar
    29    15    16    1
    30    10     2    1
    31    29    22   ar
    32    15     9   ar
    33    20    21    1
    34    14    17    1
@<TRIPOS>MOLECULE
*****
 32 34 0 0 0
SMALL
GASTEIGER

@<TRIPOS>ATOM
      1 C          -1.3613    3.5857   21.1827 C.3     1  UNL1        0.0044
      2 C          -2.4681    3.8149   20.1965 C.3     1  UNL1        0.0187
      3 C          -1.2919    3.7859   19.2660 C.3     1  UNL1        0.0044
      4 C          -3.1664    4.0341   18.8871 C.3     1  UNL1        0.0044
      5 C          -4.6564    4.2027   18.8508 C.3     1  UNL1        0.0044
      6 C          -5.4482    4.1521   20.1237 C.3     1  UNL1        0.0195
      7 C          -6.5550    4.3813   19.1375 C.3     1  UNL1        0.0044
      8 C          -6.6244    4.1812   21.0542 C.3     1  UNL1        0.0044
      9 C          -4.7500    3.9330   21.4330 C.ar    1  UNL1       -0.0132
     10 C          -3.2599    3.7644   21.4694 C.ar    1  UNL1       -0.0256
     11 C          -2.5616    3.5452   22.7788 C.ar    1  UNL1        0.0030
     12 C          -3.3534    3.4947   24.0518 C.ar    1  UNL1        0.0878
     13 C          -4.8435    3.6633   24.0154 C.ar    1  UNL1        0.1481
     14 O          -5.6353    3.6127   25.2885 O.3     1  UNL1       -0.5045
     15 C          -5.5418    3.8824   22.7061 C.ar    1  UNL1        0.0871
     16 CL         -7.0318    4.0510   22.6697 Cl      1  UNL1       -0.0794
     17 H          -5.1991    3.4758   26.1064 H       1  UNL1        0.2922
     18 C          -2.6552    3.2756   25.3612 C.2     1  UNL1        0.2525
     19 O          -3.3019    3.7199   26.6396 O.2     1  UNL1       -0.2697
     20 N          -1.3103    2.6121   25.3921 N.am    1  UNL1       -0.2802
     21 H          -0.8858    2.3205   24.5531 H       1  UNL1        0.1552
     22 C          -0.6120    2.3929   26.7015 C.ar    1  UNL1        0.0550
     23 C           0.0468    3.5441   27.4020 C.ar    1  UNL1        0.0445
     24 C           0.7450    3.3250   28.7114 C.ar    1  UNL1        0.1446
     25 F           1.4039    4.4761   29.4119 F       1  UNL1       -0.2040
     26 C           0.7845    1.9546   29.3202 C.ar    1  UNL1        0.0689
     27 C           0.1257    0.8034   28.6196 C.ar    1  UNL1        0.1446
     28 F           0.1651   -0.5669   29.2284 F       1  UNL1       -0.2040
     29 C          -0.5726    1.0226   27.3102 C.ar    1  UNL1        0.0445
     30 C           1.4828    1.7354   30.6295 C.2     1  UNL1        0.0772
     31 O           2.9745    1.5827   30.6676 O.co2   1  UNL1       -0.5444
     32 O           0.6893    1.6690   31.9007 O.co2   1  UNL1       -0.5444
@<TRIPOS>UNITY_ATOM_ATTR
31 1
charge -1
@<TRIPOS>BOND
     1     1     2    1
     2     2     3    1
     3     2     4    1
     4     4     5    1
     5     5     6    1
     6     6     7    1
     7     6     8    1
     8     6     9    1
     9     9    10   ar
    10    10    11   ar
    11    11    12   ar
    12    12    18    1
    13    18    19    2
    14    18    20   am
    15    20    22    1
    16    22    23   ar
    17    23    24   ar
    18    24    25    1
    19    24    26   ar
    20    26    30    1
    21    30    31   ar
    22    30    32   ar
    23    26    27   ar
    24    27    28    1
    25    27    29   ar
    26    12    13   ar
    27    13    14    1
    28    13    15   ar
    29    15    16    1
    30    10     2    1
    31    29    22   ar
    32    15     9   ar
    33    20    21    1
    34    14    17    1
@<TRIPOS>MOLECULE
*****
 32 34 0 0 0
SMALL
GASTEIGER

@<TRIPOS>ATOM
      1 C          -4.5997    3.5836   19.8164 C.3     1  UNL1        0.0044
      2 C          -5.6102    4.0932   20.8010 C.3     1  UNL1        0.0187
      3 C          -6.4410    4.0922   19.5521 C.3     1  UNL1        0.0044
      4 C          -6.9091    4.6025   21.3519 C.3     1  UNL1        0.0044
      5 C          -7.0263    4.9357   22.8097 C.3     1  UNL1        0.0044
      6 C          -5.8446    4.7598   23.7166 C.3     1  UNL1        0.0195
      7 C          -6.8550    5.2694   24.7013 C.3     1  UNL1        0.0044
      8 C          -5.0137    4.7608   24.9656 C.3     1  UNL1        0.0044
      9 C          -4.5457    4.2506   23.1658 C.ar    1  UNL1       -0.0132
     10 C          -4.4285    3.9173   21.7080 C.ar    1  UNL1       -0.0256
     11 C          -3.1295    3.4080   21.1571 C.ar    1  UNL1        0.0030
     12 C          -1.9478    3.2321   22.0641 C.ar    1  UNL1        0.0878
     13 C          -2.0650    3.5654   23.5219 C.ar    1  UNL1        0.1481
     14 O          -0.8832    3.3894   24.4288 O.3     1  UNL1       -0.5045
     15 C          -3.3639    4.0746   24.0727 C.ar    1  UNL1        0.0871
     16 CL         -3.4811    4.4079   25.5305 Cl      1  UNL1       -0.0794
     17 H          -0.0718    3.0713   24.0847 H       1  UNL1        0.2922
     18 C          -0.6488    2.7228   21.5132 C.2     1  UNL1        0.2525
     19 O           0.6488    3.2962   22.0007 O.2     1  UNL1       -0.2697
     20 N          -0.6474    1.6403   20.4750 N.am    1  UNL1       -0.2802
     21 H          -1.4991    1.2640   20.1550 H       1  UNL1        0.1552
     22 C           0.6515    1.1310   19.9241 C.ar    1  UNL1        0.0550
     23 C           1.5464    2.0480   19.1443 C.ar    1  UNL1        0.0445
     24 C           2.8453    1.5388   18.5934 C.ar    1  UNL1        0.1446
     25 F           3.7402    2.4558   17.8135 F       1  UNL1       -0.2040
     26 C           3.2493    0.1124   18.8224 C.ar    1  UNL1        0.0689
     27 C           2.3544   -0.8046   19.6023 C.ar    1  UNL1        0.1446
     28 F           2.7584   -2.2309   19.8313 F       1  UNL1       -0.2040
     29 C           1.0554   -0.2953   20.1531 C.ar    1  UNL1        0.0445
     30 C           4.5482   -0.3968   18.2716 C.2     1  UNL1        0.0772
     31 O           4.5493   -1.3536   17.1163 O.co2   1  UNL1       -0.5444
     32 O           5.8460    0.0507   18.8760 O.co2   1  UNL1       -0.5444
@<TRIPOS>UNITY_ATOM_ATTR
31 1
charge -1
@<TRIPOS>BOND
     1     1     2    1
     2     2     3    1
     3     2     4    1
     4     4     5    1
     5     5     6    1
     6     6     7    1
     7     6     8    1
     8     6     9    1
     9     9    10   ar
    10    10    11   ar
    11    11    12   ar
    12    12    18    1
    13    18    19    2
    14    18    20   am
    15    20    22    1
    16    22    23   ar
    17    23    24   ar
    18    24    25    1
    19    24    26   ar
    20    26    30    1
    21    30    31   ar
    22    30    32   ar
    23    26    27   ar
    24    27    28    1
    25    27    29   ar
    26    12    13   ar
    27    13    14    1
    28    13    15   ar
    29    15    16    1
    30    10     2    1
    31    29    22   ar
    32    15     9   ar
    33    20    21    1
    34    14    17    1
