@<TRIPOS>MOLECULE
*****
 35 38 0 0 0
SMALL
GASTEIGER

@<TRIPOS>ATOM
      1 N           6.2567   -2.1382   22.7665 N.am    1  UNL1       -0.2438
      2 C           5.5471   -0.8711   22.3912 C.3     1  UNL1        0.1009
      3 C           4.5049   -0.8863   21.3125 C.3     1  UNL1        0.0662
      4 C           4.1722   -2.1686   20.6091 C.3     1  UNL1        0.1600
      5 O           4.8818   -3.4359   20.9843 O.3     1  UNL1       -0.4374
      6 C           5.9240   -3.4206   22.0630 C.2     1  UNL1        0.4051
      7 O           6.6335   -4.6878   22.4383 O.2     1  UNL1       -0.2262
      8 C           3.2340   -1.2341   19.9045 C.ar    1  UNL1        0.0138
      9 C           1.8441   -1.0293   20.4303 C.ar    1  UNL1       -0.0010
     10 C           0.9059   -0.0948   19.7258 C.ar    1  UNL1       -0.0002
     11 C           1.3575    0.6349   18.4955 C.ar    1  UNL1       -0.0000
     12 C           2.7473    0.4301   17.9697 C.ar    1  UNL1       -0.0002
     13 C           3.6856   -0.5044   18.6743 C.ar    1  UNL1       -0.0010
     14 C           8.7540   -2.1572   23.4827 C.3     1  UNL1        0.0265
     15 C           7.2989   -2.1230   23.8452 C.3     1  UNL1        0.1011
     16 C           6.8859   -2.0735   25.2864 C.ar    1  UNL1       -0.0042
     17 C           6.7367   -3.3451   26.0679 C.ar    1  UNL1       -0.0027
     18 C           6.3238   -3.2956   27.5090 C.ar    1  UNL1       -0.0003
     19 C           6.0600   -1.9745   28.1687 C.ar    1  UNL1        0.0002
     20 C           6.2092   -0.7029   27.3872 C.ar    1  UNL1       -0.0003
     21 C           6.6222   -0.7524   25.9461 C.ar    1  UNL1       -0.0027
     22 C           5.6470   -1.9250   29.6099 C.ar    1  UNL1        0.0062
     23 C           6.3121   -2.8215   30.6119 C.ar    1  UNL1        0.0189
     24 C           5.8992   -2.7720   32.0531 C.ar    1  UNL1        0.0784
     25 N           4.8211   -1.8260   32.4923 N.ar    1  UNL1       -0.2922
     26 C           4.4081   -1.7765   33.9335 C.3     1  UNL1        0.1336
     27 C           4.1560   -0.9295   31.4903 C.ar    1  UNL1        0.2610
     28 O           3.0779    0.0165   31.9295 O.2     1  UNL1       -0.2670
     29 C           4.5690   -0.9790   30.0492 C.ar    1  UNL1        0.0608
     30 C           3.5137   -3.1265   19.6610 C.3     1  UNL1        0.0714
     31 C           4.2470   -4.3524   19.2035 C.3     1  UNL1        0.0922
     32 C           3.2739   -5.2140   19.9524 C.3     1  UNL1        0.0294
     33 C           5.2201   -3.4909   18.4547 C.3     1  UNL1        0.0294
     34 O           4.9803   -5.5784   18.7461 O.3     1  UNL1       -0.3866
     35 H           4.5451   -6.3679   19.1041 H       1  UNL1        0.2102
@<TRIPOS>BOND
     1    15    14    1
     2    15    16    1
     3    16    17   ar
     4    17    18   ar
     5    18    19   ar
     6    19    22    1
     7    22    23   ar
     8    23    24   ar
     9    24    25   ar
    10    25    26    1
    11    25    27   ar
    12    27    28    2
    13    27    29   ar
    14    19    20   ar
    15    20    21   ar
    16    15     1    1
    17     1     2    1
    18     2     3    1
    19     3     4    1
    20     4    30    1
    21    30    31    1
    22    31    32    1
    23    31    33    1
    24    31    34    1
    25     4     8    1
    26     8     9   ar
    27     9    10   ar
    28    10    11   ar
    29    11    12   ar
    30    12    13   ar
    31     4     5    1
    32     5     6    1
    33     6     7    2
    34    21    16   ar
    35     6     1   am
    36    29    22   ar
    37    13     8   ar
    38    34    35    1
@<TRIPOS>MOLECULE
*****
 35 38 0 0 0
SMALL
GASTEIGER

@<TRIPOS>ATOM
      1 N           6.5585   -2.1370   22.5346 N.am    1  UNL1       -0.2438
      2 C           5.8459   -0.8661   22.1785 C.3     1  UNL1        0.1009
      3 C           4.7306   -0.8873   21.1757 C.3     1  UNL1        0.0662
      4 C           4.3279   -2.1793   20.5290 C.3     1  UNL1        0.1600
      5 O           5.0405   -3.4504   20.8851 O.3     1  UNL1       -0.4374
      6 C           6.1558   -3.4292   21.8879 C.2     1  UNL1        0.4051
      7 O           6.8684   -4.7002   22.2440 O.2     1  UNL1       -0.2262
      8 C           3.3584   -1.2443   19.8686 C.ar    1  UNL1        0.0138
      9 C           1.9655   -1.1048   20.4074 C.ar    1  UNL1       -0.0010
     10 C           0.9961   -0.1698   19.7470 C.ar    1  UNL1       -0.0002
     11 C           1.4197    0.6256   18.5480 C.ar    1  UNL1       -0.0000
     12 C           2.8126    0.4861   18.0092 C.ar    1  UNL1       -0.0002
     13 C           3.7820   -0.4489   18.6695 C.ar    1  UNL1       -0.0010
     14 C           9.0980   -2.2146   23.0773 C.3     1  UNL1        0.0265
     15 C           7.6738   -2.1159   23.5374 C.3     1  UNL1        0.1011
     16 C           7.3648   -1.9960   25.0004 C.ar    1  UNL1       -0.0042
     17 C           8.1471   -1.0449   25.8567 C.ar    1  UNL1       -0.0027
     18 C           7.8381   -0.9250   27.3196 C.ar    1  UNL1       -0.0003
     19 C           6.7468   -1.7563   27.9262 C.ar    1  UNL1        0.0002
     20 C           5.9645   -2.7075   27.0699 C.ar    1  UNL1       -0.0003
     21 C           6.2735   -2.8273   25.6070 C.ar    1  UNL1       -0.0027
     22 C           6.4378   -1.6365   29.3891 C.ar    1  UNL1        0.0062
     23 C           6.0801   -0.3020   29.9733 C.ar    1  UNL1        0.0189
     24 C           5.7711   -0.1821   31.4362 C.ar    1  UNL1        0.0784
     25 N           5.8198   -1.3968   32.3150 N.ar    1  UNL1       -0.2922
     26 C           5.5109   -1.2769   33.7779 C.3     1  UNL1        0.1336
     27 C           6.1775   -2.7313   31.7308 C.ar    1  UNL1        0.2610
     28 O           6.2262   -3.9459   32.6096 O.2     1  UNL1       -0.2670
     29 C           6.4865   -2.8511   30.2679 C.ar    1  UNL1        0.0608
     30 C           3.5885   -3.1468   19.6529 C.3     1  UNL1        0.0714
     31 C           4.2733   -4.3869   19.1602 C.3     1  UNL1        0.0922
     32 C           5.2319   -3.5444   18.3719 C.3     1  UNL1        0.0294
     33 C           3.3148   -5.2294   19.9485 C.3     1  UNL1        0.0294
     34 O           4.9583   -5.6271   18.6675 O.3     1  UNL1       -0.3866
     35 H           5.6903   -5.3807   18.0807 H       1  UNL1        0.2102
@<TRIPOS>BOND
     1    15    14    1
     2    15    16    1
     3    16    17   ar
     4    17    18   ar
     5    18    19   ar
     6    19    22    1
     7    22    23   ar
     8    23    24   ar
     9    24    25   ar
    10    25    26    1
    11    25    27   ar
    12    27    28    2
    13    27    29   ar
    14    19    20   ar
    15    20    21   ar
    16    15     1    1
    17     1     2    1
    18     2     3    1
    19     3     4    1
    20     4    30    1
    21    30    31    1
    22    31    32    1
    23    31    33    1
    24    31    34    1
    25     4     8    1
    26     8     9   ar
    27     9    10   ar
    28    10    11   ar
    29    11    12   ar
    30    12    13   ar
    31     4     5    1
    32     5     6    1
    33     6     7    2
    34    21    16   ar
    35     6     1   am
    36    29    22   ar
    37    13     8   ar
    38    34    35    1
@<TRIPOS>MOLECULE
*****
 35 38 0 0 0
SMALL
GASTEIGER

@<TRIPOS>ATOM
      1 N           3.3030    0.5838   23.2703 N.am    1  UNL1       -0.2438
      2 C           3.1833   -0.9054   23.1369 C.3     1  UNL1        0.1009
      3 C           3.6524   -1.5864   21.8854 C.3     1  UNL1        0.0662
      4 C           4.2412   -0.7782   20.7673 C.3     1  UNL1        0.1600
      5 O           4.3609    0.7111   20.9008 O.3     1  UNL1       -0.4374
      6 C           3.8918    1.3921   22.1522 C.2     1  UNL1        0.4051
      7 O           4.0115    2.8813   22.2857 O.2     1  UNL1       -0.2262
      8 C           4.3376   -2.1525   20.1740 C.ar    1  UNL1        0.0138
      9 C           3.1190   -2.8053   19.5920 C.ar    1  UNL1       -0.0010
     10 C           3.2154   -4.1797   18.9987 C.ar    1  UNL1       -0.0002
     11 C           4.5305   -4.9011   18.9875 C.ar    1  UNL1       -0.0000
     12 C           5.7491   -4.2483   19.5696 C.ar    1  UNL1       -0.0002
     13 C           5.6527   -2.8740   20.1629 C.ar    1  UNL1       -0.0010
     14 C           3.7564    1.3913   25.6977 C.3     1  UNL1        0.0265
     15 C           2.8339    1.2648   24.5218 C.3     1  UNL1        0.1011
     16 C           1.4421    1.8192   24.5973 C.ar    1  UNL1       -0.0042
     17 C           0.6089    1.5898   25.8233 C.ar    1  UNL1       -0.0027
     18 C          -0.7828    2.1443   25.8988 C.ar    1  UNL1       -0.0003
     19 C          -1.3413    2.9282   24.7483 C.ar    1  UNL1        0.0002
     20 C          -0.5081    3.1576   23.5223 C.ar    1  UNL1       -0.0003
     21 C           0.8836    2.6031   23.4468 C.ar    1  UNL1       -0.0027
     22 C          -2.7330    3.4826   24.8238 C.ar    1  UNL1        0.0062
     23 C          -3.5724    3.5736   23.5840 C.ar    1  UNL1        0.0189
     24 C          -4.9642    4.1281   23.6596 C.ar    1  UNL1        0.0784
     25 N          -5.5165    4.5916   24.9749 N.ar    1  UNL1       -0.2922
     26 C          -6.9082    5.1460   25.0505 C.3     1  UNL1        0.1336
     27 C          -4.6770    4.5006   26.2147 C.ar    1  UNL1        0.2610
     28 O          -5.2293    4.9641   27.5301 O.2     1  UNL1       -0.2670
     29 C          -3.2853    3.9461   26.1391 C.ar    1  UNL1        0.0608
     30 C           4.8635   -0.4472   19.4432 C.3     1  UNL1        0.0714
     31 C           4.6546    0.9074   18.8340 C.3     1  UNL1        0.0922
     32 C           6.0839    1.2584   19.1243 C.3     1  UNL1        0.0294
     33 C           3.2254    0.5566   18.5438 C.3     1  UNL1        0.0294
     34 O           4.4458    2.2622   18.2248 O.3     1  UNL1       -0.3866
     35 H           5.2722    2.7680   18.2705 H       1  UNL1        0.2102
@<TRIPOS>BOND
     1    15    14    1
     2    15    16    1
     3    16    17   ar
     4    17    18   ar
     5    18    19   ar
     6    19    22    1
     7    22    23   ar
     8    23    24   ar
     9    24    25   ar
    10    25    26    1
    11    25    27   ar
    12    27    28    2
    13    27    29   ar
    14    19    20   ar
    15    20    21   ar
    16    15     1    1
    17     1     2    1
    18     2     3    1
    19     3     4    1
    20     4    30    1
    21    30    31    1
    22    31    32    1
    23    31    33    1
    24    31    34    1
    25     4     8    1
    26     8     9   ar
    27     9    10   ar
    28    10    11   ar
    29    11    12   ar
    30    12    13   ar
    31     4     5    1
    32     5     6    1
    33     6     7    2
    34    21    16   ar
    35     6     1   am
    36    29    22   ar
    37    13     8   ar
    38    34    35    1
@<TRIPOS>MOLECULE
*****
 35 38 0 0 0
SMALL
GASTEIGER

@<TRIPOS>ATOM
      1 N           2.8213    1.3922   20.2931 N.am    1  UNL1       -0.2438
      2 C           3.6317    1.3211   21.5533 C.3     1  UNL1        0.1009
      3 C           4.3516    0.0549   21.9117 C.3     1  UNL1        0.0662
      4 C           4.2609   -1.1404   21.0100 C.3     1  UNL1        0.1600
      5 O           3.4504   -1.0694   19.7497 O.3     1  UNL1       -0.4374
      6 C           2.7306    0.1969   19.3913 C.2     1  UNL1        0.4051
      7 O           1.9201    0.2679   18.1312 O.2     1  UNL1       -0.2262
      8 C           5.1467   -1.6932   22.0869 C.ar    1  UNL1        0.0138
      9 C           4.7921   -2.9862   22.7595 C.ar    1  UNL1       -0.0010
     10 C           5.6780   -3.5390   23.8364 C.ar    1  UNL1       -0.0002
     11 C           6.9184   -2.7988   24.2406 C.ar    1  UNL1       -0.0000
     12 C           7.2730   -1.5057   23.5681 C.ar    1  UNL1       -0.0002
     13 C           6.3871   -0.9529   22.4911 C.ar    1  UNL1       -0.0010
     14 C           2.7739    3.6850   19.0722 C.3     1  UNL1        0.0265
     15 C           2.1015    2.6584   19.9347 C.3     1  UNL1        0.1011
     16 C           0.7091    2.8981   20.4388 C.ar    1  UNL1       -0.0042
     17 C          -0.4290    3.0195   19.4694 C.ar    1  UNL1       -0.0027
     18 C          -1.8212    3.2591   19.9735 C.ar    1  UNL1       -0.0003
     19 C          -2.0753    3.3774   21.4471 C.ar    1  UNL1        0.0002
     20 C          -0.9372    3.2560   22.4165 C.ar    1  UNL1       -0.0003
     21 C           0.4550    3.0164   21.9124 C.ar    1  UNL1       -0.0027
     22 C          -3.4677    3.6171   21.9512 C.ar    1  UNL1        0.0062
     23 C          -4.5584    3.9920   20.9922 C.ar    1  UNL1        0.0189
     24 C          -5.9507    4.2316   21.4963 C.ar    1  UNL1        0.0784
     25 N          -6.2522    4.0964   22.9594 N.ar    1  UNL1       -0.2922
     26 C          -7.6445    4.3360   23.4635 C.3     1  UNL1        0.1336
     27 C          -5.1614    3.7214   23.9184 C.ar    1  UNL1        0.2610
     28 O          -5.4630    3.5861   25.3816 O.2     1  UNL1       -0.2670
     29 C          -3.7692    3.4818   23.4143 C.ar    1  UNL1        0.0608
     30 C           4.4779   -2.5276   20.4822 C.3     1  UNL1        0.0714
     31 C           4.6974   -2.7459   19.0146 C.3     1  UNL1        0.0922
     32 C           5.8593   -1.7976   19.0473 C.3     1  UNL1        0.0294
     33 C           3.5357   -3.6941   18.9818 C.3     1  UNL1        0.0294
     34 O           4.9171   -2.9641   17.5469 O.3     1  UNL1       -0.3866
     35 H           5.6727   -2.4330   17.2505 H       1  UNL1        0.2102
@<TRIPOS>BOND
     1    15    14    1
     2    15    16    1
     3    16    17   ar
     4    17    18   ar
     5    18    19   ar
     6    19    22    1
     7    22    23   ar
     8    23    24   ar
     9    24    25   ar
    10    25    26    1
    11    25    27   ar
    12    27    28    2
    13    27    29   ar
    14    19    20   ar
    15    20    21   ar
    16    15     1    1
    17     1     2    1
    18     2     3    1
    19     3     4    1
    20     4    30    1
    21    30    31    1
    22    31    32    1
    23    31    33    1
    24    31    34    1
    25     4     8    1
    26     8     9   ar
    27     9    10   ar
    28    10    11   ar
    29    11    12   ar
    30    12    13   ar
    31     4     5    1
    32     5     6    1
    33     6     7    2
    34    21    16   ar
    35     6     1   am
    36    29    22   ar
    37    13     8   ar
    38    34    35    1
@<TRIPOS>MOLECULE
*****
 35 38 0 0 0
SMALL
GASTEIGER

@<TRIPOS>ATOM
      1 N           3.1035    0.8818   23.2601 N.am    1  UNL1       -0.2438
      2 C           3.0043   -0.6089   23.1258 C.3     1  UNL1        0.1009
      3 C           3.5529   -1.2903   21.9073 C.3     1  UNL1        0.0662
      4 C           4.2007   -0.4811   20.8231 C.3     1  UNL1        0.1600
      5 O           4.3000    1.0096   20.9574 O.3     1  UNL1       -0.4374
      6 C           3.7514    1.6911   22.1758 C.2     1  UNL1        0.4051
      7 O           3.8506    3.1817   22.3101 O.2     1  UNL1       -0.2262
      8 C           4.3437   -1.8567   20.2423 C.ar    1  UNL1        0.0138
      9 C           3.1385   -2.5771   19.7146 C.ar    1  UNL1       -0.0010
     10 C           3.2815   -3.9526   19.1338 C.ar    1  UNL1       -0.0002
     11 C           4.6298   -4.6078   19.0806 C.ar    1  UNL1       -0.0000
     12 C           5.8351   -3.8874   19.6082 C.ar    1  UNL1       -0.0002
     13 C           5.6921   -2.5118   20.1891 C.ar    1  UNL1       -0.0010
     14 C           3.4235    1.7534   25.6865 C.3     1  UNL1        0.0265
     15 C           2.5549    1.5632   24.4785 C.3     1  UNL1        0.1011
     16 C           1.1376    2.0545   24.4889 C.ar    1  UNL1       -0.0042
     17 C           0.2918    1.8784   25.7151 C.ar    1  UNL1       -0.0027
     18 C          -1.1254    2.3697   25.7255 C.ar    1  UNL1       -0.0003
     19 C          -1.6968    3.0371   24.5097 C.ar    1  UNL1        0.0002
     20 C          -0.8509    3.2132   23.2835 C.ar    1  UNL1       -0.0003
     21 C           0.5663    2.7219   23.2732 C.ar    1  UNL1       -0.0027
     22 C          -3.1140    3.5283   24.5201 C.ar    1  UNL1        0.0062
     23 C          -3.7126    4.0648   25.7865 C.ar    1  UNL1        0.0189
     24 C          -5.1299    4.5561   25.7969 C.ar    1  UNL1        0.0784
     25 N          -5.9485    4.5109   24.5409 N.ar    1  UNL1       -0.2922
     26 C          -7.3657    5.0021   24.5512 C.3     1  UNL1        0.1336
     27 C          -5.3499    3.9743   23.2744 C.ar    1  UNL1        0.2610
     28 O          -6.1686    3.9291   22.0183 O.2     1  UNL1       -0.2670
     29 C          -3.9327    3.4831   23.2640 C.ar    1  UNL1        0.0608
     30 C           4.8982   -0.1496   19.5372 C.3     1  UNL1        0.0714
     31 C           4.6497    1.1693   18.8675 C.3     1  UNL1        0.0922
     32 C           3.2483    0.7418   18.5456 C.3     1  UNL1        0.0294
     33 C           6.0509    1.5968   19.1894 C.3     1  UNL1        0.0294
     34 O           4.4010    2.4883   18.1978 O.3     1  UNL1       -0.3866
     35 H           3.4931    2.5119   17.8572 H       1  UNL1        0.2102
@<TRIPOS>BOND
     1    15    14    1
     2    15    16    1
     3    16    17   ar
     4    17    18   ar
     5    18    19   ar
     6    19    22    1
     7    22    23   ar
     8    23    24   ar
     9    24    25   ar
    10    25    26    1
    11    25    27   ar
    12    27    28    2
    13    27    29   ar
    14    19    20   ar
    15    20    21   ar
    16    15     1    1
    17     1     2    1
    18     2     3    1
    19     3     4    1
    20     4    30    1
    21    30    31    1
    22    31    32    1
    23    31    33    1
    24    31    34    1
    25     4     8    1
    26     8     9   ar
    27     9    10   ar
    28    10    11   ar
    29    11    12   ar
    30    12    13   ar
    31     4     5    1
    32     5     6    1
    33     6     7    2
    34    21    16   ar
    35     6     1   am
    36    29    22   ar
    37    13     8   ar
    38    34    35    1
@<TRIPOS>MOLECULE
*****
 35 38 0 0 0
SMALL
GASTEIGER

@<TRIPOS>ATOM
      1 N           2.3796    1.9603   19.5098 N.am    1  UNL1       -0.2438
      2 C           2.2046    0.7061   18.7058 C.3     1  UNL1        0.1009
      3 C           3.0368   -0.5036   19.0123 C.3     1  UNL1        0.0662
      4 C           4.0441   -0.4592   20.1229 C.3     1  UNL1        0.1600
      5 O           4.2192    0.7950   20.9269 O.3     1  UNL1       -0.4374
      6 C           3.3870    2.0047   20.6204 C.2     1  UNL1        0.4051
      7 O           3.5621    3.2589   21.4244 O.2     1  UNL1       -0.2262
      8 C           4.2428   -1.8678   19.6472 C.ar    1  UNL1        0.0138
      9 C           5.6038   -2.3293   19.2172 C.ar    1  UNL1       -0.0010
     10 C           5.8025   -3.7379   18.7415 C.ar    1  UNL1       -0.0002
     11 C           4.6403   -4.6850   18.6958 C.ar    1  UNL1       -0.0000
     12 C           3.2793   -4.2236   19.1257 C.ar    1  UNL1       -0.0002
     13 C           3.0806   -2.8149   19.6014 C.ar    1  UNL1       -0.0010
     14 C           2.0648    4.2175   18.2625 C.3     1  UNL1        0.0265
     15 C           1.5474    3.1700   19.2032 C.3     1  UNL1        0.1011
     16 C           0.1978    3.3322   19.8375 C.ar    1  UNL1       -0.0042
     17 C           0.0487    3.2105   21.3251 C.ar    1  UNL1       -0.0027
     18 C          -1.3009    3.3727   21.9593 C.ar    1  UNL1       -0.0003
     19 C          -2.5014    3.6566   21.1059 C.ar    1  UNL1        0.0002
     20 C          -2.3523    3.7784   19.6184 C.ar    1  UNL1       -0.0003
     21 C          -1.0027    3.6162   18.9842 C.ar    1  UNL1       -0.0027
     22 C          -3.8510    3.8188   21.7402 C.ar    1  UNL1        0.0062
     23 C          -5.0378    4.1788   20.8966 C.ar    1  UNL1        0.0189
     24 C          -6.3875    4.3410   21.5308 C.ar    1  UNL1        0.0784
     25 N          -6.5502    4.1433   23.0088 N.ar    1  UNL1       -0.2922
     26 C          -7.8997    4.3054   23.6431 C.3     1  UNL1        0.1336
     27 C          -5.3633    3.7833   23.8525 C.ar    1  UNL1        0.2610
     28 O          -5.5260    3.5856   25.3305 O.2     1  UNL1       -0.2670
     29 C          -4.0137    3.6211   23.2182 C.ar    1  UNL1        0.0608
     30 C           5.1205   -0.9040   21.0682 C.3     1  UNL1        0.0714
     31 C           5.1075   -0.4359   22.4932 C.3     1  UNL1        0.0922
     32 C           3.7715   -1.0874   22.6951 C.3     1  UNL1        0.0294
     33 C           6.4434    0.2156   22.2914 C.3     1  UNL1        0.0294
     34 O           5.0945    0.0321   23.9183 O.3     1  UNL1       -0.3866
     35 H           4.2771   -0.2643   24.3485 H       1  UNL1        0.2102
@<TRIPOS>BOND
     1    15    14    1
     2    15    16    1
     3    16    17   ar
     4    17    18   ar
     5    18    19   ar
     6    19    22    1
     7    22    23   ar
     8    23    24   ar
     9    24    25   ar
    10    25    26    1
    11    25    27   ar
    12    27    28    2
    13    27    29   ar
    14    19    20   ar
    15    20    21   ar
    16    15     1    1
    17     1     2    1
    18     2     3    1
    19     3     4    1
    20     4    30    1
    21    30    31    1
    22    31    32    1
    23    31    33    1
    24    31    34    1
    25     4     8    1
    26     8     9   ar
    27     9    10   ar
    28    10    11   ar
    29    11    12   ar
    30    12    13   ar
    31     4     5    1
    32     5     6    1
    33     6     7    2
    34    21    16   ar
    35     6     1   am
    36    29    22   ar
    37    13     8   ar
    38    34    35    1
@<TRIPOS>MOLECULE
*****
 35 38 0 0 0
SMALL
GASTEIGER

@<TRIPOS>ATOM
      1 N          -1.9722    4.8912   19.8504 N.am    1  UNL1       -0.2438
      2 C          -2.2804    5.3423   21.2473 C.3     1  UNL1        0.1009
      3 C          -3.6909    5.2979   21.7558 C.3     1  UNL1        0.0662
      4 C          -4.7932    4.8025   20.8673 C.3     1  UNL1        0.1600
      5 O          -4.4850    4.3514   19.4703 O.3     1  UNL1       -0.4374
      6 C          -3.0745    4.3958   18.9618 C.2     1  UNL1        0.4051
      7 O          -2.7663    3.9447   17.5649 O.2     1  UNL1       -0.2262
      8 C          -5.5790    5.1197   22.1050 C.ar    1  UNL1        0.0138
      9 C          -6.5793    4.1338   22.6316 C.ar    1  UNL1       -0.0010
     10 C          -7.3651    4.4510   23.8693 C.ar    1  UNL1       -0.0002
     11 C          -7.1506    5.7543   24.5803 C.ar    1  UNL1       -0.0000
     12 C          -6.1503    6.7402   24.0537 C.ar    1  UNL1       -0.0002
     13 C          -5.3645    6.4230   22.8160 C.ar    1  UNL1       -0.0010
     14 C           0.0330    6.2374   18.8928 C.3     1  UNL1        0.0265
     15 C          -0.5617    4.9356   19.3419 C.3     1  UNL1        0.1011
     16 C           0.2540    3.6782   19.2826 C.ar    1  UNL1       -0.0042
     17 C           1.5792    3.6764   18.5798 C.ar    1  UNL1       -0.0027
     18 C           2.3949    2.4190   18.5205 C.ar    1  UNL1       -0.0003
     19 C           1.8854    1.1634   19.1639 C.ar    1  UNL1        0.0002
     20 C           0.5603    1.1653   19.8667 C.ar    1  UNL1       -0.0003
     21 C          -0.2554    2.4226   19.9260 C.ar    1  UNL1       -0.0027
     22 C           2.7012   -0.0940   19.1046 C.ar    1  UNL1        0.0062
     23 C           2.3501   -1.2580   19.9831 C.ar    1  UNL1        0.0189
     24 C           3.1659   -2.5154   19.9238 C.ar    1  UNL1        0.0784
     25 N           4.3327   -2.6088   18.9859 N.ar    1  UNL1       -0.2922
     26 C           5.1485   -3.8662   18.9265 C.3     1  UNL1        0.1336
     27 C           4.6838   -1.4448   18.1073 C.ar    1  UNL1        0.2610
     28 O           5.8507   -1.5382   17.1694 O.2     1  UNL1       -0.2670
     29 C           3.8681   -0.1874   18.1667 C.ar    1  UNL1        0.0608
     30 C          -6.1685    4.4172   20.4086 C.3     1  UNL1        0.0714
     31 C          -6.5866    4.6767   18.9917 C.3     1  UNL1        0.0922
     32 C          -6.6389    3.1994   18.7366 C.3     1  UNL1        0.0294
     33 C          -6.5344    6.1538   19.2468 C.3     1  UNL1        0.0294
     34 O          -7.0048    4.9360   17.5747 O.3     1  UNL1       -0.3866
     35 H          -7.1268    4.0913   17.1138 H       1  UNL1        0.2102
@<TRIPOS>BOND
     1    15    14    1
     2    15    16    1
     3    16    17   ar
     4    17    18   ar
     5    18    19   ar
     6    19    22    1
     7    22    23   ar
     8    23    24   ar
     9    24    25   ar
    10    25    26    1
    11    25    27   ar
    12    27    28    2
    13    27    29   ar
    14    19    20   ar
    15    20    21   ar
    16    15     1    1
    17     1     2    1
    18     2     3    1
    19     3     4    1
    20     4    30    1
    21    30    31    1
    22    31    32    1
    23    31    33    1
    24    31    34    1
    25     4     8    1
    26     8     9   ar
    27     9    10   ar
    28    10    11   ar
    29    11    12   ar
    30    12    13   ar
    31     4     5    1
    32     5     6    1
    33     6     7    2
    34    21    16   ar
    35     6     1   am
    36    29    22   ar
    37    13     8   ar
    38    34    35    1
@<TRIPOS>MOLECULE
*****
 35 38 0 0 0
SMALL
GASTEIGER

@<TRIPOS>ATOM
      1 N           4.6982   -1.1360   31.4223 N.am    1  UNL1       -0.2438
      2 C           3.2214   -0.8919   31.5191 C.3     1  UNL1        0.1009
      3 C           2.4896   -0.2566   30.3741 C.3     1  UNL1        0.0662
      4 C           3.2346    0.1347   29.1325 C.3     1  UNL1        0.1600
      5 O           4.7115   -0.1094   29.0357 O.3     1  UNL1       -0.4374
      6 C           5.4433   -0.7447   30.1806 C.2     1  UNL1        0.4051
      7 O           6.9202   -0.9887   30.0839 O.2     1  UNL1       -0.2262
      8 C           1.8494    0.5667   28.7521 C.ar    1  UNL1        0.0138
      9 C           0.7001   -0.3860   28.8981 C.ar    1  UNL1       -0.0010
     10 C          -0.6851    0.0460   28.5177 C.ar    1  UNL1       -0.0002
     11 C          -0.9208    1.4307   27.9914 C.ar    1  UNL1       -0.0000
     12 C           0.2286    2.3834   27.8454 C.ar    1  UNL1       -0.0002
     13 C           1.6138    1.9514   28.2258 C.ar    1  UNL1       -0.0010
     14 C           5.9045   -3.1901   32.4593 C.3     1  UNL1        0.0265
     15 C           5.4300   -1.7713   32.5673 C.3     1  UNL1        0.1011
     16 C           5.6872   -0.9877   33.8203 C.ar    1  UNL1       -0.0042
     17 C           6.9701   -0.2267   33.9788 C.ar    1  UNL1       -0.0027
     18 C           7.2273    0.5569   35.2318 C.ar    1  UNL1       -0.0003
     19 C           6.2016    0.5794   36.3261 C.ar    1  UNL1        0.0002
     20 C           4.9188   -0.1816   36.1675 C.ar    1  UNL1       -0.0003
     21 C           4.6616   -0.9651   34.9146 C.ar    1  UNL1       -0.0027
     22 C           6.4589    1.3630   37.5791 C.ar    1  UNL1        0.0062
     23 C           7.8581    1.5062   38.1002 C.ar    1  UNL1        0.0189
     24 C           8.1154    2.2898   39.3531 C.ar    1  UNL1        0.0784
     25 N           6.9733    2.9302   40.0850 N.ar    1  UNL1       -0.2922
     26 C           7.2305    3.7138   41.3379 C.3     1  UNL1        0.1336
     27 C           5.5740    2.7870   39.5638 C.ar    1  UNL1        0.2610
     28 O           4.4319    3.4274   40.2957 O.2     1  UNL1       -0.2670
     29 C           5.3168    2.0034   38.3109 C.ar    1  UNL1        0.0608
     30 C           3.4987    0.6760   27.7587 C.3     1  UNL1        0.0714
     31 C           4.5267    0.0257   26.8811 C.3     1  UNL1        0.0922
     32 C           3.7096   -1.2319   26.8557 C.3     1  UNL1        0.0294
     33 C           5.3438    1.2834   26.9065 C.3     1  UNL1        0.0294
     34 O           5.5547   -0.6246   26.0035 O.3     1  UNL1       -0.3866
     35 H           5.2781   -1.5315   25.7989 H       1  UNL1        0.2102
@<TRIPOS>BOND
     1    15    14    1
     2    15    16    1
     3    16    17   ar
     4    17    18   ar
     5    18    19   ar
     6    19    22    1
     7    22    23   ar
     8    23    24   ar
     9    24    25   ar
    10    25    26    1
    11    25    27   ar
    12    27    28    2
    13    27    29   ar
    14    19    20   ar
    15    20    21   ar
    16    15     1    1
    17     1     2    1
    18     2     3    1
    19     3     4    1
    20     4    30    1
    21    30    31    1
    22    31    32    1
    23    31    33    1
    24    31    34    1
    25     4     8    1
    26     8     9   ar
    27     9    10   ar
    28    10    11   ar
    29    11    12   ar
    30    12    13   ar
    31     4     5    1
    32     5     6    1
    33     6     7    2
    34    21    16   ar
    35     6     1   am
    36    29    22   ar
    37    13     8   ar
    38    34    35    1
@<TRIPOS>MOLECULE
*****
 35 38 0 0 0
SMALL
GASTEIGER

@<TRIPOS>ATOM
      1 N          -1.1044    3.8998   19.0956 N.am    1  UNL1       -0.2438
      2 C          -1.0557    4.0678   20.5854 C.3     1  UNL1        0.1009
      3 C          -2.3294    4.1837   21.3691 C.3     1  UNL1        0.0662
      4 C          -3.6518    4.1315   20.6632 C.3     1  UNL1        0.1600
      5 O          -3.7006    3.9635   19.1734 O.3     1  UNL1       -0.4374
      6 C          -2.4269    3.8476   18.3896 C.2     1  UNL1        0.4051
      7 O          -2.4757    3.6796   16.8999 O.2     1  UNL1       -0.2262
      8 C          -4.1187    4.3020   22.0785 C.ar    1  UNL1        0.0138
      9 C          -3.9456    5.6209   22.7716 C.ar    1  UNL1       -0.0010
     10 C          -4.4125    5.7914   24.1869 C.ar    1  UNL1       -0.0002
     11 C          -5.0524    4.6429   24.9090 C.ar    1  UNL1       -0.0000
     12 C          -5.2254    3.3240   24.2159 C.ar    1  UNL1       -0.0002
     13 C          -4.7586    3.1535   22.8006 C.ar    1  UNL1       -0.0010
     14 C           0.4682    4.7650   17.2173 C.3     1  UNL1        0.0265
     15 C           0.1692    3.7839   18.3119 C.3     1  UNL1        0.1011
     16 C           1.1440    2.6870   18.6227 C.ar    1  UNL1       -0.0042
     17 C           0.6572    1.2795   18.8016 C.ar    1  UNL1       -0.0027
     18 C           1.6320    0.1827   19.1125 C.ar    1  UNL1       -0.0003
     19 C           3.0935    0.4932   19.2445 C.ar    1  UNL1        0.0002
     20 C           3.5803    1.9007   19.0656 C.ar    1  UNL1       -0.0003
     21 C           2.6056    2.9976   18.7547 C.ar    1  UNL1       -0.0027
     22 C           4.0683   -0.6037   19.5553 C.ar    1  UNL1        0.0062
     23 C           5.5411   -0.3197   19.5582 C.ar    1  UNL1        0.0189
     24 C           6.5159   -1.4167   19.8691 C.ar    1  UNL1        0.0784
     25 N           6.0178   -2.7976   20.1771 N.ar    1  UNL1       -0.2922
     26 C           6.9925   -3.8945   20.4879 C.3     1  UNL1        0.1336
     27 C           4.5449   -3.0816   20.1741 C.ar    1  UNL1        0.2610
     28 O           4.0467   -4.4625   20.4821 O.2     1  UNL1       -0.2670
     29 C           3.5702   -1.9847   19.8633 C.ar    1  UNL1        0.0608
     30 C          -5.1364    4.1385   20.4487 C.3     1  UNL1        0.0714
     31 C          -5.7042    4.6266   19.1490 C.3     1  UNL1        0.0922
     32 C          -6.1499    3.2326   18.8201 C.3     1  UNL1        0.0294
     33 C          -5.2585    6.0206   19.4778 C.3     1  UNL1        0.0294
     34 O          -6.2719    5.1147   17.8492 O.3     1  UNL1       -0.3866
     35 H          -6.6660    4.3700   17.3686 H       1  UNL1        0.2102
@<TRIPOS>BOND
     1    15    14    1
     2    15    16    1
     3    16    17   ar
     4    17    18   ar
     5    18    19   ar
     6    19    22    1
     7    22    23   ar
     8    23    24   ar
     9    24    25   ar
    10    25    26    1
    11    25    27   ar
    12    27    28    2
    13    27    29   ar
    14    19    20   ar
    15    20    21   ar
    16    15     1    1
    17     1     2    1
    18     2     3    1
    19     3     4    1
    20     4    30    1
    21    30    31    1
    22    31    32    1
    23    31    33    1
    24    31    34    1
    25     4     8    1
    26     8     9   ar
    27     9    10   ar
    28    10    11   ar
    29    11    12   ar
    30    12    13   ar
    31     4     5    1
    32     5     6    1
    33     6     7    2
    34    21    16   ar
    35     6     1   am
    36    29    22   ar
    37    13     8   ar
    38    34    35    1
