@<TRIPOS>MOLECULE
*****
 32 34 0 0 0
SMALL
GASTEIGER

@<TRIPOS>ATOM
      1 C          -4.8200  -18.5919   22.2773 C.ar    1  UNL1        0.0764
      2 C          -5.3221  -17.4494   23.1097 C.ar    1  UNL1        0.0522
      3 C          -4.4950  -16.2064   23.2540 C.ar    1  UNL1        0.1515
      4 N          -3.1658  -16.1059   22.5661 N.ar    1  UNL1       -0.1329
      5 N          -2.6637  -17.2483   21.7338 N.ar    1  UNL1       -0.1409
      6 C          -3.4908  -18.4913   21.5894 C.ar    1  UNL1        0.1691
      7 C          -2.9887  -19.6338   20.7571 C.2     1  UNL1        0.2635
      8 N          -3.6246  -19.9325   19.4318 N.am    1  UNL1       -0.3240
      9 O          -1.8507  -20.4775   21.2501 O.2     1  UNL1       -0.2686
     10 H          -4.3715  -19.3787   19.1083 H       1  UNL1        0.1453
     11 H          -3.2951  -20.6823   18.8856 H       1  UNL1        0.1453
     12 N          -5.6471  -19.8349   22.1329 N.pl3   1  UNL1       -0.2965
     13 H          -5.2384  -20.7181   22.2818 H       1  UNL1        0.1537
     14 C         -10.6577  -19.8650   23.5089 C.3     1  UNL1        0.0530
     15 C          -9.6021  -19.7472   22.4497 C.ar    1  UNL1        0.0713
     16 N          -8.1524  -19.8500   22.8209 N.ar    1  UNL1       -0.2341
     17 C          -7.0968  -19.7322   21.7617 C.ar    1  UNL1        0.1318
     18 C          -7.4909  -19.5116   20.3313 C.ar    1  UNL1        0.0353
     19 C          -8.9406  -19.4089   19.9601 C.ar    1  UNL1        0.0155
     20 C          -9.9962  -19.5267   21.0193 C.ar    1  UNL1        0.0713
     21 CL        -11.4459  -19.4240   20.6481 Cl      1  UNL1       -0.0810
     22 N          -4.9970  -15.0640   24.0863 N.pl3   1  UNL1       -0.3170
     23 H          -4.5905  -14.1720   23.9944 H       1  UNL1        0.1482
     24 C          -6.1184  -15.2805   25.0587 C.3     1  UNL1        0.0845
     25 C          -5.8183  -15.6836   26.4720 C.3     1  UNL1        0.0209
     26 C          -6.9397  -15.9001   27.4444 C.3     1  UNL1        0.0018
     27 C          -8.3612  -15.7135   27.0035 C.3     1  UNL1        0.0015
     28 C          -8.6614  -15.3104   25.5902 C.3     1  UNL1        0.0172
     29 C          -7.5400  -15.0939   24.6178 C.3     1  UNL1        0.0689
     30 N          -7.8401  -14.6908   23.2045 N.3     1  UNL1       -0.3209
     31 H          -6.9669  -14.5883   22.6874 H       1  UNL1        0.1189
     32 H          -8.3420  -13.8028   23.2035 H       1  UNL1        0.1189
@<TRIPOS>BOND
     1    14    15    1
     2    15    16   ar
     3    16    17   ar
     4    17    12    1
     5    12     1    1
     6     1     2   ar
     7     2     3   ar
     8     3    22    1
     9    24    22    1
    10    24    25    1
    11    25    26    1
    12    26    27    1
    13    27    28    1
    14    28    29    1
    15    29    30    1
    16     3     4   ar
    17     4     5   ar
    18     5     6   ar
    19     6     7    1
    20     7     8   am
    21     7     9    2
    22    17    18   ar
    23    18    19   ar
    24    19    20   ar
    25    20    21    1
    26    20    15   ar
    27     6     1   ar
    28    29    24    1
    29    12    13    1
    30    22    23    1
    31    30    31    1
    32    30    32    1
    33     8    10    1
    34     8    11    1
@<TRIPOS>MOLECULE
*****
 32 34 0 0 0
SMALL
GASTEIGER

@<TRIPOS>ATOM
      1 C          -7.0099  -18.7776   21.5383 C.ar    1  UNL1        0.0764
      2 C          -7.1407  -17.5944   22.4510 C.ar    1  UNL1        0.0522
      3 C          -8.3251  -16.6818   22.3309 C.ar    1  UNL1        0.1515
      4 N          -9.3787  -16.9525   21.2980 N.ar    1  UNL1       -0.1329
      5 N          -9.2479  -18.1356   20.3853 N.ar    1  UNL1       -0.1409
      6 C          -8.0635  -19.0482   20.5055 C.ar    1  UNL1        0.1691
      7 C          -7.9327  -20.2314   19.5927 C.2     1  UNL1        0.2635
      8 N          -8.9599  -20.4734   18.5268 N.am    1  UNL1       -0.3240
      9 O          -6.7747  -21.1724   19.7460 O.2     1  UNL1       -0.2686
     10 H          -9.7199  -19.8558   18.4262 H       1  UNL1        0.1453
     11 H          -8.8740  -21.2500   17.9277 H       1  UNL1        0.1453
     12 N          -5.8255  -19.6902   21.6584 N.pl3   1  UNL1       -0.2965
     13 H          -5.9461  -20.6138   21.9772 H       1  UNL1        0.1537
     14 C          -2.6356  -17.3635   18.2804 C.3     1  UNL1        0.0530
     15 C          -2.8625  -18.0321   19.6038 C.ar    1  UNL1        0.0713
     16 N          -4.2305  -18.5268   19.9694 N.ar    1  UNL1       -0.2341
     17 C          -4.4574  -19.1954   21.2928 C.ar    1  UNL1        0.1318
     18 C          -3.3163  -19.3693   22.2507 C.ar    1  UNL1        0.0353
     19 C          -1.9483  -18.8746   21.8851 C.ar    1  UNL1        0.0155
     20 C          -1.7214  -18.2060   20.5617 C.ar    1  UNL1        0.0713
     21 CL         -0.3532  -17.7113   20.1961 Cl      1  UNL1       -0.0810
     22 N          -8.4559  -15.4987   23.2435 N.pl3   1  UNL1       -0.3170
     23 H          -8.9643  -14.7071   22.9535 H       1  UNL1        0.1482
     24 C          -7.8122  -15.5217   24.5982 C.3     1  UNL1        0.0845
     25 C          -8.6164  -15.9075   25.8042 C.3     1  UNL1        0.0209
     26 C          -7.9726  -15.9305   27.1589 C.3     1  UNL1        0.0018
     27 C          -6.5248  -15.5677   27.3075 C.3     1  UNL1        0.0015
     28 C          -5.7207  -15.1819   26.1015 C.3     1  UNL1        0.0172
     29 C          -6.3643  -15.1589   24.7468 C.3     1  UNL1        0.0689
     30 N          -5.5602  -14.7732   23.5408 N.3     1  UNL1       -0.3209
     31 H          -6.1521  -14.8115   22.7110 H       1  UNL1        0.1189
     32 H          -4.7793  -15.4202   23.4316 H       1  UNL1        0.1189
@<TRIPOS>BOND
     1    14    15    1
     2    15    16   ar
     3    16    17   ar
     4    17    12    1
     5    12     1    1
     6     1     2   ar
     7     2     3   ar
     8     3    22    1
     9    24    22    1
    10    24    25    1
    11    25    26    1
    12    26    27    1
    13    27    28    1
    14    28    29    1
    15    29    30    1
    16     3     4   ar
    17     4     5   ar
    18     5     6   ar
    19     6     7    1
    20     7     8   am
    21     7     9    2
    22    17    18   ar
    23    18    19   ar
    24    19    20   ar
    25    20    21    1
    26    20    15   ar
    27     6     1   ar
    28    29    24    1
    29    12    13    1
    30    22    23    1
    31    30    31    1
    32    30    32    1
    33     8    10    1
    34     8    11    1
@<TRIPOS>MOLECULE
*****
 32 34 0 0 0
SMALL
GASTEIGER

@<TRIPOS>ATOM
      1 C          -5.4249  -18.7008   22.1816 C.ar    1  UNL1        0.0764
      2 C          -5.7915  -17.5059   23.0111 C.ar    1  UNL1        0.0522
      3 C          -4.7821  -16.4232   23.2537 C.ar    1  UNL1        0.1515
      4 N          -3.4062  -16.5354   22.6668 N.ar    1  UNL1       -0.1329
      5 N          -3.0397  -17.7302   21.8373 N.ar    1  UNL1       -0.1409
      6 C          -4.0491  -18.8129   21.5947 C.ar    1  UNL1        0.1691
      7 C          -3.6826  -20.0078   20.7652 C.2     1  UNL1        0.2635
      8 N          -2.2803  -20.5394   20.7943 N.am    1  UNL1       -0.3240
      9 O          -4.7184  -20.6710   19.9066 O.2     1  UNL1       -0.2686
     10 H          -1.6004  -20.1041   21.3579 H       1  UNL1        0.1453
     11 H          -2.0397  -21.3236   20.2499 H       1  UNL1        0.1453
     12 N          -6.4343  -19.7836   21.9390 N.pl3   1  UNL1       -0.2965
     13 H          -6.1349  -20.6968   21.7256 H       1  UNL1        0.1537
     14 C         -10.7020  -17.6334   19.8983 C.3     1  UNL1        0.0530
     15 C         -10.0337  -18.3997   21.0011 C.ar    1  UNL1        0.0713
     16 N          -8.5682  -18.7085   20.9187 N.ar    1  UNL1       -0.2341
     17 C          -7.8999  -19.4748   22.0215 C.ar    1  UNL1        0.1318
     18 C          -8.6972  -19.9323   23.2068 C.ar    1  UNL1        0.0353
     19 C         -10.1627  -19.6235   23.2893 C.ar    1  UNL1        0.0155
     20 C         -10.8310  -18.8572   22.1865 C.ar    1  UNL1        0.0713
     21 CL        -12.2966  -18.5484   22.2690 Cl      1  UNL1       -0.0810
     22 N          -5.1485  -15.2284   24.0831 N.pl3   1  UNL1       -0.3170
     23 H          -4.6809  -14.3727   23.9473 H       1  UNL1        0.1482
     24 C          -6.2275  -15.3373   25.1195 C.3     1  UNL1        0.0845
     25 C          -5.8783  -15.7124   26.5292 C.3     1  UNL1        0.0209
     26 C          -6.9573  -15.8213   27.5655 C.3     1  UNL1        0.0018
     27 C          -8.3854  -15.5550   27.1921 C.3     1  UNL1        0.0015
     28 C          -8.7346  -15.1798   25.7824 C.3     1  UNL1        0.0172
     29 C          -7.6557  -15.0709   24.7461 C.3     1  UNL1        0.0689
     30 N          -8.0049  -14.6957   23.3364 N.3     1  UNL1       -0.3209
     31 H          -7.1561  -14.6690   22.7715 H       1  UNL1        0.1189
     32 H          -8.4475  -13.7768   23.3288 H       1  UNL1        0.1189
@<TRIPOS>BOND
     1    14    15    1
     2    15    16   ar
     3    16    17   ar
     4    17    12    1
     5    12     1    1
     6     1     2   ar
     7     2     3   ar
     8     3    22    1
     9    24    22    1
    10    24    25    1
    11    25    26    1
    12    26    27    1
    13    27    28    1
    14    28    29    1
    15    29    30    1
    16     3     4   ar
    17     4     5   ar
    18     5     6   ar
    19     6     7    1
    20     7     8   am
    21     7     9    2
    22    17    18   ar
    23    18    19   ar
    24    19    20   ar
    25    20    21    1
    26    20    15   ar
    27     6     1   ar
    28    29    24    1
    29    12    13    1
    30    22    23    1
    31    30    31    1
    32    30    32    1
    33     8    10    1
    34     8    11    1
@<TRIPOS>MOLECULE
*****
 32 34 0 0 0
SMALL
GASTEIGER

@<TRIPOS>ATOM
      1 C          -4.2716  -17.6234   22.4260 C.ar    1  UNL1        0.0764
      2 C          -5.4811  -18.5071   22.5046 C.ar    1  UNL1        0.0522
      3 C          -5.5743  -19.7296   21.6404 C.ar    1  UNL1        0.1515
      4 N          -4.4579  -20.0683   20.6975 N.ar    1  UNL1       -0.1329
      5 N          -3.2484  -19.1846   20.6189 N.ar    1  UNL1       -0.1409
      6 C          -3.1553  -17.9622   21.4831 C.ar    1  UNL1        0.1691
      7 C          -1.9457  -17.0785   21.4044 C.2     1  UNL1        0.2635
      8 N          -0.6151  -17.6601   21.0287 N.am    1  UNL1       -0.3240
      9 O          -2.0668  -15.6132   21.7015 O.2     1  UNL1       -0.2686
     10 H          -0.5356  -18.6218   20.8337 H       1  UNL1        0.1453
     11 H           0.1787  -17.0801   20.9771 H       1  UNL1        0.1453
     12 N          -4.1784  -16.4010   23.2902 N.pl3   1  UNL1       -0.2965
     13 H          -3.4041  -15.7984   23.2089 H       1  UNL1        0.1537
     14 C          -9.2270  -15.9150   24.4195 C.3     1  UNL1        0.0530
     15 C          -7.7894  -15.8536   24.8430 C.ar    1  UNL1        0.0713
     16 N          -6.7027  -16.1580   23.8549 N.ar    1  UNL1       -0.2341
     17 C          -5.2651  -16.0965   24.2784 C.ar    1  UNL1        0.1318
     18 C          -4.9141  -15.7306   25.6901 C.ar    1  UNL1        0.0353
     19 C          -6.0007  -15.4262   26.6783 C.ar    1  UNL1        0.0155
     20 C          -7.4384  -15.4877   26.2547 C.ar    1  UNL1        0.0713
     21 CL         -8.5251  -15.1832   27.2429 Cl      1  UNL1       -0.0810
     22 N          -6.7838  -20.6133   21.7190 N.pl3   1  UNL1       -0.3170
     23 H          -6.6845  -21.5905   21.6529 H       1  UNL1        0.1482
     24 C          -8.1444  -20.0080   21.8984 C.3     1  UNL1        0.0845
     25 C          -8.8378  -20.1012   23.2252 C.3     1  UNL1        0.0209
     26 C         -10.1985  -19.4958   23.4045 C.3     1  UNL1        0.0018
     27 C         -10.8658  -18.7974   22.2570 C.3     1  UNL1        0.0015
     28 C         -10.1724  -18.7042   20.9301 C.3     1  UNL1        0.0172
     29 C          -8.8118  -19.3095   20.7508 C.3     1  UNL1        0.0689
     30 N          -8.1184  -19.2163   19.4239 N.3     1  UNL1       -0.3209
     31 H          -7.2106  -19.6778   19.4816 H       1  UNL1        0.1189
     32 H          -7.9861  -18.2354   19.1776 H       1  UNL1        0.1189
@<TRIPOS>BOND
     1    14    15    1
     2    15    16   ar
     3    16    17   ar
     4    17    12    1
     5    12     1    1
     6     1     2   ar
     7     2     3   ar
     8     3    22    1
     9    24    22    1
    10    24    25    1
    11    25    26    1
    12    26    27    1
    13    27    28    1
    14    28    29    1
    15    29    30    1
    16     3     4   ar
    17     4     5   ar
    18     5     6   ar
    19     6     7    1
    20     7     8   am
    21     7     9    2
    22    17    18   ar
    23    18    19   ar
    24    19    20   ar
    25    20    21    1
    26    20    15   ar
    27     6     1   ar
    28    29    24    1
    29    12    13    1
    30    22    23    1
    31    30    31    1
    32    30    32    1
    33     8    10    1
    34     8    11    1
@<TRIPOS>MOLECULE
*****
 32 34 0 0 0
SMALL
GASTEIGER

@<TRIPOS>ATOM
      1 C          -6.6013  -15.4837   23.9617 C.ar    1  UNL1        0.0764
      2 C          -7.5776  -15.6530   22.8355 C.ar    1  UNL1        0.0522
      3 C          -9.0330  -15.8654   23.1302 C.ar    1  UNL1        0.1515
      4 N          -9.5120  -15.9086   24.5511 N.ar    1  UNL1       -0.1329
      5 N          -8.5357  -15.7393   25.6771 N.ar    1  UNL1       -0.1409
      6 C          -7.0804  -15.5269   25.3825 C.ar    1  UNL1        0.1691
      7 C          -6.1040  -15.3576   26.5087 C.2     1  UNL1        0.2635
      8 N          -6.4185  -14.4242   27.6400 N.am    1  UNL1       -0.3240
      9 O          -4.8133  -16.1218   26.5035 O.2     1  UNL1       -0.2686
     10 H          -7.2656  -13.9227   27.6433 H       1  UNL1        0.1453
     11 H          -5.7777  -14.3132   28.3791 H       1  UNL1        0.1453
     12 N          -5.1460  -15.2713   23.6670 N.pl3   1  UNL1       -0.2965
     13 H          -4.7199  -14.4112   23.8858 H       1  UNL1        0.1537
     14 C          -1.1452  -16.7980   20.7237 C.3     1  UNL1        0.0530
     15 C          -2.3395  -17.1327   21.5673 C.ar    1  UNL1        0.0713
     16 N          -3.1456  -16.0347   22.1954 N.ar    1  UNL1       -0.2341
     17 C          -4.3398  -16.3694   23.0390 C.ar    1  UNL1        0.1318
     18 C          -4.7280  -17.8021   23.2546 C.ar    1  UNL1        0.0353
     19 C          -3.9219  -18.9002   22.6265 C.ar    1  UNL1        0.0155
     20 C          -2.7276  -18.5654   21.7829 C.ar    1  UNL1        0.0713
     21 CL         -1.9215  -19.6636   21.1549 Cl      1  UNL1       -0.0810
     22 N         -10.0093  -16.0346   22.0041 N.pl3   1  UNL1       -0.3170
     23 H         -10.6635  -15.3253   21.8090 H       1  UNL1        0.1482
     24 C          -9.9889  -17.2847   21.1754 C.3     1  UNL1        0.0845
     25 C          -8.8625  -18.2641   21.3230 C.3     1  UNL1        0.0209
     26 C          -8.8421  -19.5143   20.4942 C.3     1  UNL1        0.0018
     27 C          -9.9481  -19.7849   19.5178 C.3     1  UNL1        0.0015
     28 C         -11.0746  -18.8054   19.3701 C.3     1  UNL1        0.0172
     29 C         -11.0950  -17.5553   20.1989 C.3     1  UNL1        0.0689
     30 N         -12.2214  -16.5759   20.0512 N.3     1  UNL1       -0.3209
     31 H         -12.0749  -15.7910   20.6860 H       1  UNL1        0.1189
     32 H         -13.1035  -17.0356   20.2770 H       1  UNL1        0.1189
@<TRIPOS>BOND
     1    14    15    1
     2    15    16   ar
     3    16    17   ar
     4    17    12    1
     5    12     1    1
     6     1     2   ar
     7     2     3   ar
     8     3    22    1
     9    24    22    1
    10    24    25    1
    11    25    26    1
    12    26    27    1
    13    27    28    1
    14    28    29    1
    15    29    30    1
    16     3     4   ar
    17     4     5   ar
    18     5     6   ar
    19     6     7    1
    20     7     8   am
    21     7     9    2
    22    17    18   ar
    23    18    19   ar
    24    19    20   ar
    25    20    21    1
    26    20    15   ar
    27     6     1   ar
    28    29    24    1
    29    12    13    1
    30    22    23    1
    31    30    31    1
    32    30    32    1
    33     8    10    1
    34     8    11    1
@<TRIPOS>MOLECULE
*****
 32 34 0 0 0
SMALL
GASTEIGER

@<TRIPOS>ATOM
      1 C          -7.4824  -17.8689   23.1272 C.ar    1  UNL1        0.0764
      2 C          -6.5387  -18.7838   22.4044 C.ar    1  UNL1        0.0522
      3 C          -5.0940  -18.4076   22.2579 C.ar    1  UNL1        0.1515
      4 N          -4.5931  -17.1164   22.8342 N.ar    1  UNL1       -0.1329
      5 N          -5.5369  -16.2016   23.5570 N.ar    1  UNL1       -0.1409
      6 C          -6.9815  -16.5779   23.7035 C.ar    1  UNL1        0.1691
      7 C          -7.9253  -15.6630   24.4263 C.2     1  UNL1        0.2635
      8 N          -7.8914  -14.1874   24.1592 N.am    1  UNL1       -0.3240
      9 O          -8.9028  -16.2238   25.4162 O.2     1  UNL1       -0.2686
     10 H          -7.2498  -13.8193   23.5095 H       1  UNL1        0.1453
     11 H          -8.5108  -13.5869   24.6336 H       1  UNL1        0.1453
     12 N          -8.9270  -18.2452   23.2736 N.pl3   1  UNL1       -0.2965
     13 H          -9.1998  -18.8916   23.9643 H       1  UNL1        0.1537
     14 C         -10.2192  -14.7994   19.6053 C.3     1  UNL1        0.0530
     15 C         -10.6022  -15.9136   20.5336 C.ar    1  UNL1        0.0713
     16 N          -9.5732  -16.5223   21.4394 N.ar    1  UNL1       -0.2341
     17 C          -9.9562  -17.6365   22.3678 C.ar    1  UNL1        0.1318
     18 C         -11.3682  -18.1421   22.3903 C.ar    1  UNL1        0.0353
     19 C         -12.3972  -17.5334   21.4845 C.ar    1  UNL1        0.0155
     20 C         -12.0142  -16.4192   20.5561 C.ar    1  UNL1        0.0713
     21 CL        -13.0433  -15.8105   19.6503 Cl      1  UNL1       -0.0810
     22 N          -4.1503  -19.3224   21.5351 N.pl3   1  UNL1       -0.3170
     23 H          -4.2476  -20.2982   21.6217 H       1  UNL1        0.1482
     24 C          -3.0583  -18.7504   20.6805 C.3     1  UNL1        0.0845
     25 C          -3.2278  -18.6847   19.1916 C.3     1  UNL1        0.0209
     26 C          -2.1358  -18.1126   18.3370 C.3     1  UNL1        0.0018
     27 C          -0.8744  -17.6063   18.9713 C.3     1  UNL1        0.0015
     28 C          -0.7049  -17.6720   20.4602 C.3     1  UNL1        0.0172
     29 C          -1.7968  -18.2440   21.3148 C.3     1  UNL1        0.0689
     30 N          -1.6274  -18.3097   22.8038 N.3     1  UNL1       -0.3209
     31 H          -2.4600  -18.7238   23.2228 H       1  UNL1        0.1189
     32 H          -1.4934  -17.3682   23.1726 H       1  UNL1        0.1189
@<TRIPOS>BOND
     1    14    15    1
     2    15    16   ar
     3    16    17   ar
     4    17    12    1
     5    12     1    1
     6     1     2   ar
     7     2     3   ar
     8     3    22    1
     9    24    22    1
    10    24    25    1
    11    25    26    1
    12    26    27    1
    13    27    28    1
    14    28    29    1
    15    29    30    1
    16     3     4   ar
    17     4     5   ar
    18     5     6   ar
    19     6     7    1
    20     7     8   am
    21     7     9    2
    22    17    18   ar
    23    18    19   ar
    24    19    20   ar
    25    20    21    1
    26    20    15   ar
    27     6     1   ar
    28    29    24    1
    29    12    13    1
    30    22    23    1
    31    30    31    1
    32    30    32    1
    33     8    10    1
    34     8    11    1
@<TRIPOS>MOLECULE
*****
 32 34 0 0 0
SMALL
GASTEIGER

@<TRIPOS>ATOM
      1 C          -6.3324  -16.1352   23.8772 C.ar    1  UNL1        0.0764
      2 C          -5.1232  -16.7682   23.2549 C.ar    1  UNL1        0.0522
      3 C          -3.9701  -17.1898   24.1166 C.ar    1  UNL1        0.1515
      4 N          -4.0262  -16.9784   25.6007 N.ar    1  UNL1       -0.1329
      5 N          -5.2354  -16.3455   26.2229 N.ar    1  UNL1       -0.1409
      6 C          -6.3885  -15.9239   25.3612 C.ar    1  UNL1        0.1691
      7 C          -7.5977  -15.2909   25.9835 C.2     1  UNL1        0.2635
      8 N          -7.5006  -14.6648   27.3431 N.am    1  UNL1       -0.3240
      9 O          -8.9039  -15.2840   25.2461 O.2     1  UNL1       -0.2686
     10 H          -6.6433  -14.6693   27.8270 H       1  UNL1        0.1453
     11 H          -8.2943  -14.2493   27.7515 H       1  UNL1        0.1453
     12 N          -7.4856  -15.7136   23.0155 N.pl3   1  UNL1       -0.2965
     13 H          -7.6358  -14.7591   22.8267 H       1  UNL1        0.1537
     14 C         -11.4684  -16.9662   19.9222 C.3     1  UNL1        0.0530
     15 C         -10.4012  -17.3726   20.8948 C.ar    1  UNL1        0.0713
     16 N          -9.4770  -16.3400   21.4689 N.ar    1  UNL1       -0.2341
     17 C          -8.4098  -16.7463   22.4415 C.ar    1  UNL1        0.1318
     18 C          -8.2668  -18.1853   22.8400 C.ar    1  UNL1        0.0353
     19 C          -9.1910  -19.2179   22.2660 C.ar    1  UNL1        0.0155
     20 C         -10.2582  -18.8115   21.2934 C.ar    1  UNL1        0.0713
     21 CL        -11.1824  -19.8442   20.7194 Cl      1  UNL1       -0.0810
     22 N          -2.7609  -17.8228   23.4944 N.pl3   1  UNL1       -0.3170
     23 H          -1.9319  -17.9189   24.0166 H       1  UNL1        0.1482
     24 C          -2.8149  -18.3093   22.0765 C.3     1  UNL1        0.0845
     25 C          -3.5416  -19.5793   21.7465 C.3     1  UNL1        0.0209
     26 C          -3.5955  -20.0658   20.3285 C.3     1  UNL1        0.0018
     27 C          -2.9228  -19.2822   19.2407 C.3     1  UNL1        0.0015
     28 C          -2.1961  -18.0121   19.5708 C.3     1  UNL1        0.0172
     29 C          -2.1422  -17.5257   20.9886 C.3     1  UNL1        0.0689
     30 N          -1.4155  -16.2556   21.3187 N.3     1  UNL1       -0.3209
     31 H          -1.4798  -16.0777   22.3210 H       1  UNL1        0.1189
     32 H          -1.8373  -15.4800   20.8079 H       1  UNL1        0.1189
@<TRIPOS>BOND
     1    14    15    1
     2    15    16   ar
     3    16    17   ar
     4    17    12    1
     5    12     1    1
     6     1     2   ar
     7     2     3   ar
     8     3    22    1
     9    24    22    1
    10    24    25    1
    11    25    26    1
    12    26    27    1
    13    27    28    1
    14    28    29    1
    15    29    30    1
    16     3     4   ar
    17     4     5   ar
    18     5     6   ar
    19     6     7    1
    20     7     8   am
    21     7     9    2
    22    17    18   ar
    23    18    19   ar
    24    19    20   ar
    25    20    21    1
    26    20    15   ar
    27     6     1   ar
    28    29    24    1
    29    12    13    1
    30    22    23    1
    31    30    31    1
    32    30    32    1
    33     8    10    1
    34     8    11    1
@<TRIPOS>MOLECULE
*****
 32 34 0 0 0
SMALL
GASTEIGER

@<TRIPOS>ATOM
      1 C          -5.3444  -18.1314   22.0930 C.ar    1  UNL1        0.0764
      2 C          -6.7810  -18.5483   22.2039 C.ar    1  UNL1        0.0522
      3 C          -7.2985  -19.6847   21.3728 C.ar    1  UNL1        0.1515
      4 N          -6.3793  -20.4042   20.4307 N.ar    1  UNL1       -0.1329
      5 N          -4.9427  -19.9873   20.3198 N.ar    1  UNL1       -0.1409
      6 C          -4.4252  -18.8509   21.1510 C.ar    1  UNL1        0.1691
      7 C          -2.9885  -18.4340   21.0401 C.2     1  UNL1        0.2635
      8 N          -1.9256  -19.2058   21.7642 N.am    1  UNL1       -0.3240
      9 O          -2.6149  -17.2453   20.2050 O.2     1  UNL1       -0.2686
     10 H          -2.1709  -19.9860   22.3123 H       1  UNL1        0.1453
     11 H          -0.9827  -18.9322   21.6914 H       1  UNL1        0.1453
     12 N          -4.8269  -16.9950   22.9242 N.pl3   1  UNL1       -0.2965
     13 H          -3.9493  -16.5972   22.7222 H       1  UNL1        0.1537
     14 C          -9.4248  -15.5606   24.8740 C.3     1  UNL1        0.0530
     15 C          -7.9455  -15.7475   25.0379 C.ar    1  UNL1        0.0713
     16 N          -7.1258  -16.2778   23.8991 N.ar    1  UNL1       -0.2341
     17 C          -5.6466  -16.4647   24.0631 C.ar    1  UNL1        0.1318
     18 C          -4.9870  -16.1215   25.3658 C.ar    1  UNL1        0.0353
     19 C          -5.8067  -15.5913   26.5046 C.ar    1  UNL1        0.0155
     20 C          -7.2860  -15.4043   26.3406 C.ar    1  UNL1        0.0713
     21 CL         -8.1057  -14.8741   27.4795 Cl      1  UNL1       -0.0810
     22 N          -8.7351  -20.1016   21.4836 N.pl3   1  UNL1       -0.3170
     23 H          -8.9630  -21.0473   21.6350 H       1  UNL1        0.1482
     24 C          -9.8246  -19.0775   21.3639 C.3     1  UNL1        0.0845
     25 C         -10.2488  -18.5884   20.0109 C.3     1  UNL1        0.0209
     26 C         -11.3383  -17.5643   19.8912 C.3     1  UNL1        0.0018
     27 C         -12.0035  -17.0294   21.1246 C.3     1  UNL1        0.0015
     28 C         -11.5793  -17.5185   22.4776 C.3     1  UNL1        0.0172
     29 C         -10.4898  -18.5425   22.5973 C.3     1  UNL1        0.0689
     30 N         -10.0656  -19.0316   23.9504 N.3     1  UNL1       -0.3209
     31 H          -9.3200  -19.7195   23.8449 H       1  UNL1        0.1189
     32 H         -10.8614  -19.4623   24.4212 H       1  UNL1        0.1189
@<TRIPOS>BOND
     1    14    15    1
     2    15    16   ar
     3    16    17   ar
     4    17    12    1
     5    12     1    1
     6     1     2   ar
     7     2     3   ar
     8     3    22    1
     9    24    22    1
    10    24    25    1
    11    25    26    1
    12    26    27    1
    13    27    28    1
    14    28    29    1
    15    29    30    1
    16     3     4   ar
    17     4     5   ar
    18     5     6   ar
    19     6     7    1
    20     7     8   am
    21     7     9    2
    22    17    18   ar
    23    18    19   ar
    24    19    20   ar
    25    20    21    1
    26    20    15   ar
    27     6     1   ar
    28    29    24    1
    29    12    13    1
    30    22    23    1
    31    30    31    1
    32    30    32    1
    33     8    10    1
    34     8    11    1
@<TRIPOS>MOLECULE
*****
 32 34 0 0 0
SMALL
GASTEIGER

@<TRIPOS>ATOM
      1 C          -7.0646  -16.8232   22.5206 C.ar    1  UNL1        0.0764
      2 C          -6.2148  -17.8157   21.7838 C.ar    1  UNL1        0.0522
      3 C          -4.9250  -18.2907   22.3845 C.ar    1  UNL1        0.1515
      4 N          -4.4850  -17.7732   23.7219 N.ar    1  UNL1       -0.1329
      5 N          -5.3349  -16.7808   24.4586 N.ar    1  UNL1       -0.1409
      6 C          -6.6247  -16.3058   23.8580 C.ar    1  UNL1        0.1691
      7 C          -7.4745  -15.3133   24.5948 C.2     1  UNL1        0.2635
      8 N          -7.7984  -13.9904   23.9663 N.am    1  UNL1       -0.3240
      9 O          -8.0005  -15.6438   25.9601 O.2     1  UNL1       -0.2686
     10 H          -7.4531  -13.7735   23.0702 H       1  UNL1        0.1453
     11 H          -8.3561  -13.3391   24.4499 H       1  UNL1        0.1453
     12 N          -8.3545  -16.3483   21.9200 N.pl3   1  UNL1       -0.2965
     13 H          -8.3429  -15.7101   21.1704 H       1  UNL1        0.1537
     14 C         -11.0156  -19.6220   24.9533 C.3     1  UNL1        0.0530
     15 C         -10.9925  -18.4825   23.9781 C.ar    1  UNL1        0.0713
     16 N          -9.6851  -17.9851   23.4367 N.ar    1  UNL1       -0.2341
     17 C          -9.6620  -16.8457   22.4614 C.ar    1  UNL1        0.1318
     18 C         -10.9463  -16.2036   22.0276 C.ar    1  UNL1        0.0353
     19 C         -12.2537  -16.7010   22.5690 C.ar    1  UNL1        0.0155
     20 C         -12.2768  -17.8405   23.5443 C.ar    1  UNL1        0.0713
     21 CL        -13.5843  -18.3379   24.0857 Cl      1  UNL1       -0.0810
     22 N          -4.0751  -19.2831   21.6477 N.pl3   1  UNL1       -0.3170
     23 H          -4.2218  -20.2481   21.7762 H       1  UNL1        0.1482
     24 C          -3.0017  -18.8052   20.7153 C.3     1  UNL1        0.0845
     25 C          -3.2708  -18.7213   19.2420 C.3     1  UNL1        0.0209
     26 C          -2.1974  -18.2434   18.3095 C.3     1  UNL1        0.0018
     27 C          -0.8550  -17.8494   18.8504 C.3     1  UNL1        0.0015
     28 C          -0.5859  -17.9333   20.3237 C.3     1  UNL1        0.0172
     29 C          -1.6592  -18.4112   21.2561 C.3     1  UNL1        0.0689
     30 N          -1.3901  -18.4950   22.7294 N.3     1  UNL1       -0.3209
     31 H          -2.2234  -18.8368   23.2083 H       1  UNL1        0.1189
     32 H          -1.1495  -17.5695   23.0843 H       1  UNL1        0.1189
@<TRIPOS>BOND
     1    14    15    1
     2    15    16   ar
     3    16    17   ar
     4    17    12    1
     5    12     1    1
     6     1     2   ar
     7     2     3   ar
     8     3    22    1
     9    24    22    1
    10    24    25    1
    11    25    26    1
    12    26    27    1
    13    27    28    1
    14    28    29    1
    15    29    30    1
    16     3     4   ar
    17     4     5   ar
    18     5     6   ar
    19     6     7    1
    20     7     8   am
    21     7     9    2
    22    17    18   ar
    23    18    19   ar
    24    19    20   ar
    25    20    21    1
    26    20    15   ar
    27     6     1   ar
    28    29    24    1
    29    12    13    1
    30    22    23    1
    31    30    31    1
    32    30    32    1
    33     8    10    1
    34     8    11    1
