@<TRIPOS>MOLECULE
*****
 29 32 0 0 0
SMALL
GASTEIGER

@<TRIPOS>ATOM
      1 C          -3.7102  -20.3564   20.3927 C.3     1  UNL1        0.0294
      2 C          -5.0620  -19.8472   19.9883 C.3     1  UNL1        0.0666
      3 S          -6.2892  -20.3269   20.7050 S.3     1  UNL1       -0.0756
      4 C          -9.7841  -18.6395   20.7685 C.ar    1  UNL1        0.2029
      5 N          -9.5255  -18.7152   19.2929 N.ar    1  UNL1       -0.1250
      6 N          -8.1849  -19.3565   19.0895 N.ar    1  UNL1       -0.1220
      7 C          -7.6149  -19.6772   20.4394 C.ar    1  UNL1        0.1933
      8 N          -8.6032  -19.2340   21.4771 N.ar    1  UNL1       -0.2860
      9 C          -8.4395  -19.3628   22.9625 C.3     1  UNL1        0.1341
     10 C         -11.4003  -15.9704   19.8128 C.3     1  UNL1        0.0556
     11 C         -11.7514  -16.8425   20.9816 C.ar    1  UNL1        0.1001
     12 N         -12.9071  -16.6409   21.9164 N.ar    1  UNL1       -0.2085
     13 C         -12.8784  -17.7432   22.9334 C.ar    1  UNL1        0.2849
     14 O         -11.7050  -18.6260   22.6272 O.2     1  UNL1       -0.4283
     15 C         -11.0085  -18.0694   21.4210 C.ar    1  UNL1        0.1964
     16 C          -3.0634  -19.8516   21.6484 C.3     1  UNL1        0.0732
     17 N          -3.2129  -18.4120   22.0426 N.3     1  UNL1       -0.2682
     18 C          -2.2797  -17.3801   21.4822 C.3     1  UNL1        0.1046
     19 C          -2.4293  -15.9406   21.8765 C.3     1  UNL1        0.1598
     20 O          -3.5121  -15.5331   22.8312 O.3     1  UNL1       -0.3489
     21 C          -4.4453  -16.5650   23.3916 C.3     1  UNL1        0.1534
     22 C          -4.2957  -18.0045   22.9973 C.3     1  UNL1        0.1067
     23 C          -5.5281  -16.1575   24.3463 C.ar    1  UNL1        0.0060
     24 C          -5.1914  -15.8494   25.7752 C.ar    1  UNL1        0.0004
     25 C          -6.2742  -15.4419   26.7298 C.ar    1  UNL1        0.0294
     26 C          -7.6938  -15.3425   26.2557 C.ar    1  UNL1        0.1401
     27 F          -8.7766  -14.9350   27.2104 F       1  UNL1       -0.2042
     28 C          -8.0305  -15.6506   24.8269 C.ar    1  UNL1        0.0294
     29 C          -6.9477  -16.0581   23.8722 C.ar    1  UNL1        0.0004
@<TRIPOS>BOND
     1    10    11    1
     2    11    12   ar
     3    12    13   ar
     4    13    14   ar
     5    14    15   ar
     6    15     4    1
     7     4     5   ar
     8     5     6   ar
     9     6     7   ar
    10     7     3    1
    11     3     2    1
    12     2     1    1
    13     1    16    1
    14    16    17    1
    15    17    18    1
    16    18    19    1
    17    19    20    1
    18    20    21    1
    19    21    23    1
    20    23    24   ar
    21    24    25   ar
    22    25    26   ar
    23    26    27    1
    24    26    28   ar
    25    28    29   ar
    26    21    22    1
    27     7     8   ar
    28     8     9    1
    29    15    11   ar
    30     8     4   ar
    31    22    17    1
    32    29    23   ar
@<TRIPOS>MOLECULE
*****
 29 32 0 0 0
SMALL
GASTEIGER

@<TRIPOS>ATOM
      1 C         -10.5068  -19.0699   19.6360 C.3     1  UNL1        0.0294
      2 C         -11.0434  -17.7141   19.9879 C.3     1  UNL1        0.0666
      3 S         -11.0470  -17.2565   21.4163 S.3     1  UNL1       -0.0756
      4 C          -8.0925  -15.8561   23.5080 C.ar    1  UNL1        0.2029
      5 N          -7.8973  -15.1314   22.2092 N.ar    1  UNL1       -0.1250
      6 N          -8.9803  -15.5678   21.2676 N.ar    1  UNL1       -0.1220
      7 C          -9.8448  -16.5622   21.9844 C.ar    1  UNL1        0.1933
      8 N          -9.2961  -16.7403   23.3690 N.ar    1  UNL1       -0.2860
      9 C          -9.8532  -17.6441   24.4287 C.3     1  UNL1        0.1341
     10 C          -4.8612  -16.2927   23.6425 C.3     1  UNL1        0.0556
     11 C          -5.7494  -15.9211   24.7928 C.ar    1  UNL1        0.1001
     12 N          -5.3082  -15.6848   26.2069 N.ar    1  UNL1       -0.2085
     13 C          -6.5209  -15.3381   27.0189 C.ar    1  UNL1        0.2849
     14 O          -7.7114  -15.3601   26.1068 O.2     1  UNL1       -0.4283
     15 C          -7.2347  -15.7203   24.7310 C.ar    1  UNL1        0.1964
     16 C          -9.0694  -19.2273   19.2369 C.3     1  UNL1        0.0732
     17 N          -8.0156  -19.4156   20.2877 N.3     1  UNL1       -0.2682
     18 C          -8.3980  -19.8988   21.6553 C.3     1  UNL1        0.1046
     19 C          -7.3442  -20.0871   22.7060 C.3     1  UNL1        0.1598
     20 O          -5.9080  -19.7923   22.3891 O.3     1  UNL1       -0.3489
     21 C          -5.5256  -19.3092   21.0215 C.3     1  UNL1        0.1534
     22 C          -6.5794  -19.1209   19.9708 C.3     1  UNL1        0.1067
     23 C          -4.0894  -19.0144   20.7046 C.ar    1  UNL1        0.0060
     24 C          -3.0569  -19.0597   21.7917 C.ar    1  UNL1        0.0004
     25 C          -1.6207  -18.7649   21.4748 C.ar    1  UNL1        0.0294
     26 C          -1.2170  -18.4249   20.0708 C.ar    1  UNL1        0.1401
     27 F           0.2192  -18.1301   19.7539 F       1  UNL1       -0.2042
     28 C          -2.2495  -18.3796   18.9837 C.ar    1  UNL1        0.0294
     29 C          -3.6857  -18.6743   19.3006 C.ar    1  UNL1        0.0004
@<TRIPOS>BOND
     1    10    11    1
     2    11    12   ar
     3    12    13   ar
     4    13    14   ar
     5    14    15   ar
     6    15     4    1
     7     4     5   ar
     8     5     6   ar
     9     6     7   ar
    10     7     3    1
    11     3     2    1
    12     2     1    1
    13     1    16    1
    14    16    17    1
    15    17    18    1
    16    18    19    1
    17    19    20    1
    18    20    21    1
    19    21    23    1
    20    23    24   ar
    21    24    25   ar
    22    25    26   ar
    23    26    27    1
    24    26    28   ar
    25    28    29   ar
    26    21    22    1
    27     7     8   ar
    28     8     9    1
    29    15    11   ar
    30     8     4   ar
    31    22    17    1
    32    29    23   ar
@<TRIPOS>MOLECULE
*****
 29 32 0 0 0
SMALL
GASTEIGER

@<TRIPOS>ATOM
      1 C          -3.5421  -20.4418   20.5227 C.3     1  UNL1        0.0294
      2 C          -4.9023  -19.9674   20.1043 C.3     1  UNL1        0.0666
      3 S          -6.1298  -20.5818   20.7090 S.3     1  UNL1       -0.0756
      4 C          -9.2381  -18.3349   21.3048 C.ar    1  UNL1        0.2029
      5 N          -8.6405  -18.3737   22.6801 N.ar    1  UNL1       -0.1250
      6 N          -7.4034  -19.2201   22.6243 N.ar    1  UNL1       -0.1220
      7 C          -7.2364  -19.7044   21.2145 C.ar    1  UNL1        0.1933
      8 N          -8.3703  -19.1574   20.3991 N.ar    1  UNL1       -0.2860
      9 C          -8.5966  -19.3916   18.9349 C.3     1  UNL1        0.1341
     10 C         -12.1311  -18.5126   22.8043 C.3     1  UNL1        0.0556
     11 C         -11.8144  -17.6840   21.5947 C.ar    1  UNL1        0.1001
     12 N         -12.7718  -16.7916   20.8620 N.ar    1  UNL1       -0.2085
     13 C         -12.0337  -16.1584   19.7198 C.ar    1  UNL1        0.2849
     14 O         -10.6201  -16.6594   19.7467 O.2     1  UNL1       -0.4283
     15 C         -10.4846  -17.6023   20.9054 C.ar    1  UNL1        0.1964
     16 C          -2.8841  -19.8560   21.7367 C.3     1  UNL1        0.0732
     17 N          -3.0716  -18.4042   22.0645 N.3     1  UNL1       -0.2682
     18 C          -2.1795  -17.3730   21.4395 C.3     1  UNL1        0.1046
     19 C          -2.3669  -15.9213   21.7673 C.3     1  UNL1        0.1598
     20 O          -3.4465  -15.5009   22.7200 O.3     1  UNL1       -0.3489
     21 C          -4.3386  -16.5321   23.3450 C.3     1  UNL1        0.1534
     22 C          -4.1511  -17.9838   23.0172 C.3     1  UNL1        0.1067
     23 C          -5.4182  -16.1117   24.2977 C.ar    1  UNL1        0.0060
     24 C          -5.1259  -16.0115   25.7655 C.ar    1  UNL1        0.0004
     25 C          -6.2055  -15.5911   26.7183 C.ar    1  UNL1        0.0294
     26 C          -7.5774  -15.2709   26.2033 C.ar    1  UNL1        0.1401
     27 F          -8.6570  -14.8504   27.1560 F       1  UNL1       -0.2042
     28 C          -7.8697  -15.3710   24.7355 C.ar    1  UNL1        0.0294
     29 C          -6.7901  -15.7914   23.7827 C.ar    1  UNL1        0.0004
@<TRIPOS>BOND
     1    10    11    1
     2    11    12   ar
     3    12    13   ar
     4    13    14   ar
     5    14    15   ar
     6    15     4    1
     7     4     5   ar
     8     5     6   ar
     9     6     7   ar
    10     7     3    1
    11     3     2    1
    12     2     1    1
    13     1    16    1
    14    16    17    1
    15    17    18    1
    16    18    19    1
    17    19    20    1
    18    20    21    1
    19    21    23    1
    20    23    24   ar
    21    24    25   ar
    22    25    26   ar
    23    26    27    1
    24    26    28   ar
    25    28    29   ar
    26    21    22    1
    27     7     8   ar
    28     8     9    1
    29    15    11   ar
    30     8     4   ar
    31    22    17    1
    32    29    23   ar
@<TRIPOS>MOLECULE
*****
 29 32 0 0 0
SMALL
GASTEIGER

@<TRIPOS>ATOM
      1 C          -4.0590  -16.8117   24.1687 C.3     1  UNL1        0.0294
      2 C          -4.9353  -15.6357   23.8534 C.3     1  UNL1        0.0666
      3 S          -6.3451  -15.5927   24.3640 S.3     1  UNL1       -0.0756
      4 C          -9.6615  -16.1784   22.4345 C.ar    1  UNL1        0.2029
      5 N          -8.8609  -15.4260   21.4132 N.ar    1  UNL1       -0.1250
      6 N          -7.5212  -15.1150   22.0117 N.ar    1  UNL1       -0.1220
      7 C          -7.4937  -15.6752   23.4029 C.ar    1  UNL1        0.1933
      8 N          -8.8165  -16.3325   23.6642 N.ar    1  UNL1       -0.2860
      9 C          -9.2229  -17.0225   24.9324 C.3     1  UNL1        0.1341
     10 C         -11.4481  -15.9691   19.7116 C.3     1  UNL1        0.0556
     11 C         -11.8825  -16.5912   21.0055 C.ar    1  UNL1        0.1001
     12 N         -13.2144  -17.2264   21.2751 N.ar    1  UNL1       -0.2085
     13 C         -13.2163  -17.7151   22.6933 C.ar    1  UNL1        0.2849
     14 O         -11.8856  -17.3821   23.3002 O.2     1  UNL1       -0.4283
     15 C         -11.0613  -16.6875   22.2571 C.ar    1  UNL1        0.1964
     16 C          -3.2190  -17.4312   23.0914 C.3     1  UNL1        0.0732
     17 N          -3.8418  -18.3707   22.1017 N.3     1  UNL1       -0.2682
     18 C          -2.9727  -19.1687   21.1755 C.3     1  UNL1        0.1046
     19 C          -3.5956  -20.1081   20.1859 C.3     1  UNL1        0.1598
     20 O          -5.0875  -20.2495   20.1223 O.3     1  UNL1       -0.3489
     21 C          -5.9567  -19.4515   21.0485 C.3     1  UNL1        0.1534
     22 C          -5.3338  -18.5121   22.0381 C.3     1  UNL1        0.1067
     23 C          -7.4486  -19.5930   20.9850 C.ar    1  UNL1        0.0060
     24 C          -8.2404  -19.7620   22.2477 C.ar    1  UNL1        0.0004
     25 C          -9.7324  -19.9034   22.1842 C.ar    1  UNL1        0.0294
     26 C         -10.4326  -19.8758   20.8579 C.ar    1  UNL1        0.1401
     27 F         -11.9245  -20.0173   20.7944 F       1  UNL1       -0.2042
     28 C          -9.6408  -19.7069   19.5952 C.ar    1  UNL1        0.0294
     29 C          -8.1488  -19.5654   19.6587 C.ar    1  UNL1        0.0004
@<TRIPOS>BOND
     1    10    11    1
     2    11    12   ar
     3    12    13   ar
     4    13    14   ar
     5    14    15   ar
     6    15     4    1
     7     4     5   ar
     8     5     6   ar
     9     6     7   ar
    10     7     3    1
    11     3     2    1
    12     2     1    1
    13     1    16    1
    14    16    17    1
    15    17    18    1
    16    18    19    1
    17    19    20    1
    18    20    21    1
    19    21    23    1
    20    23    24   ar
    21    24    25   ar
    22    25    26   ar
    23    26    27    1
    24    26    28   ar
    25    28    29   ar
    26    21    22    1
    27     7     8   ar
    28     8     9    1
    29    15    11   ar
    30     8     4   ar
    31    22    17    1
    32    29    23   ar
@<TRIPOS>MOLECULE
*****
 29 32 0 0 0
SMALL
GASTEIGER

@<TRIPOS>ATOM
      1 C          -7.9730  -19.4774   19.5486 C.3     1  UNL1        0.0294
      2 C          -7.3860  -20.5798   20.3795 C.3     1  UNL1        0.0666
      3 S          -6.6739  -20.2564   21.6595 S.3     1  UNL1       -0.0756
      4 C          -3.2969  -18.4253   21.1042 C.ar    1  UNL1        0.2029
      5 N          -3.9415  -17.5402   22.1295 N.ar    1  UNL1       -0.1250
      6 N          -5.2849  -18.1185   22.4623 N.ar    1  UNL1       -0.1220
      7 C          -5.4707  -19.3609   21.6427 C.ar    1  UNL1        0.1933
      8 N          -4.2421  -19.5506   20.8033 N.ar    1  UNL1       -0.2860
      9 C          -4.0009  -20.6691   19.8334 C.3     1  UNL1        0.1341
     10 C          -2.7056  -17.1882   18.1428 C.3     1  UNL1        0.0556
     11 C          -1.6729  -17.6524   19.1268 C.ar    1  UNL1        0.1001
     12 N          -0.1871  -17.6294   18.9223 N.ar    1  UNL1       -0.2085
     13 C           0.4594  -18.1839   20.1571 C.ar    1  UNL1        0.2849
     14 O          -0.6269  -18.5496   21.1247 O.2     1  UNL1       -0.4283
     15 C          -1.9447  -18.2211   20.4880 C.ar    1  UNL1        0.1964
     16 C          -9.4393  -19.1732   19.6341 C.3     1  UNL1        0.0732
     17 N          -9.9321  -18.1154   20.5766 N.3     1  UNL1       -0.2682
     18 C         -11.2547  -17.4511   20.3331 C.3     1  UNL1        0.1046
     19 C         -11.7475  -16.3934   21.2757 C.3     1  UNL1        0.1598
     20 O         -10.9177  -16.0001   22.4617 O.3     1  UNL1       -0.3489
     21 C          -9.5951  -16.6644   22.7053 C.3     1  UNL1        0.1534
     22 C          -9.1023  -17.7221   21.7627 C.3     1  UNL1        0.1067
     23 C          -8.7653  -16.2711   23.8913 C.ar    1  UNL1        0.0060
     24 C          -9.1908  -16.6756   25.2716 C.ar    1  UNL1        0.0004
     25 C          -8.3610  -16.2823   26.4577 C.ar    1  UNL1        0.0294
     26 C          -7.1057  -15.4845   26.2634 C.ar    1  UNL1        0.1401
     27 F          -6.2759  -15.0912   27.4495 F       1  UNL1       -0.2042
     28 C          -6.6803  -15.0800   24.8831 C.ar    1  UNL1        0.0294
     29 C          -7.5101  -15.4733   23.6971 C.ar    1  UNL1        0.0004
@<TRIPOS>BOND
     1    10    11    1
     2    11    12   ar
     3    12    13   ar
     4    13    14   ar
     5    14    15   ar
     6    15     4    1
     7     4     5   ar
     8     5     6   ar
     9     6     7   ar
    10     7     3    1
    11     3     2    1
    12     2     1    1
    13     1    16    1
    14    16    17    1
    15    17    18    1
    16    18    19    1
    17    19    20    1
    18    20    21    1
    19    21    23    1
    20    23    24   ar
    21    24    25   ar
    22    25    26   ar
    23    26    27    1
    24    26    28   ar
    25    28    29   ar
    26    21    22    1
    27     7     8   ar
    28     8     9    1
    29    15    11   ar
    30     8     4   ar
    31    22    17    1
    32    29    23   ar
@<TRIPOS>MOLECULE
*****
 29 32 0 0 0
SMALL
GASTEIGER

@<TRIPOS>ATOM
      1 C          -3.9414  -18.9608   21.1150 C.3     1  UNL1        0.0294
      2 C          -2.6350  -18.6800   21.7965 C.3     1  UNL1        0.0666
      3 S          -2.3524  -17.3115   22.3418 S.3     1  UNL1       -0.0756
      4 C          -5.2704  -15.6189   24.2615 C.ar    1  UNL1        0.2029
      5 N          -5.1377  -14.7099   23.0757 N.ar    1  UNL1       -0.1250
      6 N          -4.0284  -15.2333   22.2122 N.ar    1  UNL1       -0.1220
      7 C          -3.4756  -16.4658   22.8644 C.ar    1  UNL1        0.1933
      8 N          -4.2432  -16.7041   24.1309 N.ar    1  UNL1       -0.2860
      9 C          -4.0223  -17.8299   25.0972 C.3     1  UNL1        0.1341
     10 C          -8.5102  -15.9252   24.0172 C.3     1  UNL1        0.0556
     11 C          -7.7463  -15.6098   25.2690 C.ar    1  UNL1        0.1001
     12 N          -8.3374  -15.3798   26.6283 N.ar    1  UNL1       -0.2085
     13 C          -7.2135  -15.0968   27.5806 C.ar    1  UNL1        0.2849
     14 O          -5.9279  -15.1519   26.8100 O.2     1  UNL1       -0.4283
     15 C          -6.2571  -15.4690   25.3813 C.ar    1  UNL1        0.1964
     16 C          -5.1482  -19.3257   21.9277 C.3     1  UNL1        0.0732
     17 N          -6.5038  -19.3550   21.2861 N.3     1  UNL1       -0.2682
     18 C          -6.6364  -19.6798   19.8278 C.3     1  UNL1        0.1046
     19 C          -7.9919  -19.7091   19.1862 C.3     1  UNL1        0.1598
     20 O          -9.2148  -19.4136   20.0030 O.3     1  UNL1       -0.3489
     21 C          -9.0822  -19.0888   21.4614 C.3     1  UNL1        0.1534
     22 C          -7.7267  -19.0595   22.1029 C.3     1  UNL1        0.1067
     23 C         -10.3051  -18.7932   22.2782 C.ar    1  UNL1        0.0060
     24 C         -11.4674  -18.0776   21.6563 C.ar    1  UNL1        0.0004
     25 C         -12.6903  -17.7820   22.4732 C.ar    1  UNL1        0.0294
     26 C         -12.7509  -18.2022   23.9118 C.ar    1  UNL1        0.1401
     27 F         -13.9738  -17.9066   24.7286 F       1  UNL1       -0.2042
     28 C         -11.5885  -18.9178   24.5336 C.ar    1  UNL1        0.0294
     29 C         -10.3656  -19.2134   23.7168 C.ar    1  UNL1        0.0004
@<TRIPOS>BOND
     1    10    11    1
     2    11    12   ar
     3    12    13   ar
     4    13    14   ar
     5    14    15   ar
     6    15     4    1
     7     4     5   ar
     8     5     6   ar
     9     6     7   ar
    10     7     3    1
    11     3     2    1
    12     2     1    1
    13     1    16    1
    14    16    17    1
    15    17    18    1
    16    18    19    1
    17    19    20    1
    18    20    21    1
    19    21    23    1
    20    23    24   ar
    21    24    25   ar
    22    25    26   ar
    23    26    27    1
    24    26    28   ar
    25    28    29   ar
    26    21    22    1
    27     7     8   ar
    28     8     9    1
    29    15    11   ar
    30     8     4   ar
    31    22    17    1
    32    29    23   ar
@<TRIPOS>MOLECULE
*****
 29 32 0 0 0
SMALL
GASTEIGER

@<TRIPOS>ATOM
      1 C          -7.3658  -14.8297   24.7149 C.3     1  UNL1        0.0294
      2 C          -6.2492  -15.4930   25.4654 C.3     1  UNL1        0.0666
      3 S          -5.4756  -16.6086   24.8276 S.3     1  UNL1       -0.0756
      4 C          -2.9092  -16.5956   21.9157 C.ar    1  UNL1        0.2029
      5 N          -3.1744  -15.1278   22.0750 N.ar    1  UNL1       -0.1250
      6 N          -4.1681  -14.9541   23.1852 N.ar    1  UNL1       -0.1220
      7 C          -4.5170  -16.3144   23.7121 C.ar    1  UNL1        0.1933
      8 N          -3.7390  -17.3289   22.9275 N.ar    1  UNL1       -0.2860
      9 C          -3.7830  -18.8158   23.1208 C.3     1  UNL1        0.1341
     10 C          -3.7673  -18.5702   19.4633 C.3     1  UNL1        0.0556
     11 C          -2.3723  -18.1279   19.7924 C.ar    1  UNL1        0.1001
     12 N          -1.1267  -18.5156   19.0519 N.ar    1  UNL1       -0.2085
     13 C           0.0375  -17.8476   19.7216 C.ar    1  UNL1        0.2849
     14 O          -0.4885  -17.0470   20.8759 O.2     1  UNL1       -0.4283
     15 C          -1.9778  -17.2203   20.9196 C.ar    1  UNL1        0.1964
     16 C          -8.7726  -15.3263   24.8701 C.3     1  UNL1        0.0732
     17 N          -9.1022  -16.7560   24.5576 N.3     1  UNL1       -0.2682
     18 C          -9.5415  -17.6812   25.6535 C.3     1  UNL1        0.1046
     19 C          -9.8710  -19.1107   25.3410 C.3     1  UNL1        0.1598
     20 O          -9.7611  -19.6152   23.9327 O.3     1  UNL1       -0.3489
     21 C          -9.3218  -18.6900   22.8368 C.3     1  UNL1        0.1534
     22 C          -8.9923  -17.2604   23.1493 C.3     1  UNL1        0.1067
     23 C          -9.2119  -19.1944   21.4284 C.ar    1  UNL1        0.0060
     24 C          -7.8614  -19.4122   20.8130 C.ar    1  UNL1        0.0004
     25 C          -7.7515  -19.9166   19.4046 C.ar    1  UNL1        0.0294
     26 C          -8.9921  -20.2033   18.6117 C.ar    1  UNL1        0.1401
     27 F          -8.8822  -20.7077   17.2033 F       1  UNL1       -0.2042
     28 C         -10.3426  -19.9855   19.2271 C.ar    1  UNL1        0.0294
     29 C         -10.4524  -19.4811   20.6355 C.ar    1  UNL1        0.0004
@<TRIPOS>BOND
     1    10    11    1
     2    11    12   ar
     3    12    13   ar
     4    13    14   ar
     5    14    15   ar
     6    15     4    1
     7     4     5   ar
     8     5     6   ar
     9     6     7   ar
    10     7     3    1
    11     3     2    1
    12     2     1    1
    13     1    16    1
    14    16    17    1
    15    17    18    1
    16    18    19    1
    17    19    20    1
    18    20    21    1
    19    21    23    1
    20    23    24   ar
    21    24    25   ar
    22    25    26   ar
    23    26    27    1
    24    26    28   ar
    25    28    29   ar
    26    21    22    1
    27     7     8   ar
    28     8     9    1
    29    15    11   ar
    30     8     4   ar
    31    22    17    1
    32    29    23   ar
@<TRIPOS>MOLECULE
*****
 29 32 0 0 0
SMALL
GASTEIGER

@<TRIPOS>ATOM
      1 C          -4.5923  -19.2611   20.1134 C.3     1  UNL1        0.0294
      2 C          -3.1028  -19.4372   20.1318 C.3     1  UNL1        0.0666
      3 S          -2.2430  -18.4734   20.8944 S.3     1  UNL1       -0.0756
      4 C          -4.2377  -16.1334   23.2631 C.ar    1  UNL1        0.2029
      5 N          -3.4583  -15.1356   22.4587 N.ar    1  UNL1       -0.1250
      6 N          -2.6163  -15.8907   21.4735 N.ar    1  UNL1       -0.1220
      7 C          -2.8751  -17.3552   21.6690 C.ar    1  UNL1        0.1933
      8 N          -3.8772  -17.5051   22.7750 N.ar    1  UNL1       -0.2860
      9 C          -4.4231  -18.7996   23.3007 C.3     1  UNL1        0.1341
     10 C          -7.4021  -15.4306   22.8861 C.3     1  UNL1        0.0556
     11 C          -6.6618  -15.4922   24.1892 C.ar    1  UNL1        0.1001
     12 N          -7.2460  -15.2415   25.5479 N.ar    1  UNL1       -0.2085
     13 C          -6.1524  -15.4097   26.5608 C.ar    1  UNL1        0.2849
     14 O          -4.8924  -15.7642   25.8282 O.2     1  UNL1       -0.4283
     15 C          -5.2072  -15.8152   24.3626 C.ar    1  UNL1        0.1964
     16 C          -5.4902  -20.4612   20.1732 C.3     1  UNL1        0.0732
     17 N          -6.9392  -20.3327   19.8071 N.3     1  UNL1       -0.2682
     18 C          -7.5303  -21.2286   18.7593 C.3     1  UNL1        0.1046
     19 C          -8.9792  -21.1002   18.3933 C.3     1  UNL1        0.1598
     20 O          -9.8371  -20.0759   19.0750 O.3     1  UNL1       -0.3489
     21 C          -9.2460  -19.1800   20.1229 C.3     1  UNL1        0.1534
     22 C          -7.7971  -19.3084   20.4889 C.3     1  UNL1        0.1067
     23 C         -10.1039  -18.1557   20.8047 C.ar    1  UNL1        0.0060
     24 C          -9.9098  -17.8658   22.2635 C.ar    1  UNL1        0.0004
     25 C         -10.7677  -16.8415   22.9453 C.ar    1  UNL1        0.0294
     26 C         -11.8197  -16.1071   22.1683 C.ar    1  UNL1        0.1401
     27 F         -12.6775  -15.0827   22.8500 F       1  UNL1       -0.2042
     28 C         -12.0138  -16.3969   20.7094 C.ar    1  UNL1        0.0294
     29 C         -11.1559  -17.4212   20.0276 C.ar    1  UNL1        0.0004
@<TRIPOS>BOND
     1    10    11    1
     2    11    12   ar
     3    12    13   ar
     4    13    14   ar
     5    14    15   ar
     6    15     4    1
     7     4     5   ar
     8     5     6   ar
     9     6     7   ar
    10     7     3    1
    11     3     2    1
    12     2     1    1
    13     1    16    1
    14    16    17    1
    15    17    18    1
    16    18    19    1
    17    19    20    1
    18    20    21    1
    19    21    23    1
    20    23    24   ar
    21    24    25   ar
    22    25    26   ar
    23    26    27    1
    24    26    28   ar
    25    28    29   ar
    26    21    22    1
    27     7     8   ar
    28     8     9    1
    29    15    11   ar
    30     8     4   ar
    31    22    17    1
    32    29    23   ar
@<TRIPOS>MOLECULE
*****
 29 32 0 0 0
SMALL
GASTEIGER

@<TRIPOS>ATOM
      1 C          -7.1421  -15.0687   26.8501 C.3     1  UNL1        0.0294
      2 C          -8.5270  -15.4570   26.4242 C.3     1  UNL1        0.0666
      3 S          -8.7579  -16.7636   25.7246 S.3     1  UNL1       -0.0756
      4 C          -8.7576  -17.6678   21.9500 C.ar    1  UNL1        0.2029
      5 N          -8.2445  -16.2587   21.9106 N.ar    1  UNL1       -0.1250
      6 N          -8.1822  -15.7486   23.3198 N.ar    1  UNL1       -0.1220
      7 C          -8.6567  -16.8422   24.2301 C.ar    1  UNL1        0.1933
      8 N          -9.0124  -18.0283   23.3835 N.ar    1  UNL1       -0.2860
      9 C          -9.5316  -19.3440   23.8828 C.3     1  UNL1        0.1341
     10 C         -11.6459  -18.6983   20.8341 C.3     1  UNL1        0.0556
     11 C         -10.3050  -19.0332   20.2511 C.ar    1  UNL1        0.1001
     12 N         -10.0563  -19.9006   19.0529 N.ar    1  UNL1       -0.2085
     13 C          -8.5749  -19.9630   18.8253 C.ar    1  UNL1        0.2849
     14 O          -7.9081  -19.1341   19.8829 O.2     1  UNL1       -0.4283
     15 C          -8.9774  -18.5595   20.7641 C.ar    1  UNL1        0.1964
     16 C          -6.0636  -14.8912   25.8229 C.3     1  UNL1        0.0732
     17 N          -5.0977  -16.0057   25.5492 N.3     1  UNL1       -0.2682
     18 C          -4.5409  -16.8115   26.6853 C.3     1  UNL1        0.1046
     19 C          -3.5750  -17.9260   26.4116 C.3     1  UNL1        0.1598
     20 O          -3.1658  -18.2346   25.0019 O.3     1  UNL1       -0.3489
     21 C          -3.7225  -17.4287   23.8658 C.3     1  UNL1        0.1534
     22 C          -4.6884  -16.3143   24.1395 C.3     1  UNL1        0.1067
     23 C          -3.3133  -17.7374   22.4561 C.ar    1  UNL1        0.0060
     24 C          -3.9078  -18.9158   21.7435 C.ar    1  UNL1        0.0004
     25 C          -3.4985  -19.2244   20.3338 C.ar    1  UNL1        0.0294
     26 C          -2.4949  -18.3546   19.6367 C.ar    1  UNL1        0.1401
     27 F          -2.0856  -18.6632   18.2270 F       1  UNL1       -0.2042
     28 C          -1.9004  -17.1761   20.3493 C.ar    1  UNL1        0.0294
     29 C          -2.3096  -16.8675   21.7590 C.ar    1  UNL1        0.0004
@<TRIPOS>BOND
     1    10    11    1
     2    11    12   ar
     3    12    13   ar
     4    13    14   ar
     5    14    15   ar
     6    15     4    1
     7     4     5   ar
     8     5     6   ar
     9     6     7   ar
    10     7     3    1
    11     3     2    1
    12     2     1    1
    13     1    16    1
    14    16    17    1
    15    17    18    1
    16    18    19    1
    17    19    20    1
    18    20    21    1
    19    21    23    1
    20    23    24   ar
    21    24    25   ar
    22    25    26   ar
    23    26    27    1
    24    26    28   ar
    25    28    29   ar
    26    21    22    1
    27     7     8   ar
    28     8     9    1
    29    15    11   ar
    30     8     4   ar
    31    22    17    1
    32    29    23   ar
