@<TRIPOS>MOLECULE
*****
 28 30 0 0 0
SMALL
GASTEIGER

@<TRIPOS>ATOM
      1 C          -3.1991  -18.5311   21.7685 C.ar    1  UNL1        0.1057
      2 C          -3.6767  -17.6354   22.8728 C.ar    1  UNL1        0.0183
      3 C          -5.1242  -17.6361   23.2661 C.ar    1  UNL1        0.0013
      4 C          -6.0942  -18.5325   22.5551 C.ar    1  UNL1        0.0001
      5 C          -5.6166  -19.4282   21.4508 C.ar    1  UNL1        0.0013
      6 C          -4.1691  -19.4275   21.0575 C.ar    1  UNL1        0.0183
      7 C          -7.5417  -18.5332   22.9485 C.ar    1  UNL1       -0.0000
      8 C          -8.2952  -19.8274   23.0331 C.ar    1  UNL1       -0.0003
      9 C          -9.7427  -19.8281   23.4265 C.ar    1  UNL1       -0.0042
     10 C         -10.4367  -18.5346   23.7352 C.ar    1  UNL1       -0.0208
     11 C          -9.6831  -17.2404   23.6505 C.ar    1  UNL1       -0.0042
     12 C          -8.2356  -17.2398   23.2572 C.ar    1  UNL1       -0.0003
     13 C         -11.8842  -18.5353   24.1285 C.3     1  UNL1        0.0437
     14 C         -12.9288  -18.0968   23.1454 C.3     1  UNL1        0.0768
     15 N         -12.5190  -17.4853   21.8385 N.3     1  UNL1       -0.2737
     16 C         -12.7298  -16.0579   21.4284 C.3     1  UNL1        0.0721
     17 C         -12.1675  -15.8841   20.0486 C.3     1  UNL1        0.0187
     18 C         -11.6093  -17.2041   19.6060 C.3     1  UNL1        0.0174
     19 C         -11.8264  -18.1938   20.7121 C.3     1  UNL1        0.0576
     20 C         -11.4221  -19.6381   20.6950 C.3     1  UNL1        0.0173
     21 S          -1.7516  -18.5304   21.3751 S.O2    1  UNL1        0.0087
     22 O          -1.7186  -17.0359   21.4992 O.2     1  UNL1       -0.1686
     23 O          -1.7846  -20.0249   21.2510 O.2     1  UNL1       -0.1686
     24 C          -0.3041  -18.5297   20.9818 C.3     1  UNL1        0.1585
     25 C           0.1763  -17.6186   19.8914 C.3     1  UNL1        0.0578
     26 C          -0.3215  -17.8007   18.4882 C.3     1  UNL1        0.1441
     27 C          -2.7985  -17.0685   18.2087 C.3     1  UNL1        0.1741
     28 O          -1.7594  -18.1497   18.2418 O.3     1  UNL1       -0.3510
@<TRIPOS>BOND
     1    27    28    1
     2    28    26    1
     3    26    25    1
     4    25    24    1
     5    24    21    1
     6    21    22    2
     7    21    23    2
     8    21     1    1
     9     1     2   ar
    10     2     3   ar
    11     3     4   ar
    12     4     7    1
    13     7     8   ar
    14     8     9   ar
    15     9    10   ar
    16    10    13    1
    17    13    14    1
    18    14    15    1
    19    15    16    1
    20    16    17    1
    21    17    18    1
    22    18    19    1
    23    19    20    1
    24    10    11   ar
    25    11    12   ar
    26     4     5   ar
    27     5     6   ar
    28     6     1   ar
    29    12     7   ar
    30    19    15    1
@<TRIPOS>MOLECULE
*****
 28 30 0 0 0
SMALL
GASTEIGER

@<TRIPOS>ATOM
      1 C          -3.4350  -19.0031   20.9307 C.ar    1  UNL1        0.1057
      2 C          -3.6152  -18.6189   22.3693 C.ar    1  UNL1        0.0183
      3 C          -4.9897  -18.5800   22.9687 C.ar    1  UNL1        0.0013
      4 C          -6.1839  -18.9253   22.1294 C.ar    1  UNL1        0.0001
      5 C          -6.0037  -19.3095   20.6907 C.ar    1  UNL1        0.0013
      6 C          -4.6292  -19.3484   20.0914 C.ar    1  UNL1        0.0183
      7 C          -7.5584  -18.8864   22.7288 C.ar    1  UNL1       -0.0000
      8 C          -8.1755  -17.5721   23.1054 C.ar    1  UNL1       -0.0003
      9 C          -9.5500  -17.5332   23.7048 C.ar    1  UNL1       -0.0042
     10 C         -10.3074  -18.8086   23.9276 C.ar    1  UNL1       -0.0208
     11 C          -9.6904  -20.1228   23.5510 C.ar    1  UNL1       -0.0042
     12 C          -8.3159  -20.1617   22.9516 C.ar    1  UNL1       -0.0003
     13 C         -11.6819  -18.7696   24.5269 C.3     1  UNL1        0.0437
     14 C         -12.8450  -18.2974   23.7060 C.3     1  UNL1        0.0768
     15 N         -12.6065  -17.5824   22.4091 N.3     1  UNL1       -0.2737
     16 C         -12.8458  -16.1246   22.1490 C.3     1  UNL1        0.0721
     17 C         -12.4741  -15.8409   20.7237 C.3     1  UNL1        0.0187
     18 C         -12.0050  -17.1233   20.1029 C.3     1  UNL1        0.0174
     19 C         -12.0869  -18.1997   21.1445 C.3     1  UNL1        0.0576
     20 C         -11.7146  -19.6402   20.9549 C.3     1  UNL1        0.0173
     21 S          -2.0605  -19.0420   20.3313 S.O2    1  UNL1        0.0087
     22 O          -2.6210  -18.5870   19.0164 O.2     1  UNL1       -0.1686
     23 O          -1.5000  -19.4970   21.6461 O.2     1  UNL1       -0.1686
     24 C          -0.6860  -19.0809   19.7319 C.3     1  UNL1        0.1585
     25 C           0.1913  -17.8656   19.7878 C.3     1  UNL1        0.0578
     26 C          -0.3940  -16.5344   20.1560 C.3     1  UNL1        0.1441
     27 C          -2.2548  -15.7235   21.7776 C.3     1  UNL1        0.1741
     28 O          -0.8849  -16.2913   21.5524 O.3     1  UNL1       -0.3510
@<TRIPOS>BOND
     1    27    28    1
     2    28    26    1
     3    26    25    1
     4    25    24    1
     5    24    21    1
     6    21    22    2
     7    21    23    2
     8    21     1    1
     9     1     2   ar
    10     2     3   ar
    11     3     4   ar
    12     4     7    1
    13     7     8   ar
    14     8     9   ar
    15     9    10   ar
    16    10    13    1
    17    13    14    1
    18    14    15    1
    19    15    16    1
    20    16    17    1
    21    17    18    1
    22    18    19    1
    23    19    20    1
    24    10    11   ar
    25    11    12   ar
    26     4     5   ar
    27     5     6   ar
    28     6     1   ar
    29    12     7   ar
    30    19    15    1
@<TRIPOS>MOLECULE
*****
 28 30 0 0 0
SMALL
GASTEIGER

@<TRIPOS>ATOM
      1 C           2.3210    1.2195   26.3481 C.ar    1  UNL1        0.1057
      2 C           1.6408    1.5588   25.0549 C.ar    1  UNL1        0.0183
      3 C           1.9370    0.7607   23.8199 C.ar    1  UNL1        0.0013
      4 C           2.9132   -0.3766   23.8780 C.ar    1  UNL1        0.0001
      5 C           3.5934   -0.7159   25.1711 C.ar    1  UNL1        0.0013
      6 C           3.2972    0.0822   26.4062 C.ar    1  UNL1        0.0183
      7 C           3.2094   -1.1747   22.6429 C.ar    1  UNL1       -0.0000
      8 C           2.5320   -0.8331   21.3489 C.ar    1  UNL1       -0.0003
      9 C           2.8282   -1.6312   20.1139 C.ar    1  UNL1       -0.0042
     10 C           3.8016   -2.7709   20.1728 C.ar    1  UNL1       -0.0208
     11 C           4.4790   -3.1124   21.4668 C.ar    1  UNL1       -0.0042
     12 C           4.1828   -2.3144   22.7019 C.ar    1  UNL1       -0.0003
     13 C           4.0978   -3.5689   18.9377 C.3     1  UNL1        0.0437
     14 C           5.3471   -3.2998   18.1525 C.3     1  UNL1        0.0768
     15 N           5.8467   -1.8941   17.9965 N.3     1  UNL1       -0.2737
     16 C           7.1671   -1.3692   18.4773 C.3     1  UNL1        0.0721
     17 C           7.2501    0.0828   18.1102 C.3     1  UNL1        0.0187
     18 C           5.9811    0.4554   17.4026 C.3     1  UNL1        0.0174
     19 C           5.1137   -0.7664   17.3323 C.3     1  UNL1        0.0576
     20 C           3.7524   -0.8465   16.7076 C.3     1  UNL1        0.0173
     21 S           2.0248    2.0176   27.5832 S.O2    1  UNL1        0.0087
     22 O           0.8728    2.6746   26.8824 O.2     1  UNL1       -0.1686
     23 O           3.1769    1.3606   28.2839 O.2     1  UNL1       -0.1686
     24 C           1.7287    2.8157   28.8182 C.3     1  UNL1        0.1585
     25 C           1.2971    2.1201   30.0751 C.3     1  UNL1        0.0578
     26 C           0.0010    1.3657   30.1076 C.3     1  UNL1        0.1441
     27 C          -1.3047   -0.4736   28.8183 C.3     1  UNL1        0.1741
     28 O          -0.0727   -0.0232   29.5457 O.3     1  UNL1       -0.3510
@<TRIPOS>BOND
     1    27    28    1
     2    28    26    1
     3    26    25    1
     4    25    24    1
     5    24    21    1
     6    21    22    2
     7    21    23    2
     8    21     1    1
     9     1     2   ar
    10     2     3   ar
    11     3     4   ar
    12     4     7    1
    13     7     8   ar
    14     8     9   ar
    15     9    10   ar
    16    10    13    1
    17    13    14    1
    18    14    15    1
    19    15    16    1
    20    16    17    1
    21    17    18    1
    22    18    19    1
    23    19    20    1
    24    10    11   ar
    25    11    12   ar
    26     4     5   ar
    27     5     6   ar
    28     6     1   ar
    29    12     7   ar
    30    19    15    1
@<TRIPOS>MOLECULE
*****
 28 30 0 0 0
SMALL
GASTEIGER

@<TRIPOS>ATOM
      1 C           3.2391   -1.1868   21.3093 C.ar    1  UNL1        0.1057
      2 C           3.4840   -1.0219   22.7799 C.ar    1  UNL1        0.0183
      3 C           2.5892   -0.1355   23.5945 C.ar    1  UNL1        0.0013
      4 C           1.4495    0.5861   22.9385 C.ar    1  UNL1        0.0001
      5 C           1.2046    0.4211   21.4678 C.ar    1  UNL1        0.0013
      6 C           2.0994   -0.4653   20.6533 C.ar    1  UNL1        0.0183
      7 C           0.5547    1.4725   23.7531 C.ar    1  UNL1       -0.0000
      8 C           0.3698    1.2087   25.2180 C.ar    1  UNL1       -0.0003
      9 C          -0.5250    2.0951   26.0326 C.ar    1  UNL1       -0.0042
     10 C          -1.2348    3.2454   25.3822 C.ar    1  UNL1       -0.0208
     11 C          -1.0499    3.5092   23.9173 C.ar    1  UNL1       -0.0042
     12 C          -0.1551    2.6227   23.1027 C.ar    1  UNL1       -0.0003
     13 C          -2.1296    4.1318   26.1968 C.3     1  UNL1        0.0437
     14 C          -3.4950    3.6560   26.5959 C.3     1  UNL1        0.0768
     15 N          -4.7156    4.3289   26.0414 N.3     1  UNL1       -0.2737
     16 C          -5.5307    5.3832   26.7298 C.3     1  UNL1        0.0721
     17 C          -6.6542    5.7715   25.8150 C.3     1  UNL1        0.0187
     18 C          -6.5334    4.9572   24.5611 C.3     1  UNL1        0.0174
     19 C          -5.3353    4.0655   24.7009 C.3     1  UNL1        0.0576
     20 C          -4.8433    3.0832   23.6798 C.3     1  UNL1        0.0173
     21 S           4.1339   -2.0733   20.4947 S.O2    1  UNL1        0.0087
     22 O           5.3206   -1.5951   21.2778 O.2     1  UNL1       -0.1686
     23 O           2.9473   -2.5515   19.7116 O.2     1  UNL1       -0.1686
     24 C           5.0287   -2.9597   19.6801 C.3     1  UNL1        0.1585
     25 C           5.2180   -2.6926   18.2163 C.3     1  UNL1        0.0578
     26 C           5.3781   -1.2843   17.7254 C.3     1  UNL1        0.1441
     27 C           6.9533    0.6151   16.9122 C.3     1  UNL1        0.1741
     28 O           6.6774   -0.8449   17.1180 O.3     1  UNL1       -0.3510
@<TRIPOS>BOND
     1    27    28    1
     2    28    26    1
     3    26    25    1
     4    25    24    1
     5    24    21    1
     6    21    22    2
     7    21    23    2
     8    21     1    1
     9     1     2   ar
    10     2     3   ar
    11     3     4   ar
    12     4     7    1
    13     7     8   ar
    14     8     9   ar
    15     9    10   ar
    16    10    13    1
    17    13    14    1
    18    14    15    1
    19    15    16    1
    20    16    17    1
    21    17    18    1
    22    18    19    1
    23    19    20    1
    24    10    11   ar
    25    11    12   ar
    26     4     5   ar
    27     5     6   ar
    28     6     1   ar
    29    12     7   ar
    30    19    15    1
@<TRIPOS>MOLECULE
*****
 28 30 0 0 0
SMALL
GASTEIGER

@<TRIPOS>ATOM
      1 C          -1.1522    3.3603   19.7586 C.ar    1  UNL1        0.1057
      2 C          -0.8558    2.3754   20.8504 C.ar    1  UNL1        0.0183
      3 C           0.1724    1.3046   20.6357 C.ar    1  UNL1        0.0013
      4 C           0.9042    1.2186   19.3292 C.ar    1  UNL1        0.0001
      5 C           0.6078    2.2035   18.2374 C.ar    1  UNL1        0.0013
      6 C          -0.4204    3.2744   18.4521 C.ar    1  UNL1        0.0183
      7 C           1.9324    0.1478   19.1145 C.ar    1  UNL1       -0.0000
      8 C           2.0314   -1.0003   20.0747 C.ar    1  UNL1       -0.0003
      9 C           3.0596   -2.0711   19.8600 C.ar    1  UNL1       -0.0042
     10 C           3.9888   -1.9939   18.6850 C.ar    1  UNL1       -0.0208
     11 C           3.8898   -0.8458   17.7248 C.ar    1  UNL1       -0.0042
     12 C           2.8616    0.2250   17.9395 C.ar    1  UNL1       -0.0003
     13 C           5.0170   -3.0647   18.4703 C.3     1  UNL1        0.0437
     14 C           5.3040   -4.0577   19.5573 C.3     1  UNL1        0.0768
     15 N           6.3134   -3.7365   20.6193 N.3     1  UNL1       -0.2737
     16 C           7.7946   -3.6107   20.4187 C.3     1  UNL1        0.0721
     17 C           8.4155   -3.2811   21.7438 C.3     1  UNL1        0.0187
     18 C           7.3180   -3.2032   22.7634 C.3     1  UNL1        0.0174
     19 C           6.0188   -3.4846   22.0684 C.3     1  UNL1        0.0576
     20 C           4.6632   -3.5097   22.7099 C.3     1  UNL1        0.0173
     21 S          -2.1804    4.4312   19.9733 S.O2    1  UNL1        0.0087
     22 O          -2.8220    4.0776   18.6644 O.2     1  UNL1       -0.1686
     23 O          -1.5388    4.7848   21.2823 O.2     1  UNL1       -0.1686
     24 C          -3.2086    5.5020   20.1880 C.3     1  UNL1        0.1585
     25 C          -4.4148    5.2245   21.0353 C.3     1  UNL1        0.0578
     26 C          -4.8016    3.8096   21.3490 C.3     1  UNL1        0.1441
     27 C          -6.9742    4.2414   22.7067 C.3     1  UNL1        0.1741
     28 O          -5.6730    3.5154   22.5340 O.3     1  UNL1       -0.3510
@<TRIPOS>BOND
     1    27    28    1
     2    28    26    1
     3    26    25    1
     4    25    24    1
     5    24    21    1
     6    21    22    2
     7    21    23    2
     8    21     1    1
     9     1     2   ar
    10     2     3   ar
    11     3     4   ar
    12     4     7    1
    13     7     8   ar
    14     8     9   ar
    15     9    10   ar
    16    10    13    1
    17    13    14    1
    18    14    15    1
    19    15    16    1
    20    16    17    1
    21    17    18    1
    22    18    19    1
    23    19    20    1
    24    10    11   ar
    25    11    12   ar
    26     4     5   ar
    27     5     6   ar
    28     6     1   ar
    29    12     7   ar
    30    19    15    1
@<TRIPOS>MOLECULE
*****
 28 30 0 0 0
SMALL
GASTEIGER

@<TRIPOS>ATOM
      1 C           7.0113   -3.7339   25.4627 C.ar    1  UNL1        0.1057
      2 C           6.1976   -2.5304   25.8363 C.ar    1  UNL1        0.0183
      3 C           5.2177   -1.9543   24.8575 C.ar    1  UNL1        0.0013
      4 C           5.0515   -2.5816   23.5052 C.ar    1  UNL1        0.0001
      5 C           5.8652   -3.7851   23.1316 C.ar    1  UNL1        0.0013
      6 C           6.8451   -4.3612   24.1104 C.ar    1  UNL1        0.0183
      7 C           4.0717   -2.0055   22.5265 C.ar    1  UNL1       -0.0000
      8 C           3.2300   -0.8260   22.9140 C.ar    1  UNL1       -0.0003
      9 C           2.2501   -0.2498   21.9353 C.ar    1  UNL1       -0.0042
     10 C           2.1119   -0.8533   20.5690 C.ar    1  UNL1       -0.0208
     11 C           2.9536   -2.0328   20.1815 C.ar    1  UNL1       -0.0042
     12 C           3.9334   -2.6089   21.1602 C.ar    1  UNL1       -0.0003
     13 C           1.1320   -0.2772   19.5903 C.3     1  UNL1        0.0437
     14 C           1.6129    0.6153   18.4847 C.3     1  UNL1        0.0768
     15 N           3.0484    0.5667   18.0523 N.3     1  UNL1       -0.2737
     16 C           3.6621   -0.4593   17.1464 C.3     1  UNL1        0.0721
     17 C           5.1152   -0.1244   16.9841 C.3     1  UNL1        0.0187
     18 C           5.3996    1.1085   17.7897 C.3     1  UNL1        0.0174
     19 C           4.1222    1.5358   18.4499 C.3     1  UNL1        0.0576
     20 C           3.9491    2.7233   19.3496 C.3     1  UNL1        0.0173
     21 S           7.9912   -4.3100   26.4414 S.O2    1  UNL1        0.0087
     22 O           8.5252   -5.2172   25.3728 O.2     1  UNL1       -0.1686
     23 O           7.4572   -3.4028   27.5100 O.2     1  UNL1       -0.1686
     24 C           8.9711   -4.8861   27.4201 C.3     1  UNL1        0.1585
     25 C           8.5374   -5.1936   28.8227 C.3     1  UNL1        0.0578
     26 C           8.1005   -6.5820   29.1853 C.3     1  UNL1        0.1441
     27 C           9.3160   -8.5075   27.9343 C.3     1  UNL1        0.1741
     28 O           8.0948   -7.6623   28.1446 O.3     1  UNL1       -0.3510
@<TRIPOS>BOND
     1    27    28    1
     2    28    26    1
     3    26    25    1
     4    25    24    1
     5    24    21    1
     6    21    22    2
     7    21    23    2
     8    21     1    1
     9     1     2   ar
    10     2     3   ar
    11     3     4   ar
    12     4     7    1
    13     7     8   ar
    14     8     9   ar
    15     9    10   ar
    16    10    13    1
    17    13    14    1
    18    14    15    1
    19    15    16    1
    20    16    17    1
    21    17    18    1
    22    18    19    1
    23    19    20    1
    24    10    11   ar
    25    11    12   ar
    26     4     5   ar
    27     5     6   ar
    28     6     1   ar
    29    12     7   ar
    30    19    15    1
@<TRIPOS>MOLECULE
*****
 28 30 0 0 0
SMALL
GASTEIGER

@<TRIPOS>ATOM
      1 C          -2.7804    4.0321   23.2677 C.ar    1  UNL1        0.1057
      2 C          -1.5104    3.4912   23.8546 C.ar    1  UNL1        0.0183
      3 C          -0.5052    2.8133   22.9715 C.ar    1  UNL1        0.0013
      4 C          -0.7700    2.6762   21.5014 C.ar    1  UNL1        0.0001
      5 C          -2.0400    3.2171   20.9145 C.ar    1  UNL1        0.0013
      6 C          -3.0452    3.8950   21.7977 C.ar    1  UNL1        0.0183
      7 C           0.2352    1.9983   20.6183 C.ar    1  UNL1       -0.0000
      8 C           0.2022    0.5080   20.4509 C.ar    1  UNL1       -0.0003
      9 C           1.2074   -0.1699   19.5677 C.ar    1  UNL1       -0.0042
     10 C           2.2456    0.6424   18.8520 C.ar    1  UNL1       -0.0208
     11 C           2.2786    2.1326   19.0195 C.ar    1  UNL1       -0.0042
     12 C           1.2734    2.8105   19.9026 C.ar    1  UNL1       -0.0003
     13 C           3.2508   -0.0356   17.9689 C.3     1  UNL1        0.0437
     14 C           4.4991   -0.6178   18.5628 C.3     1  UNL1        0.0768
     15 N           4.5097   -2.0394   19.0413 N.3     1  UNL1       -0.2737
     16 C           4.9043   -3.2391   18.2320 C.3     1  UNL1        0.0721
     17 C           4.7660   -4.4521   19.1036 C.3     1  UNL1        0.0187
     18 C           4.2860   -4.0020   20.4515 C.3     1  UNL1        0.0174
     19 C           4.1275   -2.5108   20.4131 C.3     1  UNL1        0.0576
     20 C           3.6678   -1.6435   21.5471 C.3     1  UNL1        0.0173
     21 S          -3.7857    4.7101   24.1509 S.O2    1  UNL1        0.0087
     22 O          -4.3240    3.3726   24.5648 O.2     1  UNL1       -0.1686
     23 O          -3.2473    6.0475   23.7369 O.2     1  UNL1       -0.1686
     24 C          -4.7909    5.3880   25.0340 C.3     1  UNL1        0.1585
     25 C          -6.2147    4.9163   25.0494 C.3     1  UNL1        0.0578
     26 C          -7.2595    5.6596   24.2709 C.3     1  UNL1        0.1441
     27 C          -6.9627    4.3398   22.0528 C.3     1  UNL1        0.1741
     28 O          -7.8484    5.0494   23.0336 O.3     1  UNL1       -0.3510
@<TRIPOS>BOND
     1    27    28    1
     2    28    26    1
     3    26    25    1
     4    25    24    1
     5    24    21    1
     6    21    22    2
     7    21    23    2
     8    21     1    1
     9     1     2   ar
    10     2     3   ar
    11     3     4   ar
    12     4     7    1
    13     7     8   ar
    14     8     9   ar
    15     9    10   ar
    16    10    13    1
    17    13    14    1
    18    14    15    1
    19    15    16    1
    20    16    17    1
    21    17    18    1
    22    18    19    1
    23    19    20    1
    24    10    11   ar
    25    11    12   ar
    26     4     5   ar
    27     5     6   ar
    28     6     1   ar
    29    12     7   ar
    30    19    15    1
@<TRIPOS>MOLECULE
*****
 28 30 0 0 0
SMALL
GASTEIGER

@<TRIPOS>ATOM
      1 C           3.1672   -0.8854   21.0210 C.ar    1  UNL1        0.1057
      2 C           3.4944   -0.7184   22.4753 C.ar    1  UNL1        0.0183
      3 C           2.6011    0.1048   23.3553 C.ar    1  UNL1        0.0013
      4 C           1.3806    0.7609   22.7811 C.ar    1  UNL1        0.0001
      5 C           1.0534    0.5939   21.3268 C.ar    1  UNL1        0.0013
      6 C           1.9467   -0.2293   20.4468 C.ar    1  UNL1        0.0183
      7 C           0.4873    1.5841   23.6611 C.ar    1  UNL1       -0.0000
      8 C           0.3462    1.2433   25.1150 C.ar    1  UNL1       -0.0003
      9 C          -0.5470    2.0664   25.9951 C.ar    1  UNL1       -0.0042
     10 C          -1.2992    3.2304   25.4212 C.ar    1  UNL1       -0.0208
     11 C          -1.1581    3.5712   23.9673 C.ar    1  UNL1       -0.0042
     12 C          -0.2648    2.7480   23.0872 C.ar    1  UNL1       -0.0003
     13 C          -2.1925    4.0536   26.3012 C.3     1  UNL1        0.0437
     14 C          -3.5826    3.5820   26.6096 C.3     1  UNL1        0.0768
     15 N          -4.7644    4.3003   26.0288 N.3     1  UNL1       -0.2737
     16 C          -5.5583    5.3801   26.7025 C.3     1  UNL1        0.0721
     17 C          -6.6444    5.8121   25.7624 C.3     1  UNL1        0.0187
     18 C          -6.5217    4.9994   24.5076 C.3     1  UNL1        0.0174
     19 C          -5.3598    4.0650   24.6722 C.3     1  UNL1        0.0576
     20 C          -4.8780    3.0701   23.6584 C.3     1  UNL1        0.0173
     21 S           4.0604   -1.7086   20.1410 S.O2    1  UNL1        0.0087
     22 O           5.2502   -0.9325   20.6227 O.2     1  UNL1       -0.1686
     23 O           2.8706   -2.4846   19.6592 O.2     1  UNL1       -0.1686
     24 C           4.9537   -2.5317   19.2609 C.3     1  UNL1        0.1585
     25 C           6.3182   -2.9298   19.7400 C.3     1  UNL1        0.0578
     26 C           6.5121   -4.2370   20.4498 C.3     1  UNL1        0.1441
     27 C           6.3293   -3.4424   22.9166 C.3     1  UNL1        0.1741
     28 O           7.0186   -4.2559   21.8616 O.3     1  UNL1       -0.3510
@<TRIPOS>BOND
     1    27    28    1
     2    28    26    1
     3    26    25    1
     4    25    24    1
     5    24    21    1
     6    21    22    2
     7    21    23    2
     8    21     1    1
     9     1     2   ar
    10     2     3   ar
    11     3     4   ar
    12     4     7    1
    13     7     8   ar
    14     8     9   ar
    15     9    10   ar
    16    10    13    1
    17    13    14    1
    18    14    15    1
    19    15    16    1
    20    16    17    1
    21    17    18    1
    22    18    19    1
    23    19    20    1
    24    10    11   ar
    25    11    12   ar
    26     4     5   ar
    27     5     6   ar
    28     6     1   ar
    29    12     7   ar
    30    19    15    1
@<TRIPOS>MOLECULE
*****
 28 30 0 0 0
SMALL
GASTEIGER

@<TRIPOS>ATOM
      1 C           7.8318   -7.1070   26.1599 C.ar    1  UNL1        0.1057
      2 C           8.1565   -7.0201   24.6981 C.ar    1  UNL1        0.0183
      3 C           7.8003   -5.7864   23.9227 C.ar    1  UNL1        0.0013
      4 C           7.1195   -4.6396   24.6093 C.ar    1  UNL1        0.0001
      5 C           6.7948   -4.7266   26.0711 C.ar    1  UNL1        0.0013
      6 C           7.1510   -5.9603   26.8464 C.ar    1  UNL1        0.0183
      7 C           6.7633   -3.4059   23.8340 C.ar    1  UNL1       -0.0000
      8 C           7.8183   -2.6804   23.0527 C.ar    1  UNL1       -0.0003
      9 C           7.4621   -1.4467   22.2774 C.ar    1  UNL1       -0.0042
     10 C           6.0509   -0.9385   22.2833 C.ar    1  UNL1       -0.0208
     11 C           4.9958   -1.6640   23.0646 C.ar    1  UNL1       -0.0042
     12 C           5.3520   -2.8977   23.8399 C.ar    1  UNL1       -0.0003
     13 C           5.6947    0.2952   21.5080 C.3     1  UNL1        0.0437
     14 C           5.1903    0.1768   20.1004 C.3     1  UNL1        0.0768
     15 N           4.8537   -1.1712   19.5351 N.3     1  UNL1       -0.2737
     16 C           3.5373   -1.8783   19.6656 C.3     1  UNL1        0.0721
     17 C           3.6444   -3.1929   18.9513 C.3     1  UNL1        0.0187
     18 C           5.0270   -3.2983   18.3793 C.3     1  UNL1        0.0174
     19 C           5.7745   -2.0488   18.7401 C.3     1  UNL1        0.0576
     20 C           7.1934   -1.7325   18.3707 C.3     1  UNL1        0.0173
     21 S           8.1880   -8.3407   26.9352 S.O2    1  UNL1        0.0087
     22 O           9.5262   -7.7480   27.2636 O.2     1  UNL1       -0.1686
     23 O           6.8499   -8.9335   26.6067 O.2     1  UNL1       -0.1686
     24 C           8.5442   -9.5744   27.7105 C.3     1  UNL1        0.1585
     25 C           7.5024  -10.6204   27.9758 C.3     1  UNL1        0.0578
     26 C           7.9061  -12.0549   28.1462 C.3     1  UNL1        0.1441
     27 C           5.5348  -12.6152   29.0478 C.3     1  UNL1        0.1741
     28 O           6.9213  -13.0530   28.6792 O.3     1  UNL1       -0.3510
@<TRIPOS>BOND
     1    27    28    1
     2    28    26    1
     3    26    25    1
     4    25    24    1
     5    24    21    1
     6    21    22    2
     7    21    23    2
     8    21     1    1
     9     1     2   ar
    10     2     3   ar
    11     3     4   ar
    12     4     7    1
    13     7     8   ar
    14     8     9   ar
    15     9    10   ar
    16    10    13    1
    17    13    14    1
    18    14    15    1
    19    15    16    1
    20    16    17    1
    21    17    18    1
    22    18    19    1
    23    19    20    1
    24    10    11   ar
    25    11    12   ar
    26     4     5   ar
    27     5     6   ar
    28     6     1   ar
    29    12     7   ar
    30    19    15    1
