@<TRIPOS>MOLECULE
*****
 36 39 0 0 0
SMALL
GASTEIGER

@<TRIPOS>ATOM
      1 N           1.1595    1.0275   19.8303 N.ar    1  UNL1       -0.2340
      2 C           1.4548    0.7298   21.2705 C.ar    1  UNL1        0.3338
      3 O           2.3374   -0.4282   21.6313 O.2     1  UNL1       -0.2463
      4 N           0.8676    1.5901   22.3499 N.ar    1  UNL1       -0.2776
      5 C          -0.0149    2.7481   21.9891 C.ar    1  UNL1        0.2175
      6 N          -0.6022    3.6083   23.0685 N.2     1  UNL1       -0.2128
      7 N          -0.3102    3.0458   20.5490 N.ar    1  UNL1       -0.2479
      8 C           0.2770    2.1855   19.4696 C.ar    1  UNL1        0.3373
      9 O          -0.0184    2.4832   18.0293 O.2     1  UNL1       -0.2461
     10 H           1.0614    1.3947   23.2951 H       1  UNL1        0.1733
     11 C          -0.3069    3.3107   24.5087 C.ar    1  UNL1        0.0846
     12 C           0.9339    3.8591   25.1488 C.ar    1  UNL1        0.0223
     13 C           1.2292    3.5614   26.5891 C.ar    1  UNL1        0.0391
     14 C           0.2837    2.7152   27.3891 C.ar    1  UNL1        0.1473
     15 C          -0.9570    2.1667   26.7490 C.ar    1  UNL1        0.0391
     16 C          -1.2523    2.4644   25.3088 C.ar    1  UNL1        0.0223
     17 O           0.5790    2.4175   28.8293 O.3     1  UNL1       -0.4356
     18 C           1.4279    1.2352   29.1920 C.ar    1  UNL1        0.2366
     19 C           2.2751    0.4351   28.2475 C.ar    1  UNL1        0.0671
     20 C           2.9494   -0.6492   29.0346 C.ar    1  UNL1        0.0597
     21 S           2.5189   -0.5193   30.4656 S.2     1  UNL1        0.0169
     22 N           1.5786    0.6453   30.5630 N.ar    1  UNL1       -0.1735
     23 C           1.7467    0.1672   18.7509 C.3     1  UNL1        0.1205
     24 C           3.7407    1.7877   18.3658 C.3     1  UNL1        0.0079
     25 C           3.1480    0.4126   18.2754 C.3     1  UNL1        0.0594
     26 C           3.9567   -0.7169   17.7096 C.2     1  UNL1        0.0519
     27 O           4.8223   -1.5453   18.6122 O.co2   1  UNL1       -0.5491
     28 O           3.8997   -1.0181   16.2413 O.co2   1  UNL1       -0.5491
     29 C          -1.1928    4.2038   20.1881 C.3     1  UNL1        0.1401
     30 C          -2.6257    3.9665   19.8134 C.ar    1  UNL1        0.0007
     31 C          -3.0769    4.1826   18.3993 C.ar    1  UNL1       -0.0015
     32 C          -4.5099    3.9453   18.0247 C.ar    1  UNL1        0.0111
     33 C          -5.4916    3.4918   19.0641 C.ar    1  UNL1        0.0577
     34 CL         -6.9245    3.2545   18.6894 Cl      1  UNL1       -0.0822
     35 C          -5.0405    3.2757   20.4782 C.ar    1  UNL1        0.0111
     36 C          -3.6076    3.5130   20.8529 C.ar    1  UNL1       -0.0015
@<TRIPOS>UNITY_ATOM_ATTR
27 1
charge -1
@<TRIPOS>BOND
     1    25    24    1
     2    25    23    1
     3    23     1    1
     4     1     2   ar
     5     2     3    2
     6     2     4   ar
     7     4     5   ar
     8     5     6    2
     9     6    11    1
    10    11    12   ar
    11    12    13   ar
    12    13    14   ar
    13    14    17    1
    14    17    18    1
    15    18    19   ar
    16    19    20   ar
    17    20    21   ar
    18    21    22   ar
    19    14    15   ar
    20    15    16   ar
    21     5     7   ar
    22     7    29    1
    23    29    30    1
    24    30    31   ar
    25    31    32   ar
    26    32    33   ar
    27    33    34    1
    28    33    35   ar
    29    35    36   ar
    30     7     8   ar
    31     8     9    2
    32    25    26    1
    33    26    27   ar
    34    26    28   ar
    35     8     1   ar
    36    16    11   ar
    37    36    30   ar
    38    22    18   ar
    39     4    10    1
@<TRIPOS>MOLECULE
*****
 36 39 0 0 0
SMALL
GASTEIGER

@<TRIPOS>ATOM
      1 N           1.0834    0.9759   19.9337 N.ar    1  UNL1       -0.2340
      2 C           1.4964    0.4009   21.2560 C.ar    1  UNL1        0.3338
      3 O           2.3052   -0.8615   21.3053 O.2     1  UNL1       -0.2463
      4 N           1.1005    1.0881   22.5293 N.ar    1  UNL1       -0.2776
      5 C           0.2918    2.3504   22.4801 C.ar    1  UNL1        0.2175
      6 N          -0.1040    3.0376   23.7533 N.2     1  UNL1       -0.2128
      7 N          -0.1212    2.9255   21.1577 N.ar    1  UNL1       -0.2479
      8 C           0.2747    2.2382   19.8845 C.ar    1  UNL1        0.3373
      9 O          -0.1383    2.8134   18.5621 O.2     1  UNL1       -0.2461
     10 H           1.3716    0.7106   23.3972 H       1  UNL1        0.1733
     11 C           0.3089    2.4625   25.0757 C.ar    1  UNL1        0.0846
     12 C          -0.6687    1.6614   25.8833 C.ar    1  UNL1        0.0223
     13 C          -0.2557    1.0863   27.2058 C.ar    1  UNL1        0.0391
     14 C           1.1349    1.3123   27.7205 C.ar    1  UNL1        0.1473
     15 C           2.1126    2.1135   26.9128 C.ar    1  UNL1        0.0391
     16 C           1.6996    2.6886   25.5905 C.ar    1  UNL1        0.0223
     17 O           1.5479    0.7372   29.0429 O.3     1  UNL1       -0.4356
     18 C           1.4151    1.5574   30.2918 C.ar    1  UNL1        0.2366
     19 C           0.8677    2.9514   30.3771 C.ar    1  UNL1        0.0671
     20 C           0.9206    3.3831   31.8127 C.ar    1  UNL1        0.0597
     21 S           1.5008    2.2561   32.6146 S.2     1  UNL1        0.0169
     22 N           1.8065    1.1277   31.6747 N.ar    1  UNL1       -0.1735
     23 C           1.4792    0.2887   18.6605 C.3     1  UNL1        0.1205
     24 C           3.6686    1.6273   18.2544 C.3     1  UNL1        0.0079
     25 C           2.9035    0.3385   18.1928 C.3     1  UNL1        0.0594
     26 C           3.5629   -0.9005   17.6635 C.2     1  UNL1        0.0519
     27 O           3.8226   -2.0609   18.5780 O.co2   1  UNL1       -0.5491
     28 O           3.9626   -0.9791   16.2199 O.co2   1  UNL1       -0.5491
     29 C          -0.9300    4.1878   21.1085 C.3     1  UNL1        0.1401
     30 C          -2.3940    4.1537   21.4329 C.ar    1  UNL1        0.0007
     31 C          -3.3142    3.2612   20.6539 C.ar    1  UNL1       -0.0015
     32 C          -4.7783    3.2271   20.9784 C.ar    1  UNL1        0.0111
     33 C          -5.3222    4.0853   22.0818 C.ar    1  UNL1        0.0577
     34 CL         -6.7863    4.0511   22.4061 Cl      1  UNL1       -0.0822
     35 C          -4.4021    4.9778   22.8607 C.ar    1  UNL1        0.0111
     36 C          -2.9380    5.0119   22.5364 C.ar    1  UNL1       -0.0015
@<TRIPOS>UNITY_ATOM_ATTR
27 1
charge -1
@<TRIPOS>BOND
     1    25    24    1
     2    25    23    1
     3    23     1    1
     4     1     2   ar
     5     2     3    2
     6     2     4   ar
     7     4     5   ar
     8     5     6    2
     9     6    11    1
    10    11    12   ar
    11    12    13   ar
    12    13    14   ar
    13    14    17    1
    14    17    18    1
    15    18    19   ar
    16    19    20   ar
    17    20    21   ar
    18    21    22   ar
    19    14    15   ar
    20    15    16   ar
    21     5     7   ar
    22     7    29    1
    23    29    30    1
    24    30    31   ar
    25    31    32   ar
    26    32    33   ar
    27    33    34    1
    28    33    35   ar
    29    35    36   ar
    30     7     8   ar
    31     8     9    2
    32    25    26    1
    33    26    27   ar
    34    26    28   ar
    35     8     1   ar
    36    16    11   ar
    37    36    30   ar
    38    22    18   ar
    39     4    10    1
@<TRIPOS>MOLECULE
*****
 36 39 0 0 0
SMALL
GASTEIGER

@<TRIPOS>ATOM
      1 N           0.7852    2.5497   26.2910 N.ar    1  UNL1       -0.2340
      2 C           1.4581    1.6923   25.2605 C.ar    1  UNL1        0.3338
      3 O           2.3517    0.5663   25.6893 O.2     1  UNL1       -0.2463
      4 N           1.2375    1.9607   23.8013 N.ar    1  UNL1       -0.2776
      5 C           0.3440    3.0867   23.3726 C.ar    1  UNL1        0.2175
      6 N           0.1234    3.3551   21.9134 N.2     1  UNL1       -0.2128
      7 N          -0.3289    3.9441   24.4030 N.ar    1  UNL1       -0.2479
      8 C          -0.1083    3.6757   25.8622 C.ar    1  UNL1        0.3373
      9 O          -0.7813    4.5332   26.8927 O.2     1  UNL1       -0.2461
     10 H           1.6792    1.3979   23.1250 H       1  UNL1        0.1733
     11 C           0.7963    2.4976   20.8829 C.ar    1  UNL1        0.0846
     12 C           0.1600    1.2116   20.4458 C.ar    1  UNL1        0.0223
     13 C           0.8330    0.3541   19.4152 C.ar    1  UNL1        0.0391
     14 C           2.1423    0.7827   18.8220 C.ar    1  UNL1        0.1473
     15 C           2.7786    2.0687   19.2591 C.ar    1  UNL1        0.0391
     16 C           2.1057    2.9262   20.2896 C.ar    1  UNL1        0.0223
     17 O           2.8152   -0.0748   17.7914 O.3     1  UNL1       -0.4356
     18 C           3.7339   -1.1805   18.2198 C.ar    1  UNL1        0.2366
     19 C           3.6457   -1.9531   19.5024 C.ar    1  UNL1        0.0671
     20 C           4.7594   -2.9578   19.5160 C.ar    1  UNL1        0.0597
     21 S           5.5360   -2.8062   18.2417 S.2     1  UNL1        0.0169
     22 N           4.9023   -1.7077   17.4405 N.ar    1  UNL1       -0.1735
     23 C           1.0058    2.2813   27.7502 C.3     1  UNL1        0.1205
     24 C          -0.9836    0.6596   28.1537 C.3     1  UNL1        0.0079
     25 C           0.4515    1.0358   28.3758 C.3     1  UNL1        0.0594
     26 C           1.3321    0.1665   29.2236 C.2     1  UNL1        0.0519
     27 O           2.0945   -0.9643   28.5991 O.co2   1  UNL1       -0.5491
     28 O           1.4503    0.4279   30.6959 O.co2   1  UNL1       -0.5491
     29 C          -1.2225    5.0701   23.9743 C.3     1  UNL1        0.1401
     30 C          -2.6744    4.8125   23.6998 C.ar    1  UNL1        0.0007
     31 C          -3.2987    3.5153   24.1212 C.ar    1  UNL1       -0.0015
     32 C          -4.7508    3.2577   23.8466 C.ar    1  UNL1        0.0111
     33 C          -5.5784    4.2973   23.1507 C.ar    1  UNL1        0.0577
     34 CL         -7.0304    4.0397   22.8762 Cl      1  UNL1       -0.0822
     35 C          -4.9541    5.5945   22.7294 C.ar    1  UNL1        0.0111
     36 C          -3.5022    5.8521   23.0039 C.ar    1  UNL1       -0.0015
@<TRIPOS>UNITY_ATOM_ATTR
27 1
charge -1
@<TRIPOS>BOND
     1    25    24    1
     2    25    23    1
     3    23     1    1
     4     1     2   ar
     5     2     3    2
     6     2     4   ar
     7     4     5   ar
     8     5     6    2
     9     6    11    1
    10    11    12   ar
    11    12    13   ar
    12    13    14   ar
    13    14    17    1
    14    17    18    1
    15    18    19   ar
    16    19    20   ar
    17    20    21   ar
    18    21    22   ar
    19    14    15   ar
    20    15    16   ar
    21     5     7   ar
    22     7    29    1
    23    29    30    1
    24    30    31   ar
    25    31    32   ar
    26    32    33   ar
    27    33    34    1
    28    33    35   ar
    29    35    36   ar
    30     7     8   ar
    31     8     9    2
    32    25    26    1
    33    26    27   ar
    34    26    28   ar
    35     8     1   ar
    36    16    11   ar
    37    36    30   ar
    38    22    18   ar
    39     4    10    1
@<TRIPOS>MOLECULE
*****
 36 39 0 0 0
SMALL
GASTEIGER

@<TRIPOS>ATOM
      1 N           4.7032   -2.5717   20.9442 N.ar    1  UNL1       -0.2340
      2 C           3.7005   -1.7678   21.7176 C.ar    1  UNL1        0.3338
      3 O           2.4481   -1.2857   21.0474 O.2     1  UNL1       -0.2463
      4 N           3.9502   -1.4458   23.1612 N.ar    1  UNL1       -0.2776
      5 C           5.2026   -1.9278   23.8314 C.ar    1  UNL1        0.2175
      6 N           5.4523   -1.6058   25.2750 N.2     1  UNL1       -0.2128
      7 N           6.2053   -2.7317   23.0579 N.ar    1  UNL1       -0.2479
      8 C           5.9556   -3.0537   21.6143 C.ar    1  UNL1        0.3373
      9 O           6.9584   -3.8577   20.8409 O.2     1  UNL1       -0.2461
     10 H           3.2921   -0.9181   23.6688 H       1  UNL1        0.1733
     11 C           4.4496   -0.8018   26.0484 C.ar    1  UNL1        0.0846
     12 C           3.6929   -1.4338   27.1788 C.ar    1  UNL1        0.0223
     13 C           2.6902   -0.6297   27.9523 C.ar    1  UNL1        0.0391
     14 C           2.4442    0.8062   27.5952 C.ar    1  UNL1        0.1473
     15 C           3.2010    1.4382   26.4647 C.ar    1  UNL1        0.0391
     16 C           4.2036    0.6342   25.6913 C.ar    1  UNL1        0.0223
     17 O           1.4415    1.6103   28.3686 O.3     1  UNL1       -0.4356
     18 C           1.7028    1.9533   29.8053 C.ar    1  UNL1        0.2366
     19 C           2.6941    2.9622   30.3047 C.ar    1  UNL1        0.0671
     20 C           2.6226    2.9801   31.8029 C.ar    1  UNL1        0.0597
     21 S           1.5870    1.9822   32.2295 S.2     1  UNL1        0.0169
     22 N           1.0185    1.3476   30.9949 N.ar    1  UNL1       -0.1735
     23 C           4.4535   -2.8937   19.5006 C.3     1  UNL1        0.1205
     24 C           6.4880   -2.2573   18.0153 C.3     1  UNL1        0.0079
     25 C           5.0615   -2.0418   18.4261 C.3     1  UNL1        0.0594
     26 C           4.2429   -0.9743   17.7623 C.2     1  UNL1        0.0519
     27 O           3.7927    0.2222   18.5469 O.co2   1  UNL1       -0.5491
     28 O           3.8747   -1.1034   16.3140 O.co2   1  UNL1       -0.5491
     29 C           7.4577   -3.2138   23.7281 C.3     1  UNL1        0.1401
     30 C           7.4653   -4.5313   24.4450 C.ar    1  UNL1        0.0007
     31 C           6.8714   -4.6415   25.8180 C.ar    1  UNL1       -0.0015
     32 C           6.8790   -5.9592   26.5349 C.ar    1  UNL1        0.0111
     33 C           7.4805   -7.1665   25.8788 C.ar    1  UNL1        0.0577
     34 CL          7.4881   -8.4840   26.5957 Cl      1  UNL1       -0.0822
     35 C           8.0744   -7.0563   24.5058 C.ar    1  UNL1        0.0111
     36 C           8.0668   -5.7387   23.7889 C.ar    1  UNL1       -0.0015
@<TRIPOS>UNITY_ATOM_ATTR
27 1
charge -1
@<TRIPOS>BOND
     1    25    24    1
     2    25    23    1
     3    23     1    1
     4     1     2   ar
     5     2     3    2
     6     2     4   ar
     7     4     5   ar
     8     5     6    2
     9     6    11    1
    10    11    12   ar
    11    12    13   ar
    12    13    14   ar
    13    14    17    1
    14    17    18    1
    15    18    19   ar
    16    19    20   ar
    17    20    21   ar
    18    21    22   ar
    19    14    15   ar
    20    15    16   ar
    21     5     7   ar
    22     7    29    1
    23    29    30    1
    24    30    31   ar
    25    31    32   ar
    26    32    33   ar
    27    33    34    1
    28    33    35   ar
    29    35    36   ar
    30     7     8   ar
    31     8     9    2
    32    25    26    1
    33    26    27   ar
    34    26    28   ar
    35     8     1   ar
    36    16    11   ar
    37    36    30   ar
    38    22    18   ar
    39     4    10    1
@<TRIPOS>MOLECULE
*****
 36 39 0 0 0
SMALL
GASTEIGER

@<TRIPOS>ATOM
      1 N           8.3321   -4.6111   25.9442 N.ar    1  UNL1       -0.2340
      2 C           7.6526   -4.2790   27.2396 C.ar    1  UNL1        0.3338
      3 O           7.9291   -5.1008   28.4637 O.2     1  UNL1       -0.2463
      4 N           6.6967   -3.1253   27.3110 N.ar    1  UNL1       -0.2776
      5 C           6.4203   -2.3036   26.0869 C.ar    1  UNL1        0.2175
      6 N           5.4643   -1.1498   26.1583 N.2     1  UNL1       -0.2128
      7 N           7.0997   -2.6356   24.7916 N.ar    1  UNL1       -0.2479
      8 C           8.0556   -3.7893   24.7202 C.ar    1  UNL1        0.3373
      9 O           8.7351   -4.1213   23.4247 O.2     1  UNL1       -0.2461
     10 H           6.2508   -2.9074   28.1612 H       1  UNL1        0.1733
     11 C           4.7849   -0.8178   27.4537 C.ar    1  UNL1        0.0846
     12 C           3.3080   -1.0334   27.6027 C.ar    1  UNL1        0.0223
     13 C           2.6285   -0.7014   28.8982 C.ar    1  UNL1        0.0391
     14 C           3.4260   -0.1537   30.0445 C.ar    1  UNL1        0.1473
     15 C           4.9029    0.0619   29.8955 C.ar    1  UNL1        0.0391
     16 C           5.5823   -0.2701   28.6001 C.ar    1  UNL1        0.0223
     17 O           2.7465    0.1784   31.3400 O.3     1  UNL1       -0.4356
     18 C           3.4841    0.0182   32.6363 C.ar    1  UNL1        0.2366
     19 C           3.9902    1.1305   33.5060 C.ar    1  UNL1        0.0671
     20 C           4.6639    0.5173   34.6977 C.ar    1  UNL1        0.0597
     21 S           4.5741   -0.9741   34.5645 S.2     1  UNL1        0.0169
     22 N           3.8450   -1.2826   33.2905 N.ar    1  UNL1       -0.1735
     23 C           9.2880   -5.7648   25.8729 C.3     1  UNL1        0.1205
     24 C           8.9313   -7.5538   24.0229 C.3     1  UNL1        0.0079
     25 C           8.7990   -7.1191   25.4525 C.3     1  UNL1        0.0594
     26 C           8.1776   -8.0387   26.4615 C.2     1  UNL1        0.0519
     27 O           8.9401   -8.4245   27.6943 O.co2   1  UNL1       -0.5491
     28 O           6.7938   -8.5724   26.2379 O.co2   1  UNL1       -0.5491
     29 C           6.8233   -1.8138   23.5674 C.3     1  UNL1        0.1401
     30 C           6.0062   -2.3873   22.4479 C.ar    1  UNL1        0.0007
     31 C           5.0273   -3.4903   22.7225 C.ar    1  UNL1       -0.0015
     32 C           4.2102   -4.0638   21.6029 C.ar    1  UNL1        0.0111
     33 C           4.3719   -3.5344   20.2088 C.ar    1  UNL1        0.0577
     34 CL          3.5548   -4.1079   19.0893 Cl      1  UNL1       -0.0822
     35 C           5.3507   -2.4314   19.9343 C.ar    1  UNL1        0.0111
     36 C           6.1678   -1.8579   21.0538 C.ar    1  UNL1       -0.0015
@<TRIPOS>UNITY_ATOM_ATTR
27 1
charge -1
@<TRIPOS>BOND
     1    25    24    1
     2    25    23    1
     3    23     1    1
     4     1     2   ar
     5     2     3    2
     6     2     4   ar
     7     4     5   ar
     8     5     6    2
     9     6    11    1
    10    11    12   ar
    11    12    13   ar
    12    13    14   ar
    13    14    17    1
    14    17    18    1
    15    18    19   ar
    16    19    20   ar
    17    20    21   ar
    18    21    22   ar
    19    14    15   ar
    20    15    16   ar
    21     5     7   ar
    22     7    29    1
    23    29    30    1
    24    30    31   ar
    25    31    32   ar
    26    32    33   ar
    27    33    34    1
    28    33    35   ar
    29    35    36   ar
    30     7     8   ar
    31     8     9    2
    32    25    26    1
    33    26    27   ar
    34    26    28   ar
    35     8     1   ar
    36    16    11   ar
    37    36    30   ar
    38    22    18   ar
    39     4    10    1
@<TRIPOS>MOLECULE
*****
 36 39 0 0 0
SMALL
GASTEIGER

@<TRIPOS>ATOM
      1 N           2.4970    3.7277   34.1038 N.ar    1  UNL1       -0.2340
      2 C           3.6733    2.8023   34.2027 C.ar    1  UNL1        0.3338
      3 O           4.7971    3.1158   35.1455 O.2     1  UNL1       -0.2463
      4 N           3.7259    1.5633   33.3588 N.ar    1  UNL1       -0.2776
      5 C           2.6022    1.2497   32.4160 C.ar    1  UNL1        0.2175
      6 N           2.6548    0.0107   31.5721 N.2     1  UNL1       -0.2128
      7 N           1.4259    2.1751   32.3171 N.ar    1  UNL1       -0.2479
      8 C           1.3732    3.4141   33.1610 C.ar    1  UNL1        0.3373
      9 O           0.1968    4.3395   33.0620 O.2     1  UNL1       -0.2461
     10 H           4.4980    0.9559   33.4237 H       1  UNL1        0.1733
     11 C           3.8312   -0.9147   31.6710 C.ar    1  UNL1        0.0846
     12 C           3.9694   -1.8284   32.8525 C.ar    1  UNL1        0.0223
     13 C           5.1458   -2.7538   32.9514 C.ar    1  UNL1        0.0391
     14 C           6.1839   -2.7655   31.8687 C.ar    1  UNL1        0.1473
     15 C           6.0456   -1.8519   30.6872 C.ar    1  UNL1        0.0391
     16 C           4.8693   -0.9265   30.5883 C.ar    1  UNL1        0.0223
     17 O           7.3603   -3.6910   31.9676 O.3     1  UNL1       -0.4356
     18 C           7.7550   -4.5307   30.7890 C.ar    1  UNL1        0.2366
     19 C           7.0295   -5.7445   30.2887 C.ar    1  UNL1        0.0671
     20 C           7.7706   -6.2681   29.0943 C.ar    1  UNL1        0.0597
     21 S           8.9543   -5.3779   28.8565 S.2     1  UNL1        0.0169
     22 N           8.9447   -4.3041   29.9039 N.ar    1  UNL1       -0.1735
     23 C           2.4443    4.9666   34.9476 C.3     1  UNL1        0.1205
     24 C           0.5669    5.8629   36.5039 C.3     1  UNL1        0.0079
     25 C           1.7301    4.9460   36.2665 C.3     1  UNL1        0.0594
     26 C           2.1791    4.0086   37.3480 C.2     1  UNL1        0.0519
     27 O           1.6717    2.5972   37.3755 O.co2   1  UNL1       -0.5491
     28 O           3.1355    4.4824   38.4019 O.co2   1  UNL1       -0.5491
     29 C           0.3021    1.8615   31.3743 C.3     1  UNL1        0.1401
     30 C           0.5161    1.9606   29.8929 C.ar    1  UNL1        0.0007
     31 C          -0.1127    0.9543   28.9753 C.ar    1  UNL1       -0.0015
     32 C           0.1014    1.0535   27.4939 C.ar    1  UNL1        0.0111
     33 C           0.9442    2.1589   26.9303 C.ar    1  UNL1        0.0577
     34 CL          1.1582    2.2580   25.4489 Cl      1  UNL1       -0.0822
     35 C           1.5729    3.1652   27.8479 C.ar    1  UNL1        0.0111
     36 C           1.3589    3.0661   29.3292 C.ar    1  UNL1       -0.0015
@<TRIPOS>UNITY_ATOM_ATTR
27 1
charge -1
@<TRIPOS>BOND
     1    25    24    1
     2    25    23    1
     3    23     1    1
     4     1     2   ar
     5     2     3    2
     6     2     4   ar
     7     4     5   ar
     8     5     6    2
     9     6    11    1
    10    11    12   ar
    11    12    13   ar
    12    13    14   ar
    13    14    17    1
    14    17    18    1
    15    18    19   ar
    16    19    20   ar
    17    20    21   ar
    18    21    22   ar
    19    14    15   ar
    20    15    16   ar
    21     5     7   ar
    22     7    29    1
    23    29    30    1
    24    30    31   ar
    25    31    32   ar
    26    32    33   ar
    27    33    34    1
    28    33    35   ar
    29    35    36   ar
    30     7     8   ar
    31     8     9    2
    32    25    26    1
    33    26    27   ar
    34    26    28   ar
    35     8     1   ar
    36    16    11   ar
    37    36    30   ar
    38    22    18   ar
    39     4    10    1
@<TRIPOS>MOLECULE
*****
 36 39 0 0 0
SMALL
GASTEIGER

@<TRIPOS>ATOM
      1 N           3.5230    1.8245   33.8321 N.ar    1  UNL1       -0.2340
      2 C           2.6858    2.4415   32.7513 C.ar    1  UNL1        0.3338
      3 O           2.2467    3.8712   32.8667 O.2     1  UNL1       -0.2463
      4 N           2.2875    1.6289   31.5550 N.ar    1  UNL1       -0.2776
      5 C           2.7266    0.1993   31.4395 C.ar    1  UNL1        0.2175
      6 N           2.3283   -0.6133   30.2433 N.2     1  UNL1       -0.2128
      7 N           3.5638   -0.4177   32.5204 N.ar    1  UNL1       -0.2479
      8 C           3.9620    0.3948   33.7167 C.ar    1  UNL1        0.3373
      9 O           4.7994   -0.2223   34.7975 O.2     1  UNL1       -0.2461
     10 H           1.7380    2.0339   30.8456 H       1  UNL1        0.1733
     11 C           1.4911    0.0037   29.1624 C.ar    1  UNL1        0.0846
     12 C          -0.0052   -0.0276   29.2628 C.ar    1  UNL1        0.0223
     13 C          -0.8425    0.5895   28.1819 C.ar    1  UNL1        0.0391
     14 C          -0.1834    1.2378   27.0007 C.ar    1  UNL1        0.1473
     15 C           1.3129    1.2692   26.9004 C.ar    1  UNL1        0.0391
     16 C           2.1501    0.6522   27.9812 C.ar    1  UNL1        0.0223
     17 O          -1.0207    1.8549   25.9198 O.3     1  UNL1       -0.4356
     18 C          -1.7130    3.1633   26.1622 C.ar    1  UNL1        0.2366
     19 C          -1.2130    4.2772   27.0336 C.ar    1  UNL1        0.0671
     20 C          -2.2178    5.3899   26.9857 C.ar    1  UNL1        0.0597
     21 S          -3.3388    4.9638   26.0847 S.2     1  UNL1        0.0169
     22 N          -3.0268    3.5876   25.5757 N.ar    1  UNL1       -0.1735
     23 C           3.9212    2.6371   35.0284 C.3     1  UNL1        0.1205
     24 C           3.2612    1.4392   37.2374 C.3     1  UNL1        0.0079
     25 C           3.0968    2.5825   36.2803 C.3     1  UNL1        0.0594
     26 C           2.1080    3.6712   36.5753 C.2     1  UNL1        0.0519
     27 O           1.0559    3.4648   37.6244 O.co2   1  UNL1       -0.5491
     28 O           2.1713    4.9663   35.8212 O.co2   1  UNL1       -0.5491
     29 C           4.0029   -1.8474   32.4049 C.3     1  UNL1        0.1401
     30 C           5.3579   -2.1734   31.8503 C.ar    1  UNL1        0.0007
     31 C           5.9355   -1.3413   30.7440 C.ar    1  UNL1       -0.0015
     32 C           7.2905   -1.6674   30.1893 C.ar    1  UNL1        0.0111
     33 C           8.0679   -2.8255   30.7410 C.ar    1  UNL1        0.0577
     34 CL          9.4229   -3.1514   30.1863 Cl      1  UNL1       -0.0822
     35 C           7.4903   -3.6576   31.8473 C.ar    1  UNL1        0.0111
     36 C           6.1354   -3.3316   32.4019 C.ar    1  UNL1       -0.0015
@<TRIPOS>UNITY_ATOM_ATTR
27 1
charge -1
@<TRIPOS>BOND
     1    25    24    1
     2    25    23    1
     3    23     1    1
     4     1     2   ar
     5     2     3    2
     6     2     4   ar
     7     4     5   ar
     8     5     6    2
     9     6    11    1
    10    11    12   ar
    11    12    13   ar
    12    13    14   ar
    13    14    17    1
    14    17    18    1
    15    18    19   ar
    16    19    20   ar
    17    20    21   ar
    18    21    22   ar
    19    14    15   ar
    20    15    16   ar
    21     5     7   ar
    22     7    29    1
    23    29    30    1
    24    30    31   ar
    25    31    32   ar
    26    32    33   ar
    27    33    34    1
    28    33    35   ar
    29    35    36   ar
    30     7     8   ar
    31     8     9    2
    32    25    26    1
    33    26    27   ar
    34    26    28   ar
    35     8     1   ar
    36    16    11   ar
    37    36    30   ar
    38    22    18   ar
    39     4    10    1
@<TRIPOS>MOLECULE
*****
 36 39 0 0 0
SMALL
GASTEIGER

@<TRIPOS>ATOM
      1 N          -2.7284    4.8058   19.4150 N.ar    1  UNL1       -0.2340
      2 C          -3.0904    4.3229   20.7882 C.ar    1  UNL1        0.3338
      3 O          -4.5213    4.3448   21.2379 O.2     1  UNL1       -0.2463
      4 N          -2.0217    3.8180   21.7117 N.ar    1  UNL1       -0.2776
      5 C          -0.5909    3.7960   21.2620 C.ar    1  UNL1        0.2175
      6 N           0.4779    3.2911   22.1856 N.2     1  UNL1       -0.2128
      7 N          -0.2288    4.2789   19.8889 N.ar    1  UNL1       -0.2479
      8 C          -1.2975    4.7838   18.9653 C.ar    1  UNL1        0.3373
      9 O          -0.9354    5.2667   17.5921 O.2     1  UNL1       -0.2461
     10 H          -2.2593    3.5011   22.6130 H       1  UNL1        0.1733
     11 C           0.1158    2.8083   23.5587 C.ar    1  UNL1        0.0846
     12 C           0.4868    1.4195   23.9875 C.ar    1  UNL1        0.0223
     13 C           0.1247    0.9366   25.3607 C.ar    1  UNL1        0.0391
     14 C          -0.6083    1.8425   26.3052 C.ar    1  UNL1        0.1473
     15 C          -0.9793    3.2312   25.8765 C.ar    1  UNL1        0.0391
     16 C          -0.6172    3.7141   24.5033 C.ar    1  UNL1        0.0223
     17 O          -0.9705    1.3596   27.6785 O.3     1  UNL1       -0.4356
     18 C           0.1089    1.0393   28.6697 C.ar    1  UNL1        0.2366
     19 C           0.5680    1.9247   29.7901 C.ar    1  UNL1        0.0671
     20 C           1.6615    1.2100   30.5274 C.ar    1  UNL1        0.0597
     21 S           1.8782   -0.1170   29.8626 S.2     1  UNL1        0.0169
     22 N           0.9186   -0.2226   28.7145 N.ar    1  UNL1       -0.1735
     23 C          -3.7971    5.3106   18.4915 C.3     1  UNL1        0.1205
     24 C          -3.9657    3.5915   16.5508 C.3     1  UNL1        0.0079
     25 C          -4.6062    4.3425   17.6804 C.3     1  UNL1        0.0594
     26 C          -6.0558    4.1252   17.9988 C.2     1  UNL1        0.0519
     27 O          -7.0870    5.0922   17.4971 O.co2   1  UNL1       -0.5491
     28 O          -6.4743    2.9410   18.8188 O.co2   1  UNL1       -0.5491
     29 C           1.2021    4.2569   19.4391 C.3     1  UNL1        0.1401
     30 C           1.8182    2.9759   18.9605 C.ar    1  UNL1        0.0007
     31 C           3.3014    2.8882   18.7540 C.ar    1  UNL1       -0.0015
     32 C           3.9175    1.6070   18.2754 C.ar    1  UNL1        0.0111
     33 C           3.0505    0.4136   18.0032 C.ar    1  UNL1        0.0577
     34 CL          3.6667   -0.8675   17.5245 Cl      1  UNL1       -0.0822
     35 C           1.5674    0.5013   18.2096 C.ar    1  UNL1        0.0111
     36 C           0.9512    1.7824   18.6883 C.ar    1  UNL1       -0.0015
@<TRIPOS>UNITY_ATOM_ATTR
27 1
charge -1
@<TRIPOS>BOND
     1    25    24    1
     2    25    23    1
     3    23     1    1
     4     1     2   ar
     5     2     3    2
     6     2     4   ar
     7     4     5   ar
     8     5     6    2
     9     6    11    1
    10    11    12   ar
    11    12    13   ar
    12    13    14   ar
    13    14    17    1
    14    17    18    1
    15    18    19   ar
    16    19    20   ar
    17    20    21   ar
    18    21    22   ar
    19    14    15   ar
    20    15    16   ar
    21     5     7   ar
    22     7    29    1
    23    29    30    1
    24    30    31   ar
    25    31    32   ar
    26    32    33   ar
    27    33    34    1
    28    33    35   ar
    29    35    36   ar
    30     7     8   ar
    31     8     9    2
    32    25    26    1
    33    26    27   ar
    34    26    28   ar
    35     8     1   ar
    36    16    11   ar
    37    36    30   ar
    38    22    18   ar
    39     4    10    1
@<TRIPOS>MOLECULE
*****
 36 39 0 0 0
SMALL
GASTEIGER

@<TRIPOS>ATOM
      1 N          -3.4931    4.8457   23.7597 N.ar    1  UNL1       -0.2340
      2 C          -3.4898    4.4065   25.1940 C.ar    1  UNL1        0.3338
      3 O          -4.7403    4.5169   26.0151 O.2     1  UNL1       -0.2463
      4 N          -2.2360    3.8569   25.8071 N.ar    1  UNL1       -0.2776
      5 C          -0.9856    3.7465   24.9861 C.ar    1  UNL1        0.2175
      6 N           0.2682    3.1970   25.5992 N.2     1  UNL1       -0.2128
      7 N          -0.9889    4.1857   23.5518 N.ar    1  UNL1       -0.2479
      8 C          -2.2427    4.7353   22.9387 C.ar    1  UNL1        0.3373
      9 O          -2.2460    5.1745   21.5044 O.2     1  UNL1       -0.2461
     10 H          -2.2338    3.5687   26.7485 H       1  UNL1        0.1733
     11 C           0.2716    2.7578   27.0335 C.ar    1  UNL1        0.0846
     12 C           0.7334    3.7000   28.1053 C.ar    1  UNL1        0.0223
     13 C           0.7368    3.2608   29.5396 C.ar    1  UNL1        0.0391
     14 C           0.2783    1.8793   29.9020 C.ar    1  UNL1        0.1473
     15 C          -0.1836    0.9371   28.8301 C.ar    1  UNL1        0.0391
     16 C          -0.1869    1.3763   27.3959 C.ar    1  UNL1        0.0223
     17 O           0.2816    1.4401   31.3363 O.3     1  UNL1       -0.4356
     18 C           1.3887    1.8736   32.2508 C.ar    1  UNL1        0.2366
     19 C           2.7052    1.1782   32.4329 C.ar    1  UNL1        0.0671
     20 C           3.5039    1.9535   33.4385 C.ar    1  UNL1        0.0597
     21 S           2.6809    3.1281   33.8779 S.2     1  UNL1        0.0169
     22 N           1.3737    3.0788   33.1439 N.ar    1  UNL1       -0.1735
     23 C          -4.7469    5.3952   23.1466 C.3     1  UNL1        0.1205
     24 C          -7.1050    4.3126   23.2794 C.3     1  UNL1        0.0079
     25 C          -5.7811    4.4621   22.5901 C.3     1  UNL1        0.0594
     26 C          -5.4915    3.6784   21.3443 C.2     1  UNL1        0.0519
     27 O          -6.2028    4.0115   20.0663 O.co2   1  UNL1       -0.5491
     28 O          -4.4905    2.5617   21.3764 O.co2   1  UNL1       -0.5491
     29 C           0.2616    4.0753   22.7307 C.3     1  UNL1        0.1401
     30 C           0.6239    2.7694   22.0880 C.ar    1  UNL1        0.0007
     31 C           1.8524    2.0311   22.5304 C.ar    1  UNL1       -0.0015
     32 C           2.2147    0.7250   21.8875 C.ar    1  UNL1        0.0111
     33 C           1.3486    0.1574   20.8024 C.ar    1  UNL1        0.0577
     34 CL          1.7109   -1.1485   20.1597 Cl      1  UNL1       -0.0822
     35 C           0.1201    0.8957   20.3600 C.ar    1  UNL1        0.0111
     36 C          -0.2423    2.2017   21.0028 C.ar    1  UNL1       -0.0015
@<TRIPOS>UNITY_ATOM_ATTR
27 1
charge -1
@<TRIPOS>BOND
     1    25    24    1
     2    25    23    1
     3    23     1    1
     4     1     2   ar
     5     2     3    2
     6     2     4   ar
     7     4     5   ar
     8     5     6    2
     9     6    11    1
    10    11    12   ar
    11    12    13   ar
    12    13    14   ar
    13    14    17    1
    14    17    18    1
    15    18    19   ar
    16    19    20   ar
    17    20    21   ar
    18    21    22   ar
    19    14    15   ar
    20    15    16   ar
    21     5     7   ar
    22     7    29    1
    23    29    30    1
    24    30    31   ar
    25    31    32   ar
    26    32    33   ar
    27    33    34    1
    28    33    35   ar
    29    35    36   ar
    30     7     8   ar
    31     8     9    2
    32    25    26    1
    33    26    27   ar
    34    26    28   ar
    35     8     1   ar
    36    16    11   ar
    37    36    30   ar
    38    22    18   ar
    39     4    10    1
