@<TRIPOS>MOLECULE
*****
 29 33 0 0 0
SMALL
GASTEIGER

@<TRIPOS>ATOM
      1 C          -1.8041    3.8134   19.8229 C.ar    1  UNL1        0.1385
      2 C          -1.1959    3.8458   18.4522 C.ar    1  UNL1        0.0384
      3 C          -0.0508    2.9363   18.1182 C.ar    1  UNL1        0.0203
      4 C           0.4860    1.9944   19.1549 C.ar    1  UNL1        0.0602
      5 C          -0.1222    1.9621   20.5256 C.ar    1  UNL1        0.0204
      6 C          -1.2673    2.8716   20.8596 C.ar    1  UNL1        0.0384
      7 C           0.6133    0.9356   21.3350 C.ar    1  UNL1        0.0234
      8 C           1.6762    0.3334   20.4645 C.ar    1  UNL1        0.1143
      9 N           1.5976    0.9879   19.1171 N.ar    1  UNL1       -0.3219
     10 C           2.5482    0.5827   18.0300 C.3     1  UNL1        0.1258
     11 C           3.5775   -0.4769   18.2901 C.3     1  UNL1        0.0982
     12 C           4.5281   -0.8822   17.2029 C.3     1  UNL1        0.0236
     13 N           3.6561   -1.1314   19.6375 N.am    1  UNL1       -0.2746
     14 C           2.7055   -0.7261   20.7248 C.2     1  UNL1        0.2649
     15 O           2.7842   -1.3806   22.0722 O.2     1  UNL1       -0.2683
     16 O          -2.9493    4.7229   20.1570 O.3     1  UNL1       -0.4791
     17 N          -4.5356    4.8911   24.3647 N.3     1  UNL1       -0.2737
     18 C          -3.3978    5.7789   23.9562 C.3     1  UNL1        0.0758
     19 C          -2.8690    5.7229   22.5535 C.3     1  UNL1        0.0609
     20 C          -3.4780    4.7790   21.5596 C.3     1  UNL1        0.1687
     21 C          -4.6159    3.8911   21.9682 C.3     1  UNL1        0.0609
     22 C          -5.1447    3.9471   23.3708 C.3     1  UNL1        0.0758
     23 C          -6.3140    5.7206   26.0674 C.3     1  UNL1        0.0173
     24 C          -5.0644    4.9471   25.7673 C.3     1  UNL1        0.0576
     25 C          -4.3434    4.2296   26.8699 C.3     1  UNL1        0.0173
     26 C           4.6855   -2.1910   19.8978 C.3     1  UNL1        0.0937
     27 C           4.3951   -3.6206   19.5483 C.3     1  UNL1        0.0199
     28 C           3.6331   -4.8890   19.7943 C.3     1  UNL1        0.0018
     29 C           4.6542   -4.8282   18.6971 C.3     1  UNL1        0.0018
@<TRIPOS>BOND
     1    23    24    1
     2    24    25    1
     3    24    17    1
     4    17    18    1
     5    18    19    1
     6    19    20    1
     7    20    16    1
     8    16     1    1
     9     1     2   ar
    10     2     3   ar
    11     3     4   ar
    12     4     5   ar
    13     5     6   ar
    14     5     7   ar
    15     7     8   ar
    16     8     9   ar
    17     9    10    1
    18    10    11    1
    19    11    12    1
    20    11    13    1
    21    13    26    1
    22    26    27    1
    23    27    28    1
    24    28    29    1
    25    13    14   am
    26    14    15    2
    27    20    21    1
    28    21    22    1
    29    22    17    1
    30     6     1   ar
    31    14     8    1
    32     9     4   ar
    33    29    27    1
@<TRIPOS>MOLECULE
*****
 29 33 0 0 0
SMALL
GASTEIGER

@<TRIPOS>ATOM
      1 C           7.2864   -4.6538   23.1376 C.ar    1  UNL1        0.1385
      2 C           7.7246   -5.8974   23.8526 C.ar    1  UNL1        0.0384
      3 C           7.6612   -5.9634   25.3498 C.ar    1  UNL1        0.0203
      4 C           7.1596   -4.7859   26.1319 C.ar    1  UNL1        0.0602
      5 C           6.7214   -3.5422   25.4169 C.ar    1  UNL1        0.0204
      6 C           6.7848   -3.4762   23.9197 C.ar    1  UNL1        0.0384
      7 C           6.2758   -2.5477   26.4475 C.ar    1  UNL1        0.0234
      8 C           6.4386   -3.1766   27.7995 C.ar    1  UNL1        0.1143
      9 N           6.9848   -4.5599   27.6045 N.ar    1  UNL1       -0.3219
     10 C           7.2525   -5.4350   28.7930 C.3     1  UNL1        0.1258
     11 C           6.9739   -4.9268   30.1765 C.3     1  UNL1        0.0982
     12 C           7.2416   -5.8019   31.3650 C.3     1  UNL1        0.0236
     13 N           6.4277   -3.5435   30.3715 N.am    1  UNL1       -0.2746
     14 C           6.1600   -2.6683   29.1830 C.2     1  UNL1        0.2649
     15 O           5.6137   -1.2850   29.3780 O.2     1  UNL1       -0.2683
     16 O           7.3498   -4.5877   21.6403 O.3     1  UNL1       -0.4791
     17 N           4.5184   -1.9150   19.3843 N.3     1  UNL1       -0.2737
     18 C           3.9871   -3.0759   20.1716 C.3     1  UNL1        0.0758
     19 C           4.9309   -3.9669   20.9237 C.3     1  UNL1        0.0609
     20 C           6.4060   -3.6968   20.8883 C.3     1  UNL1        0.1687
     21 C           6.9372   -2.5358   20.1009 C.3     1  UNL1        0.0609
     22 C           5.9934   -1.6450   19.3489 C.3     1  UNL1        0.0758
     23 C           3.7986   -0.7552   17.1737 C.3     1  UNL1        0.0173
     24 C           3.5746   -1.0242   18.6322 C.3     1  UNL1        0.0576
     25 C           2.4066   -0.4022   19.3388 C.3     1  UNL1        0.0173
     26 C           6.1491   -3.0352   31.7551 C.3     1  UNL1        0.0937
     27 C           7.1896   -2.2387   32.4851 C.3     1  UNL1        0.0199
     28 C           8.6135   -2.0477   32.9163 C.3     1  UNL1        0.0018
     29 C           7.5679   -1.0503   33.3185 C.3     1  UNL1        0.0018
@<TRIPOS>BOND
     1    23    24    1
     2    24    25    1
     3    24    17    1
     4    17    18    1
     5    18    19    1
     6    19    20    1
     7    20    16    1
     8    16     1    1
     9     1     2   ar
    10     2     3   ar
    11     3     4   ar
    12     4     5   ar
    13     5     6   ar
    14     5     7   ar
    15     7     8   ar
    16     8     9   ar
    17     9    10    1
    18    10    11    1
    19    11    12    1
    20    11    13    1
    21    13    26    1
    22    26    27    1
    23    27    28    1
    24    28    29    1
    25    13    14   am
    26    14    15    2
    27    20    21    1
    28    21    22    1
    29    22    17    1
    30     6     1   ar
    31    14     8    1
    32     9     4   ar
    33    29    27    1
@<TRIPOS>MOLECULE
*****
 29 33 0 0 0
SMALL
GASTEIGER

@<TRIPOS>ATOM
      1 C           7.3234   -4.5533   23.3027 C.ar    1  UNL1        0.1385
      2 C           7.8258   -4.5889   21.8898 C.ar    1  UNL1        0.0384
      3 C           7.0862   -3.8532   20.8121 C.ar    1  UNL1        0.0203
      4 C           5.8442   -3.0817   21.1472 C.ar    1  UNL1        0.0602
      5 C           5.3418   -3.0461   22.5600 C.ar    1  UNL1        0.0204
      6 C           6.0813   -3.7819   23.6378 C.ar    1  UNL1        0.0384
      7 C           4.0985   -2.2075   22.5888 C.ar    1  UNL1        0.0234
      8 C           3.8325   -1.7248   21.1937 C.ar    1  UNL1        0.1143
      9 N           4.9114   -2.2651   20.3027 N.ar    1  UNL1       -0.3219
     10 C           4.9051   -1.9437   18.8376 C.3     1  UNL1        0.1258
     11 C           3.8198   -1.0820   18.2635 C.3     1  UNL1        0.0982
     12 C           3.8135   -0.7606   16.7983 C.3     1  UNL1        0.0236
     13 N           2.7409   -0.5417   19.1545 N.am    1  UNL1       -0.2746
     14 C           2.7472   -0.8631   20.6196 C.2     1  UNL1        0.2649
     15 O           1.6682   -0.3228   21.5107 O.2     1  UNL1       -0.2683
     16 O           8.0629   -5.2891   24.3805 O.3     1  UNL1       -0.4791
     17 N           7.1270   -4.4793   28.7070 N.3     1  UNL1       -0.2737
     18 C           6.5134   -5.6604   28.0153 C.3     1  UNL1        0.0758
     19 C           6.8254   -5.9304   26.5731 C.3     1  UNL1        0.0609
     20 C           7.7509   -5.0192   25.8227 C.3     1  UNL1        0.1687
     21 C           8.3645   -3.8381   26.5145 C.3     1  UNL1        0.0609
     22 C           8.0525   -3.5681   27.9566 C.3     1  UNL1        0.0758
     23 C           6.3619   -2.8446   30.5757 C.3     1  UNL1        0.0173
     24 C           6.8150   -4.2094   30.1491 C.3     1  UNL1        0.0576
     25 C           6.9560   -5.3043   31.1647 C.3     1  UNL1        0.0173
     26 C           1.6555    0.3200   18.5803 C.3     1  UNL1        0.0937
     27 C           1.8324    1.8084   18.5205 C.3     1  UNL1        0.0199
     28 C           1.2413    3.1867   18.4928 C.3     1  UNL1        0.0018
     29 C           2.7298    3.0079   18.4445 C.3     1  UNL1        0.0018
@<TRIPOS>BOND
     1    23    24    1
     2    24    25    1
     3    24    17    1
     4    17    18    1
     5    18    19    1
     6    19    20    1
     7    20    16    1
     8    16     1    1
     9     1     2   ar
    10     2     3   ar
    11     3     4   ar
    12     4     5   ar
    13     5     6   ar
    14     5     7   ar
    15     7     8   ar
    16     8     9   ar
    17     9    10    1
    18    10    11    1
    19    11    12    1
    20    11    13    1
    21    13    26    1
    22    26    27    1
    23    27    28    1
    24    28    29    1
    25    13    14   am
    26    14    15    2
    27    20    21    1
    28    21    22    1
    29    22    17    1
    30     6     1   ar
    31    14     8    1
    32     9     4   ar
    33    29    27    1
@<TRIPOS>MOLECULE
*****
 29 33 0 0 0
SMALL
GASTEIGER

@<TRIPOS>ATOM
      1 C          -1.4601    3.7349   20.5571 C.ar    1  UNL1        0.1385
      2 C          -1.1122    3.2443   21.9312 C.ar    1  UNL1        0.0384
      3 C          -0.0694    2.1804   22.1060 C.ar    1  UNL1        0.0203
      4 C           0.6254    1.6071   20.9066 C.ar    1  UNL1        0.0602
      5 C           0.2775    2.0977   19.5325 C.ar    1  UNL1        0.0204
      6 C          -0.7653    3.1616   19.3578 C.ar    1  UNL1        0.0384
      7 C           1.1241    1.3502   18.5453 C.ar    1  UNL1        0.0234
      8 C           1.9953    0.3977   19.3093 C.ar    1  UNL1        0.1143
      9 N           1.6871    0.5564   20.7687 N.ar    1  UNL1       -0.3219
     10 C           2.4130   -0.2763   21.7834 C.3     1  UNL1        0.1258
     11 C           3.4471   -1.2677   21.3387 C.3     1  UNL1        0.0982
     12 C           4.1731   -2.1004   22.3535 C.3     1  UNL1        0.0236
     13 N           3.7553   -1.4264   19.8794 N.am    1  UNL1       -0.2746
     14 C           3.0294   -0.5937   18.8646 C.2     1  UNL1        0.2649
     15 O           3.3376   -0.7524   17.4052 O.2     1  UNL1       -0.2683
     16 O          -2.5030    4.7989   20.3823 O.3     1  UNL1       -0.4791
     17 N          -5.9358    5.0822   23.2781 N.3     1  UNL1       -0.2737
     18 C          -4.8255    6.0893   23.3304 C.3     1  UNL1        0.0758
     19 C          -3.6812    5.9949   22.3651 C.3     1  UNL1        0.0609
     20 C          -3.6472    4.8934   21.3476 C.3     1  UNL1        0.1687
     21 C          -4.7577    3.8862   21.2953 C.3     1  UNL1        0.0609
     22 C          -5.9019    3.9806   22.2605 C.3     1  UNL1        0.0758
     23 C          -6.9207    5.9432   25.5227 C.3     1  UNL1        0.0173
     24 C          -7.0801    5.1766   24.2433 C.3     1  UNL1        0.0576
     25 C          -8.3838    4.5044   23.9291 C.3     1  UNL1        0.0173
     26 C           4.7895   -2.4178   19.4346 C.3     1  UNL1        0.0937
     27 C           4.4159   -3.8585   19.2478 C.3     1  UNL1        0.0199
     28 C           3.4795   -5.0016   19.5056 C.3     1  UNL1        0.0018
     29 C           4.7051   -5.2106   18.6664 C.3     1  UNL1        0.0018
@<TRIPOS>BOND
     1    23    24    1
     2    24    25    1
     3    24    17    1
     4    17    18    1
     5    18    19    1
     6    19    20    1
     7    20    16    1
     8    16     1    1
     9     1     2   ar
    10     2     3   ar
    11     3     4   ar
    12     4     5   ar
    13     5     6   ar
    14     5     7   ar
    15     7     8   ar
    16     8     9   ar
    17     9    10    1
    18    10    11    1
    19    11    12    1
    20    11    13    1
    21    13    26    1
    22    26    27    1
    23    27    28    1
    24    28    29    1
    25    13    14   am
    26    14    15    2
    27    20    21    1
    28    21    22    1
    29    22    17    1
    30     6     1   ar
    31    14     8    1
    32     9     4   ar
    33    29    27    1
@<TRIPOS>MOLECULE
*****
 29 33 0 0 0
SMALL
GASTEIGER

@<TRIPOS>ATOM
      1 C          -0.9969    3.2156   23.6545 C.ar    1  UNL1        0.1385
      2 C          -0.4042    2.4959   24.8296 C.ar    1  UNL1        0.0384
      3 C           0.6489    1.4496   24.6149 C.ar    1  UNL1        0.0203
      4 C           1.1094    1.1231   23.2252 C.ar    1  UNL1        0.0602
      5 C           0.5168    1.8429   22.0501 C.ar    1  UNL1        0.0204
      6 C          -0.5364    2.8891   22.2648 C.ar    1  UNL1        0.0384
      7 C           1.1649    1.3115   20.8061 C.ar    1  UNL1        0.0234
      8 C           2.1580    0.2633   21.2123 C.ar    1  UNL1        0.1143
      9 N           2.1238    0.1469   22.7073 N.ar    1  UNL1       -0.3219
     10 C           3.0206   -0.8330   23.4040 C.3     1  UNL1        0.1258
     11 C           3.9518   -1.6965   22.6056 C.3     1  UNL1        0.0982
     12 C           4.8487   -2.6764   23.3023 C.3     1  UNL1        0.0236
     13 N           3.9860   -1.5801   21.1106 N.am    1  UNL1       -0.2746
     14 C           3.0891   -0.6001   20.4139 C.2     1  UNL1        0.2649
     15 O           3.1233   -0.4837   18.9187 O.2     1  UNL1       -0.2683
     16 O          -2.0501    4.2620   23.8692 O.3     1  UNL1       -0.4791
     17 N          -5.4920    4.6134   20.9917 N.3     1  UNL1       -0.2737
     18 C          -5.4744    3.5112   22.0089 C.3     1  UNL1        0.0758
     19 C          -4.3271    3.3940   22.9681 C.3     1  UNL1        0.0609
     20 C          -3.1974    4.3791   22.9101 C.3     1  UNL1        0.1687
     21 C          -3.2150    5.4814   21.8928 C.3     1  UNL1        0.0609
     22 C          -4.3623    5.5985   20.9337 C.3     1  UNL1        0.0758
     23 C          -6.8271    3.7004   18.9586 C.3     1  UNL1        0.0173
     24 C          -6.6393    4.7305   20.0326 C.3     1  UNL1        0.0576
     25 C          -7.5988    5.8778   20.1475 C.3     1  UNL1        0.0173
     26 C           4.9171   -2.4436   20.3121 C.3     1  UNL1        0.0937
     27 C           4.3917   -3.6550   19.6005 C.3     1  UNL1        0.0199
     28 C           4.6390   -4.9376   18.8630 C.3     1  UNL1        0.0018
     29 C           3.2343   -4.4707   19.1055 C.3     1  UNL1        0.0018
@<TRIPOS>BOND
     1    23    24    1
     2    24    25    1
     3    24    17    1
     4    17    18    1
     5    18    19    1
     6    19    20    1
     7    20    16    1
     8    16     1    1
     9     1     2   ar
    10     2     3   ar
    11     3     4   ar
    12     4     5   ar
    13     5     6   ar
    14     5     7   ar
    15     7     8   ar
    16     8     9   ar
    17     9    10    1
    18    10    11    1
    19    11    12    1
    20    11    13    1
    21    13    26    1
    22    26    27    1
    23    27    28    1
    24    28    29    1
    25    13    14   am
    26    14    15    2
    27    20    21    1
    28    21    22    1
    29    22    17    1
    30     6     1   ar
    31    14     8    1
    32     9     4   ar
    33    29    27    1
@<TRIPOS>MOLECULE
*****
 29 33 0 0 0
SMALL
GASTEIGER

@<TRIPOS>ATOM
      1 C          -0.4905    2.8104   20.1478 C.ar    1  UNL1        0.1385
      2 C          -0.3464    2.1721   21.4975 C.ar    1  UNL1        0.0384
      3 C           0.6577    1.0774   21.7060 C.ar    1  UNL1        0.0203
      4 C           1.5175    0.6210   20.5647 C.ar    1  UNL1        0.0602
      5 C           1.3734    1.2594   19.2151 C.ar    1  UNL1        0.0204
      6 C           0.3694    2.3541   19.0066 C.ar    1  UNL1        0.0384
      7 C           2.3523    0.6049   18.2859 C.ar    1  UNL1        0.0234
      8 C           3.1015   -0.4379   19.0613 C.ar    1  UNL1        0.1143
      9 N           2.5856   -0.4280   20.4697 N.ar    1  UNL1       -0.3219
     10 C           3.1549   -1.3754   21.4837 C.3     1  UNL1        0.1258
     11 C           4.2402   -2.3327   21.0892 C.3     1  UNL1        0.0982
     12 C           4.8096   -3.2802   22.1032 C.3     1  UNL1        0.0236
     13 N           4.7561   -2.3426   19.6808 N.am    1  UNL1       -0.2746
     14 C           4.1867   -1.3952   18.6668 C.2     1  UNL1        0.2649
     15 O           4.7027   -1.4052   17.2583 O.2     1  UNL1       -0.2683
     16 O          -1.4946    3.9052   19.9393 O.3     1  UNL1       -0.4791
     17 N          -4.9612    4.3487   22.7740 N.3     1  UNL1       -0.2737
     18 C          -5.0521    3.3924   21.6219 C.3     1  UNL1        0.0758
     19 C          -3.8965    3.2445   20.6770 C.3     1  UNL1        0.0609
     20 C          -2.6501    4.0530   20.8841 C.3     1  UNL1        0.1687
     21 C          -2.5593    5.0094   22.0362 C.3     1  UNL1        0.0609
     22 C          -3.7149    5.1572   22.9811 C.3     1  UNL1        0.0758
     23 C          -5.8664    4.7403   25.1775 C.3     1  UNL1        0.0173
     24 C          -6.1168    4.4965   23.7188 C.3     1  UNL1        0.0576
     25 C          -7.5228    4.4006   23.2050 C.3     1  UNL1        0.0173
     26 C           5.8415   -3.3000   19.2863 C.3     1  UNL1        0.0937
     27 C           7.2776   -2.9553   19.5487 C.3     1  UNL1        0.0199
     28 C           8.4622   -2.9381   20.4687 C.3     1  UNL1        0.0018
     29 C           8.5802   -2.3752   19.0833 C.3     1  UNL1        0.0018
@<TRIPOS>BOND
     1    23    24    1
     2    24    25    1
     3    24    17    1
     4    17    18    1
     5    18    19    1
     6    19    20    1
     7    20    16    1
     8    16     1    1
     9     1     2   ar
    10     2     3   ar
    11     3     4   ar
    12     4     5   ar
    13     5     6   ar
    14     5     7   ar
    15     7     8   ar
    16     8     9   ar
    17     9    10    1
    18    10    11    1
    19    11    12    1
    20    11    13    1
    21    13    26    1
    22    26    27    1
    23    27    28    1
    24    28    29    1
    25    13    14   am
    26    14    15    2
    27    20    21    1
    28    21    22    1
    29    22    17    1
    30     6     1   ar
    31    14     8    1
    32     9     4   ar
    33    29    27    1
@<TRIPOS>MOLECULE
*****
 29 33 0 0 0
SMALL
GASTEIGER

@<TRIPOS>ATOM
      1 C           0.8016    2.8179   20.2487 C.ar    1  UNL1        0.1385
      2 C           0.9095    2.9286   21.7406 C.ar    1  UNL1        0.0384
      3 C          -0.3166    3.1911   22.5638 C.ar    1  UNL1        0.0203
      4 C          -1.6506    3.3429   21.8951 C.ar    1  UNL1        0.0602
      5 C          -1.7586    3.2321   20.4031 C.ar    1  UNL1        0.0204
      6 C          -0.5325    2.9697   19.5799 C.ar    1  UNL1        0.0384
      7 C          -3.1977    3.4254   20.0269 C.ar    1  UNL1        0.0234
      8 C          -3.9792    3.6556   21.2864 C.ar    1  UNL1        0.1143
      9 N          -3.0231    3.6046   22.4410 N.ar    1  UNL1       -0.3219
     10 C          -3.5257    3.8030   23.8402 C.3     1  UNL1        0.1258
     11 C          -4.9844    4.0524   24.0849 C.3     1  UNL1        0.0982
     12 C          -5.4870    4.2508   25.4842 C.3     1  UNL1        0.0236
     13 N          -5.9405    4.1034   22.9302 N.am    1  UNL1       -0.2746
     14 C          -5.4379    3.9050   21.5309 C.2     1  UNL1        0.2649
     15 O          -6.3941    3.9560   20.3763 O.2     1  UNL1       -0.2683
     16 O           2.0277    2.5554   19.4254 O.3     1  UNL1       -0.4791
     17 N           3.5884   -1.6427   18.9888 N.3     1  UNL1       -0.2737
     18 C           4.0996   -0.5553   18.0909 C.3     1  UNL1        0.0758
     19 C           3.5794    0.8441   18.2364 C.3     1  UNL1        0.0609
     20 C           2.5480    1.1561   19.2798 C.3     1  UNL1        0.1687
     21 C           2.0367    0.0686   20.1778 C.3     1  UNL1        0.0609
     22 C           2.5570   -1.3307   20.0322 C.3     1  UNL1        0.0758
     23 C           5.5162   -3.2745   18.3798 C.3     1  UNL1        0.0173
     24 C           4.1086   -3.0420   18.8432 C.3     1  UNL1        0.0576
     25 C           3.2213   -4.2089   19.1611 C.3     1  UNL1        0.0173
     26 C          -7.3993    4.3529   23.1749 C.3     1  UNL1        0.0937
     27 C          -7.9055    5.7571   23.3232 C.3     1  UNL1        0.0199
     28 C          -8.6786    6.7845   24.0957 C.3     1  UNL1        0.0018
     29 C          -8.0092    7.1618   22.8075 C.3     1  UNL1        0.0018
@<TRIPOS>BOND
     1    23    24    1
     2    24    25    1
     3    24    17    1
     4    17    18    1
     5    18    19    1
     6    19    20    1
     7    20    16    1
     8    16     1    1
     9     1     2   ar
    10     2     3   ar
    11     3     4   ar
    12     4     5   ar
    13     5     6   ar
    14     5     7   ar
    15     7     8   ar
    16     8     9   ar
    17     9    10    1
    18    10    11    1
    19    11    12    1
    20    11    13    1
    21    13    26    1
    22    26    27    1
    23    27    28    1
    24    28    29    1
    25    13    14   am
    26    14    15    2
    27    20    21    1
    28    21    22    1
    29    22    17    1
    30     6     1   ar
    31    14     8    1
    32     9     4   ar
    33    29    27    1
@<TRIPOS>MOLECULE
*****
 29 33 0 0 0
SMALL
GASTEIGER

@<TRIPOS>ATOM
      1 C          -0.6807    2.8307   24.5716 C.ar    1  UNL1        0.1385
      2 C          -0.8739    3.3001   23.1602 C.ar    1  UNL1        0.0384
      3 C          -0.0968    2.6648   22.0455 C.ar    1  UNL1        0.0203
      4 C           0.8734    1.5600   22.3424 C.ar    1  UNL1        0.0602
      5 C           1.0666    1.0906   23.7538 C.ar    1  UNL1        0.0204
      6 C           0.2895    1.7259   24.8685 C.ar    1  UNL1        0.0384
      7 C           2.0857   -0.0099   23.7409 C.ar    1  UNL1        0.0234
      8 C           2.5224   -0.2207   22.3214 C.ar    1  UNL1        0.1143
      9 N           1.7732    0.7496   21.4570 N.ar    1  UNL1       -0.3219
     10 C           2.0070    0.7699   19.9756 C.3     1  UNL1        0.1258
     11 C           2.9901   -0.1802   19.3584 C.3     1  UNL1        0.0982
     12 C           3.2240   -0.1600   17.8769 C.3     1  UNL1        0.0236
     13 N           3.7393   -1.1505   20.2228 N.am    1  UNL1       -0.2746
     14 C           3.5055   -1.1707   21.7043 C.2     1  UNL1        0.2649
     15 O           4.2548   -2.1411   22.5687 O.2     1  UNL1       -0.2683
     16 O          -1.4578    3.4660   25.6864 O.3     1  UNL1       -0.4791
     17 N          -5.7126    4.7647   25.0079 N.3     1  UNL1       -0.2737
     18 C          -4.9170    5.3598   26.1316 C.3     1  UNL1        0.0758
     19 C          -3.4987    4.9269   26.3578 C.3     1  UNL1        0.0609
     20 C          -2.8761    3.8989   25.4602 C.3     1  UNL1        0.1687
     21 C          -3.6718    3.3038   24.3365 C.3     1  UNL1        0.0609
     22 C          -5.0900    3.7367   24.1103 C.3     1  UNL1        0.0758
     23 C          -7.7433    6.2485   25.6595 C.3     1  UNL1        0.0173
     24 C          -7.1308    5.1976   24.7817 C.3     1  UNL1        0.0576
     25 C          -7.9367    4.5795   23.6777 C.3     1  UNL1        0.0173
     26 C           4.7225   -2.1006   19.6057 C.3     1  UNL1        0.0937
     27 C           4.2978   -3.4955   19.2537 C.3     1  UNL1        0.0199
     28 C           4.6362   -4.8707   18.7594 C.3     1  UNL1        0.0018
     29 C           3.2239   -4.5364   19.1384 C.3     1  UNL1        0.0018
@<TRIPOS>BOND
     1    23    24    1
     2    24    25    1
     3    24    17    1
     4    17    18    1
     5    18    19    1
     6    19    20    1
     7    20    16    1
     8    16     1    1
     9     1     2   ar
    10     2     3   ar
    11     3     4   ar
    12     4     5   ar
    13     5     6   ar
    14     5     7   ar
    15     7     8   ar
    16     8     9   ar
    17     9    10    1
    18    10    11    1
    19    11    12    1
    20    11    13    1
    21    13    26    1
    22    26    27    1
    23    27    28    1
    24    28    29    1
    25    13    14   am
    26    14    15    2
    27    20    21    1
    28    21    22    1
    29    22    17    1
    30     6     1   ar
    31    14     8    1
    32     9     4   ar
    33    29    27    1
@<TRIPOS>MOLECULE
*****
 29 33 0 0 0
SMALL
GASTEIGER

@<TRIPOS>ATOM
      1 C           7.9987   -5.2847   25.3949 C.ar    1  UNL1        0.1385
      2 C           8.6285   -5.6191   24.0753 C.ar    1  UNL1        0.0384
      3 C           8.0526   -5.0628   22.8069 C.ar    1  UNL1        0.0203
      4 C           6.8467   -4.1721   22.8582 C.ar    1  UNL1        0.0602
      5 C           6.2168   -3.8377   24.1778 C.ar    1  UNL1        0.0204
      6 C           6.7928   -4.3940   25.4461 C.ar    1  UNL1        0.0384
      7 C           5.0438   -2.9399   23.9172 C.ar    1  UNL1        0.0234
      8 C           4.9488   -2.7194   22.4365 C.ar    1  UNL1        0.1143
      9 N           6.0630   -3.4809   21.7820 N.ar    1  UNL1       -0.3219
     10 C           6.2200   -3.4466   20.2907 C.3     1  UNL1        0.1258
     11 C           5.2628   -2.6508   19.4538 C.3     1  UNL1        0.0982
     12 C           5.4198   -2.6165   17.9625 C.3     1  UNL1        0.0236
     13 N           4.1485   -1.8892   20.1084 N.am    1  UNL1       -0.2746
     14 C           3.9915   -1.9235   21.5998 C.2     1  UNL1        0.2649
     15 O           2.8772   -1.1619   22.2543 O.2     1  UNL1       -0.2683
     16 O           8.5746   -5.8410   26.6633 O.3     1  UNL1       -0.4791
     17 N           7.6974   -3.8428   30.5988 N.3     1  UNL1       -0.2737
     18 C           8.7612   -3.2897   29.6975 C.3     1  UNL1        0.0758
     19 C           9.0537   -3.9557   28.3856 C.3     1  UNL1        0.0609
     20 C           8.2822   -5.1749   27.9751 C.3     1  UNL1        0.1687
     21 C           7.2184   -5.7280   28.8765 C.3     1  UNL1        0.0609
     22 C           6.9260   -5.0620   30.1883 C.3     1  UNL1        0.0758
     23 C           8.4995   -2.4684   32.6525 C.3     1  UNL1        0.0173
     24 C           7.4051   -3.1767   31.9106 C.3     1  UNL1        0.0576
     25 C           6.0181   -3.2190   32.4805 C.3     1  UNL1        0.0173
     26 C           3.1912   -1.0933   19.2716 C.3     1  UNL1        0.0937
     27 C           3.5544    0.2938   18.8310 C.3     1  UNL1        0.0199
     28 C           4.5738    1.2710   18.3252 C.3     1  UNL1        0.0018
     29 C           3.1640    1.7191   18.5737 C.3     1  UNL1        0.0018
@<TRIPOS>BOND
     1    23    24    1
     2    24    25    1
     3    24    17    1
     4    17    18    1
     5    18    19    1
     6    19    20    1
     7    20    16    1
     8    16     1    1
     9     1     2   ar
    10     2     3   ar
    11     3     4   ar
    12     4     5   ar
    13     5     6   ar
    14     5     7   ar
    15     7     8   ar
    16     8     9   ar
    17     9    10    1
    18    10    11    1
    19    11    12    1
    20    11    13    1
    21    13    26    1
    22    26    27    1
    23    27    28    1
    24    28    29    1
    25    13    14   am
    26    14    15    2
    27    20    21    1
    28    21    22    1
    29    22    17    1
    30     6     1   ar
    31    14     8    1
    32     9     4   ar
    33    29    27    1
