@<TRIPOS>MOLECULE
*****
 24 26 0 0 0
SMALL
GASTEIGER

@<TRIPOS>ATOM
      1 C          -7.9880  -19.2288   21.6723 C.2     1  UNL1       -0.0246
      2 C          -8.6411  -19.5617   20.3636 C.2     1  UNL1       -0.0421
      3 C          -7.5667  -19.9716   19.4005 C.3     1  UNL1        0.0480
      4 C          -6.2496  -19.8921   20.1139 C.ar    1  UNL1       -0.0184
      5 C          -4.8469  -20.1783   19.6664 C.ar    1  UNL1       -0.0040
      6 C          -3.7045  -20.0056   20.6230 C.ar    1  UNL1       -0.0003
      7 C          -3.9649  -19.5465   22.0271 C.ar    1  UNL1       -0.0000
      8 C          -5.3677  -19.2602   22.4746 C.ar    1  UNL1       -0.0006
      9 C          -6.5100  -19.4330   21.5180 C.ar    1  UNL1       -0.0079
     10 C          -9.6734  -19.6766   23.5983 C.3     1  UNL1        0.0111
     11 C          -8.6897  -18.7720   22.9169 C.3     1  UNL1        0.0634
     12 C          -8.4079  -17.4107   23.4801 C.ar    1  UNL1        0.0818
     13 C          -9.0578  -16.9798   24.7615 C.ar    1  UNL1        0.1139
     14 N          -8.7759  -15.6184   25.3247 N.ar    1  UNL1       -0.2394
     15 C          -7.8440  -14.6879   24.6066 C.ar    1  UNL1        0.1195
     16 C          -7.1940  -15.1187   23.3251 C.ar    1  UNL1        0.1191
     17 N          -7.4760  -16.4801   22.7619 N.ar    1  UNL1       -0.2446
     18 C         -10.1106  -19.4961   20.0697 C.3     1  UNL1        0.0394
     19 C         -10.7470  -18.1846   19.7165 C.3     1  UNL1        0.0766
     20 N         -11.3569  -17.3335   20.7906 N.3     1  UNL1       -0.2688
     21 C         -10.7609  -15.9961   21.1166 C.3     1  UNL1        0.0897
     22 C         -12.5626  -17.8198   21.5387 C.3     1  UNL1        0.1107
     23 C         -12.7011  -17.5345   23.0048 C.3     1  UNL1        0.2105
     24 F         -13.9256  -17.9856   23.7443 F       1  UNL1       -0.2328
@<TRIPOS>BOND
     1    11    10    1
     2    11     1    1
     3     1     2    2
     4     2    18    1
     5    18    19    1
     6    19    20    1
     7    20    21    1
     8    20    22    1
     9    22    23    1
    10    23    24    1
    11     2     3    1
    12     3     4    1
    13     4     5   ar
    14     5     6   ar
    15     6     7   ar
    16     7     8   ar
    17     8     9   ar
    18    11    12    1
    19    12    13   ar
    20    13    14   ar
    21    14    15   ar
    22    15    16   ar
    23    16    17   ar
    24     9     1    1
    25    17    12   ar
    26     9     4   ar
@<TRIPOS>MOLECULE
*****
 24 26 0 0 0
SMALL
GASTEIGER

@<TRIPOS>ATOM
      1 C          -6.4224  -18.6645   21.5682 C.2     1  UNL1       -0.0246
      2 C          -7.8804  -18.5028   21.2553 C.2     1  UNL1       -0.0421
      3 C          -8.4244  -17.4136   22.1315 C.3     1  UNL1        0.0480
      4 C          -7.3026  -16.9021   22.9859 C.ar    1  UNL1       -0.0184
      5 C          -7.2480  -15.8324   24.0359 C.ar    1  UNL1       -0.0040
      6 C          -5.9559  -15.5357   24.7377 C.ar    1  UNL1       -0.0003
      7 C          -4.7186  -16.3088   24.3895 C.ar    1  UNL1       -0.0000
      8 C          -4.7732  -17.3786   23.3395 C.ar    1  UNL1       -0.0006
      9 C          -6.0652  -17.6752   22.6377 C.ar    1  UNL1       -0.0079
     10 C          -5.9327  -21.0526   20.6697 C.3     1  UNL1        0.0111
     11 C          -5.4858  -19.6435   20.9245 C.3     1  UNL1        0.0634
     12 C          -4.1024  -19.2136   20.5356 C.ar    1  UNL1        0.0818
     13 C          -2.9114  -19.7894   21.2427 C.ar    1  UNL1        0.1139
     14 N          -1.5280  -19.3594   20.8537 N.ar    1  UNL1       -0.2394
     15 C          -1.3355  -18.3537   19.7576 C.ar    1  UNL1        0.1195
     16 C          -2.5265  -17.7779   19.0504 C.ar    1  UNL1        0.1191
     17 N          -3.9099  -18.2079   19.4394 N.ar    1  UNL1       -0.2446
     18 C          -8.6579  -19.2917   20.2439 C.3     1  UNL1        0.0394
     19 C         -10.0901  -18.9457   19.9626 C.3     1  UNL1        0.0766
     20 N         -11.1166  -19.0586   21.0504 N.3     1  UNL1       -0.2688
     21 C         -12.1562  -17.9898   21.2146 C.3     1  UNL1        0.0897
     22 C         -11.1036  -20.2404   21.9741 C.3     1  UNL1        0.1107
     23 C         -10.5343  -20.1065   23.3554 C.3     1  UNL1        0.2105
     24 F          -9.1065  -20.4841   23.6180 F       1  UNL1       -0.2328
@<TRIPOS>BOND
     1    11    10    1
     2    11     1    1
     3     1     2    2
     4     2    18    1
     5    18    19    1
     6    19    20    1
     7    20    21    1
     8    20    22    1
     9    22    23    1
    10    23    24    1
    11     2     3    1
    12     3     4    1
    13     4     5   ar
    14     5     6   ar
    15     6     7   ar
    16     7     8   ar
    17     8     9   ar
    18    11    12    1
    19    12    13   ar
    20    13    14   ar
    21    14    15   ar
    22    15    16   ar
    23    16    17   ar
    24     9     1    1
    25    17    12   ar
    26     9     4   ar
@<TRIPOS>MOLECULE
*****
 24 26 0 0 0
SMALL
GASTEIGER

@<TRIPOS>ATOM
      1 C          -8.5566  -17.1036   23.8975 C.2     1  UNL1       -0.0246
      2 C          -9.6387  -17.9339   24.5217 C.2     1  UNL1       -0.0421
      3 C          -9.5858  -17.7242   26.0061 C.3     1  UNL1        0.0480
      4 C          -8.4711  -16.7643   26.2992 C.ar    1  UNL1       -0.0184
      5 C          -7.9531  -16.1899   27.5844 C.ar    1  UNL1       -0.0040
      6 C          -6.7989  -15.2320   27.5663 C.ar    1  UNL1       -0.0003
      7 C          -6.1629  -14.8484   26.2632 C.ar    1  UNL1       -0.0000
      8 C          -6.6809  -15.4228   24.9780 C.ar    1  UNL1       -0.0006
      9 C          -7.8350  -16.3807   24.9960 C.ar    1  UNL1       -0.0079
     10 C          -8.7180  -15.8271   21.6403 C.3     1  UNL1        0.0111
     11 C          -8.2500  -17.0122   22.4320 C.3     1  UNL1        0.0634
     12 C          -7.4755  -18.1057   21.7582 C.ar    1  UNL1        0.0818
     13 C          -8.1373  -18.9647   20.7218 C.ar    1  UNL1        0.1139
     14 N          -7.3627  -20.0583   20.0480 N.ar    1  UNL1       -0.2394
     15 C          -5.9262  -20.2929   20.4104 C.ar    1  UNL1        0.1195
     16 C          -5.2642  -19.4339   21.4468 C.ar    1  UNL1        0.1191
     17 N          -6.0389  -18.3403   22.1206 N.ar    1  UNL1       -0.2446
     18 C         -10.6041  -18.8186   23.7901 C.3     1  UNL1        0.0394
     19 C         -11.9578  -18.2973   23.4083 C.3     1  UNL1        0.0766
     20 N         -12.0951  -17.3283   22.2716 N.3     1  UNL1       -0.2688
     21 C         -12.3035  -15.8693   22.5508 C.3     1  UNL1        0.0897
     22 C         -12.0239  -17.8183   20.8557 C.3     1  UNL1        0.1107
     23 C         -11.4108  -16.9550   19.7932 C.3     1  UNL1        0.2105
     24 F         -12.1495  -15.7523   19.2853 F       1  UNL1       -0.2328
@<TRIPOS>BOND
     1    11    10    1
     2    11     1    1
     3     1     2    2
     4     2    18    1
     5    18    19    1
     6    19    20    1
     7    20    21    1
     8    20    22    1
     9    22    23    1
    10    23    24    1
    11     2     3    1
    12     3     4    1
    13     4     5   ar
    14     5     6   ar
    15     6     7   ar
    16     7     8   ar
    17     8     9   ar
    18    11    12    1
    19    12    13   ar
    20    13    14   ar
    21    14    15   ar
    22    15    16   ar
    23    16    17   ar
    24     9     1    1
    25    17    12   ar
    26     9     4   ar
@<TRIPOS>MOLECULE
*****
 24 26 0 0 0
SMALL
GASTEIGER

@<TRIPOS>ATOM
      1 C          -6.5751  -19.1123   21.1397 C.2     1  UNL1       -0.0246
      2 C          -6.5194  -18.1637   22.3004 C.2     1  UNL1       -0.0421
      3 C          -7.8790  -17.5517   22.4644 C.3     1  UNL1        0.0480
      4 C          -8.7749  -18.1220   21.4051 C.ar    1  UNL1       -0.0184
      5 C         -10.2204  -17.8876   21.0804 C.ar    1  UNL1       -0.0040
      6 C         -10.8601  -18.6178   19.9369 C.ar    1  UNL1       -0.0003
      7 C         -10.0542  -19.5823   19.1182 C.ar    1  UNL1       -0.0000
      8 C          -8.6087  -19.8167   19.4429 C.ar    1  UNL1       -0.0006
      9 C          -7.9691  -19.0865   20.5864 C.ar    1  UNL1       -0.0079
     10 C          -5.6381  -21.4012   20.3439 C.3     1  UNL1        0.0111
     11 C          -5.4366  -19.9412   20.6230 C.3     1  UNL1        0.0634
     12 C          -4.0968  -19.3101   20.3854 C.ar    1  UNL1        0.0818
     13 C          -2.8941  -19.7977   21.1375 C.ar    1  UNL1        0.1139
     14 N          -1.5542  -19.1667   20.8998 N.ar    1  UNL1       -0.2394
     15 C          -1.4170  -18.0480   19.9100 C.ar    1  UNL1        0.1195
     16 C          -2.6197  -17.5603   19.1578 C.ar    1  UNL1        0.1191
     17 N          -3.9596  -18.1914   19.3955 N.ar    1  UNL1       -0.2446
     18 C          -5.3155  -17.8774   23.1481 C.3     1  UNL1        0.0394
     19 C          -4.9787  -16.4637   23.5195 C.3     1  UNL1        0.0766
     20 N          -5.6627  -15.8110   24.6841 N.3     1  UNL1       -0.2688
     21 C          -5.0678  -15.9140   26.0573 C.3     1  UNL1        0.0897
     22 C          -6.9415  -15.0553   24.4754 C.3     1  UNL1        0.1107
     23 C          -8.1303  -15.3381   25.3454 C.3     1  UNL1        0.2105
     24 F          -9.4951  -15.4575   24.7347 F       1  UNL1       -0.2328
@<TRIPOS>BOND
     1    11    10    1
     2    11     1    1
     3     1     2    2
     4     2    18    1
     5    18    19    1
     6    19    20    1
     7    20    21    1
     8    20    22    1
     9    22    23    1
    10    23    24    1
    11     2     3    1
    12     3     4    1
    13     4     5   ar
    14     5     6   ar
    15     6     7   ar
    16     7     8   ar
    17     8     9   ar
    18    11    12    1
    19    12    13   ar
    20    13    14   ar
    21    14    15   ar
    22    15    16   ar
    23    16    17   ar
    24     9     1    1
    25    17    12   ar
    26     9     4   ar
@<TRIPOS>MOLECULE
*****
 24 26 0 0 0
SMALL
GASTEIGER

@<TRIPOS>ATOM
      1 C          -7.9214  -17.8226   22.8175 C.2     1  UNL1       -0.0246
      2 C          -8.9812  -18.7821   23.2715 C.2     1  UNL1       -0.0421
      3 C          -8.6417  -20.1385   22.7285 C.3     1  UNL1        0.0480
      4 C          -7.3720  -20.0173   21.9391 C.ar    1  UNL1       -0.0184
      5 C          -6.5638  -21.0254   21.1772 C.ar    1  UNL1       -0.0040
      6 C          -5.3103  -20.6022   20.4704 C.ar    1  UNL1       -0.0003
      7 C          -4.8651  -19.1708   20.5254 C.ar    1  UNL1       -0.0000
      8 C          -5.6734  -18.1627   21.2872 C.ar    1  UNL1       -0.0006
      9 C          -6.9268  -18.5860   21.9941 C.ar    1  UNL1       -0.0079
     10 C          -8.2752  -15.3517   22.0964 C.3     1  UNL1        0.0111
     11 C          -7.8658  -16.3569   23.1319 C.3     1  UNL1        0.0634
     12 C          -7.4008  -15.8964   24.4815 C.ar    1  UNL1        0.0818
     13 C          -6.0014  -15.3862   24.6588 C.ar    1  UNL1        0.1139
     14 N          -5.5364  -14.9257   26.0085 N.ar    1  UNL1       -0.2394
     15 C          -6.4707  -14.9753   27.1809 C.ar    1  UNL1        0.1195
     16 C          -7.8702  -15.4854   27.0036 C.ar    1  UNL1        0.1191
     17 N          -8.3351  -15.9460   25.6539 N.ar    1  UNL1       -0.2446
     18 C         -10.1716  -18.4444   24.1195 C.3     1  UNL1        0.0394
     19 C         -11.5395  -18.3946   23.5061 C.3     1  UNL1        0.0766
     20 N         -11.7834  -17.5602   22.2837 N.3     1  UNL1       -0.2688
     21 C         -11.9628  -16.0765   22.4119 C.3     1  UNL1        0.0897
     22 C         -11.8478  -18.2095   20.9330 C.3     1  UNL1        0.1107
     23 C         -10.6633  -18.1494   20.0147 C.3     1  UNL1        0.2105
     24 F          -9.8809  -19.3941   19.7174 F       1  UNL1       -0.2328
@<TRIPOS>BOND
     1    11    10    1
     2    11     1    1
     3     1     2    2
     4     2    18    1
     5    18    19    1
     6    19    20    1
     7    20    21    1
     8    20    22    1
     9    22    23    1
    10    23    24    1
    11     2     3    1
    12     3     4    1
    13     4     5   ar
    14     5     6   ar
    15     6     7   ar
    16     7     8   ar
    17     8     9   ar
    18    11    12    1
    19    12    13   ar
    20    13    14   ar
    21    14    15   ar
    22    15    16   ar
    23    16    17   ar
    24     9     1    1
    25    17    12   ar
    26     9     4   ar
@<TRIPOS>MOLECULE
*****
 24 26 0 0 0
SMALL
GASTEIGER

@<TRIPOS>ATOM
      1 C          -7.5376  -17.7953   22.0363 C.2     1  UNL1       -0.0246
      2 C          -8.2707  -18.7310   21.1214 C.2     1  UNL1       -0.0421
      3 C          -7.3047  -19.7834   20.6639 C.3     1  UNL1        0.0480
      4 C          -5.9747  -19.4982   21.2960 C.ar    1  UNL1       -0.0184
      5 C          -4.6511  -20.1985   21.2088 C.ar    1  UNL1       -0.0040
      6 C          -3.4715  -19.6701   21.9698 C.ar    1  UNL1       -0.0003
      7 C          -3.6154  -18.4414   22.8180 C.ar    1  UNL1       -0.0000
      8 C          -4.9389  -17.7410   22.9052 C.ar    1  UNL1       -0.0006
      9 C          -6.1186  -18.2694   22.1442 C.ar    1  UNL1       -0.0079
     10 C          -8.9923  -15.6440   21.9580 C.3     1  UNL1        0.0111
     11 C          -8.1211  -16.5960   22.7228 C.3     1  UNL1        0.0634
     12 C          -7.8334  -16.3487   24.1739 C.ar    1  UNL1        0.0818
     13 C          -8.8122  -16.7951   25.2193 C.ar    1  UNL1        0.1139
     14 N          -8.5244  -16.5477   26.6705 N.ar    1  UNL1       -0.2394
     15 C          -7.2580  -15.8538   27.0764 C.ar    1  UNL1        0.1195
     16 C          -6.2792  -15.4074   26.0311 C.ar    1  UNL1        0.1191
     17 N          -6.5670  -15.6548   24.5799 N.ar    1  UNL1       -0.2446
     18 C          -9.7159  -18.6318   20.7323 C.3     1  UNL1        0.0394
     19 C         -10.7440  -19.4557   21.4494 C.3     1  UNL1        0.0766
     20 N         -11.2391  -19.0284   22.7993 N.3     1  UNL1       -0.2688
     21 C         -11.9520  -17.7179   22.9565 C.3     1  UNL1        0.0897
     22 C         -11.0215  -19.9115   23.9921 C.3     1  UNL1        0.1107
     23 C          -9.6291  -20.1865   24.4776 C.3     1  UNL1        0.2105
     24 F          -8.6294  -20.8301   23.5631 F       1  UNL1       -0.2328
@<TRIPOS>BOND
     1    11    10    1
     2    11     1    1
     3     1     2    2
     4     2    18    1
     5    18    19    1
     6    19    20    1
     7    20    21    1
     8    20    22    1
     9    22    23    1
    10    23    24    1
    11     2     3    1
    12     3     4    1
    13     4     5   ar
    14     5     6   ar
    15     6     7   ar
    16     7     8   ar
    17     8     9   ar
    18    11    12    1
    19    12    13   ar
    20    13    14   ar
    21    14    15   ar
    22    15    16   ar
    23    16    17   ar
    24     9     1    1
    25    17    12   ar
    26     9     4   ar
@<TRIPOS>MOLECULE
*****
 24 26 0 0 0
SMALL
GASTEIGER

@<TRIPOS>ATOM
      1 C          -6.8119  -17.6920   22.5926 C.2     1  UNL1       -0.0246
      2 C          -7.5688  -18.8582   22.0298 C.2     1  UNL1       -0.0421
      3 C          -6.5737  -19.9058   21.6269 C.3     1  UNL1        0.0480
      4 C          -5.2017  -19.3869   21.9407 C.ar    1  UNL1       -0.0184
      5 C          -3.8374  -19.9836   21.7600 C.ar    1  UNL1       -0.0040
      6 C          -2.6203  -19.2120   22.1762 C.ar    1  UNL1       -0.0003
      7 C          -2.7675  -17.8437   22.7731 C.ar    1  UNL1       -0.0000
      8 C          -4.1318  -17.2471   22.9538 C.ar    1  UNL1       -0.0006
      9 C          -5.3489  -18.0187   22.5376 C.ar    1  UNL1       -0.0079
     10 C          -8.1156  -15.4820   22.1843 C.3     1  UNL1        0.0111
     11 C          -7.4124  -16.4219   23.1183 C.3     1  UNL1        0.0634
     12 C          -7.3098  -16.0916   24.5778 C.ar    1  UNL1        0.0818
     13 C          -6.0826  -15.4117   25.1085 C.ar    1  UNL1        0.1139
     14 N          -5.9800  -15.0814   26.5681 N.ar    1  UNL1       -0.2394
     15 C          -7.1047  -15.4310   27.4970 C.ar    1  UNL1        0.1195
     16 C          -8.3319  -16.1109   26.9664 C.ar    1  UNL1        0.1191
     17 N          -8.4345  -16.4412   25.5068 N.ar    1  UNL1       -0.2446
     18 C          -9.0592  -18.9592   21.8938 C.3     1  UNL1        0.0394
     19 C          -9.9507  -18.3200   22.9169 C.3     1  UNL1        0.0766
     20 N         -10.5886  -19.1585   23.9846 N.3     1  UNL1       -0.2688
     21 C          -9.8811  -20.3740   24.5063 C.3     1  UNL1        0.0897
     22 C         -11.9338  -18.7816   24.5307 C.3     1  UNL1        0.1107
     23 C         -12.9117  -18.0390   23.6691 C.3     1  UNL1        0.2105
     24 F         -14.3839  -18.2783   23.8280 F       1  UNL1       -0.2328
@<TRIPOS>BOND
     1    11    10    1
     2    11     1    1
     3     1     2    2
     4     2    18    1
     5    18    19    1
     6    19    20    1
     7    20    21    1
     8    20    22    1
     9    22    23    1
    10    23    24    1
    11     2     3    1
    12     3     4    1
    13     4     5   ar
    14     5     6   ar
    15     6     7   ar
    16     7     8   ar
    17     8     9   ar
    18    11    12    1
    19    12    13   ar
    20    13    14   ar
    21    14    15   ar
    22    15    16   ar
    23    16    17   ar
    24     9     1    1
    25    17    12   ar
    26     9     4   ar
@<TRIPOS>MOLECULE
*****
 24 26 0 0 0
SMALL
GASTEIGER

@<TRIPOS>ATOM
      1 C         -13.2445   -4.8432   19.4132 C.2     1  UNL1       -0.0246
      2 C         -14.2675   -5.9244   19.2271 C.2     1  UNL1       -0.0421
      3 C         -13.5520   -7.1701   18.7956 C.3     1  UNL1        0.0480
      4 C         -12.0868   -6.8588   18.7149 C.ar    1  UNL1       -0.0184
      5 C         -10.9012   -7.6991   18.3432 C.ar    1  UNL1       -0.0040
      6 C          -9.5256   -7.1013   18.3532 C.ar    1  UNL1       -0.0003
      7 C          -9.3356   -5.6631   18.7348 C.ar    1  UNL1       -0.0000
      8 C         -10.5212   -4.8229   19.1066 C.ar    1  UNL1       -0.0006
      9 C         -11.8968   -5.4207   19.0966 C.ar    1  UNL1       -0.0079
     10 C         -13.9400   -3.1445   21.2520 C.3     1  UNL1        0.0111
     11 C         -13.5207   -3.4322   19.8407 C.3     1  UNL1        0.0634
     12 C         -13.3777   -2.3088   18.8571 C.ar    1  UNL1        0.0818
     13 C         -12.1438   -1.4559   18.8668 C.ar    1  UNL1        0.1139
     14 N         -12.0008   -0.3325   17.8832 N.ar    1  UNL1       -0.2394
     15 C         -13.0917   -0.0620   16.8899 C.ar    1  UNL1        0.1195
     16 C         -14.3256   -0.9148   16.8801 C.ar    1  UNL1        0.1191
     17 N         -14.4686   -2.0382   17.8637 N.ar    1  UNL1       -0.2446
     18 C         -15.7462   -5.7844   19.4360 C.3     1  UNL1        0.0394
     19 C         -16.6924   -6.7296   18.7569 C.3     1  UNL1        0.0766
     20 N         -17.2366   -7.9114   19.5034 N.3     1  UNL1       -0.2688
     21 C         -18.5730   -7.8213   20.1788 C.3     1  UNL1        0.0897
     22 C         -16.4445   -9.1832   19.5746 C.3     1  UNL1        0.1107
     23 C         -16.5316  -10.1844   18.4610 C.3     1  UNL1        0.2105
     24 F         -15.2786  -10.7536   17.8645 F       1  UNL1       -0.2328
@<TRIPOS>BOND
     1    11    10    1
     2    11     1    1
     3     1     2    2
     4     2    18    1
     5    18    19    1
     6    19    20    1
     7    20    21    1
     8    20    22    1
     9    22    23    1
    10    23    24    1
    11     2     3    1
    12     3     4    1
    13     4     5   ar
    14     5     6   ar
    15     6     7   ar
    16     7     8   ar
    17     8     9   ar
    18    11    12    1
    19    12    13   ar
    20    13    14   ar
    21    14    15   ar
    22    15    16   ar
    23    16    17   ar
    24     9     1    1
    25    17    12   ar
    26     9     4   ar
@<TRIPOS>MOLECULE
*****
 24 26 0 0 0
SMALL
GASTEIGER

@<TRIPOS>ATOM
      1 C           4.1509   -2.1978   19.2993 C.2     1  UNL1       -0.0246
      2 C           5.1623   -1.7001   18.3096 C.2     1  UNL1       -0.0421
      3 C           4.6698   -0.3940   17.7606 C.3     1  UNL1        0.0480
      4 C           3.3541   -0.0843   18.4110 C.ar    1  UNL1       -0.0184
      5 C           2.4066    1.0687   18.2601 C.ar    1  UNL1       -0.0040
      6 C           1.1384    1.1069   19.0602 C.ar    1  UNL1       -0.0003
      7 C           0.8177   -0.0080   20.0112 C.ar    1  UNL1       -0.0000
      8 C           1.7651   -1.1610   20.1620 C.ar    1  UNL1       -0.0006
      9 C           3.0333   -1.1992   19.3619 C.ar    1  UNL1       -0.0079
     10 C           3.6639   -4.7391   19.5331 C.3     1  UNL1        0.0111
     11 C           4.2412   -3.4705   20.0879 C.3     1  UNL1        0.0634
     12 C           4.9086   -3.4749   21.4311 C.ar    1  UNL1        0.0818
     13 C           4.2847   -2.7413   22.5811 C.ar    1  UNL1        0.1139
     14 N           4.9522   -2.7457   23.9244 N.ar    1  UNL1       -0.2394
     15 C           6.2437   -3.4837   24.1177 C.ar    1  UNL1        0.1195
     16 C           6.8677   -4.2173   22.9677 C.ar    1  UNL1        0.1191
     17 N           6.2002   -4.2129   21.6244 N.ar    1  UNL1       -0.2446
     18 C           6.4415   -2.3879   17.9348 C.3     1  UNL1        0.0394
     19 C           7.6550   -2.2404   18.8041 C.3     1  UNL1        0.0766
     20 N           7.8685   -0.9783   19.5861 N.3     1  UNL1       -0.2688
     21 C           8.2321    0.2918   18.8756 C.3     1  UNL1        0.0897
     22 C           7.7184   -0.9862   21.0785 C.3     1  UNL1        0.1107
     23 C           6.6809   -0.1226   21.7326 C.3     1  UNL1        0.2105
     24 F           5.5114    0.3773   20.9375 F       1  UNL1       -0.2328
@<TRIPOS>BOND
     1    11    10    1
     2    11     1    1
     3     1     2    2
     4     2    18    1
     5    18    19    1
     6    19    20    1
     7    20    21    1
     8    20    22    1
     9    22    23    1
    10    23    24    1
    11     2     3    1
    12     3     4    1
    13     4     5   ar
    14     5     6   ar
    15     6     7   ar
    16     7     8   ar
    17     8     9   ar
    18    11    12    1
    19    12    13   ar
    20    13    14   ar
    21    14    15   ar
    22    15    16   ar
    23    16    17   ar
    24     9     1    1
    25    17    12   ar
    26     9     4   ar
