@<TRIPOS>MOLECULE
*****
 29 31 0 0 0
SMALL
GASTEIGER

@<TRIPOS>ATOM
      1 C         -11.7680  -17.8966   22.1957 C.ar    1  UNL1        0.1724
      2 C         -11.8556  -18.9784   21.1604 C.ar    1  UNL1        0.0402
      3 C         -10.6053  -19.5154   20.5292 C.ar    1  UNL1        0.0078
      4 C          -9.2675  -18.9706   20.9333 C.ar    1  UNL1        0.0566
      5 C          -9.1799  -17.8887   21.9686 C.ar    1  UNL1        0.0445
      6 C         -10.4302  -17.3517   22.5998 C.ar    1  UNL1        0.1722
      7 C          -8.0172  -19.5076   20.3021 C.2     1  UNL1        0.2463
      8 O          -7.7644  -19.2943   18.8390 O.2     1  UNL1       -0.2701
      9 N          -7.0197  -20.2579   21.1339 N.am    1  UNL1       -0.2943
     10 H          -7.1856  -20.3979   22.0942 H       1  UNL1        0.1501
     11 C          -5.7694  -20.7949   20.5027 C.3     1  UNL1        0.1579
     12 C          -4.4771  -20.0462   20.6432 C.ar    1  UNL1        0.1738
     13 C          -3.6879  -19.4322   19.5251 C.ar    1  UNL1        0.0553
     14 C          -2.4703  -18.7867   20.1172 C.ar    1  UNL1        0.1000
     15 N          -2.5070  -19.0017   21.6013 N.ar    1  UNL1       -0.0817
     16 O          -3.7473  -19.7802   21.9263 O.2     1  UNL1       -0.3563
     17 C          -1.4033  -18.0546   19.3585 C.3     1  UNL1        0.0436
     18 C          -0.0800  -17.7745   20.0070 C.3     1  UNL1        0.0064
     19 C          -1.6596  -17.6026   17.9514 C.3     1  UNL1        0.0064
     20 C         -13.6257  -18.0628   24.0043 C.3     1  UNL1        0.2526
     21 O         -13.0183  -17.3596   22.8269 O.3     1  UNL1       -0.4684
     22 O         -10.3426  -16.2698   23.6351 O.3     1  UNL1       -0.4760
     23 C          -9.0246  -15.9494   24.2754 C.3     1  UNL1        0.1688
     24 C          -7.8972  -15.4135   23.4435 C.3     1  UNL1        0.0609
     25 C          -6.5791  -15.0930   24.0837 C.3     1  UNL1        0.0758
     26 N          -6.3883  -15.3084   25.5559 N.3     1  UNL1       -0.2713
     27 C          -5.0703  -14.9880   26.1961 C.3     1  UNL1        0.0896
     28 C          -7.5156  -15.8443   26.3878 C.3     1  UNL1        0.0758
     29 C          -8.8338  -16.1648   25.7475 C.3     1  UNL1        0.0609
@<TRIPOS>BOND
     1    20    21    1
     2    21     1    1
     3     1     2   ar
     4     2     3   ar
     5     3     4   ar
     6     4     7    1
     7     7     8    2
     8     7     9   am
     9     9    11    1
    10    11    12    1
    11    12    13   ar
    12    13    14   ar
    13    14    17    1
    14    17    18    1
    15    17    19    1
    16    14    15   ar
    17    15    16   ar
    18     4     5   ar
    19     5     6   ar
    20     6    22    1
    21    22    23    1
    22    23    24    1
    23    24    25    1
    24    25    26    1
    25    26    27    1
    26    26    28    1
    27    28    29    1
    28     6     1   ar
    29    29    23    1
    30    16    12   ar
    31     9    10    1
@<TRIPOS>MOLECULE
*****
 29 31 0 0 0
SMALL
GASTEIGER

@<TRIPOS>ATOM
      1 C           4.1564   -1.5452   18.1502 C.ar    1  UNL1        0.1724
      2 C           3.7282   -0.2294   17.5713 C.ar    1  UNL1        0.0402
      3 C           2.6494    0.5692   18.2410 C.ar    1  UNL1        0.0078
      4 C           1.9988    0.0518   19.4896 C.ar    1  UNL1        0.0566
      5 C           2.4269   -1.2640   20.0684 C.ar    1  UNL1        0.0445
      6 C           3.5057   -2.0626   19.3987 C.ar    1  UNL1        0.1722
      7 C           0.9199    0.8504   20.1593 C.2     1  UNL1        0.2463
      8 O          -0.2146    0.1501   20.8465 O.2     1  UNL1       -0.2701
      9 N           0.9757    2.3492   20.1417 N.am    1  UNL1       -0.2943
     10 H           1.7203    2.8089   19.6906 H       1  UNL1        0.1501
     11 C          -0.1032    3.1477   20.8114 C.3     1  UNL1        0.1579
     12 C          -1.4030    3.3935   20.1043 C.ar    1  UNL1        0.1738
     13 C          -2.7717    3.2585   20.7031 C.ar    1  UNL1        0.0553
     14 C          -3.7770    3.5989   19.6431 C.ar    1  UNL1        0.1000
     15 N          -3.0296    3.9443   18.3892 N.ar    1  UNL1       -0.0817
     16 O          -1.5625    3.8173   18.6743 O.2     1  UNL1       -0.3563
     17 C          -5.2679    3.5947   19.8081 C.3     1  UNL1        0.0436
     18 C          -5.8772    3.9559   21.1303 C.3     1  UNL1        0.0064
     19 C          -6.1495    3.2294   18.6508 C.3     1  UNL1        0.0064
     20 C           6.6651   -2.1728   17.9001 C.3     1  UNL1        0.2526
     21 O           5.2352   -2.3438   17.4805 O.3     1  UNL1       -0.4684
     22 O           3.9339   -3.3785   19.9777 O.3     1  UNL1       -0.4760
     23 C           4.8327   -3.4129   21.1780 C.3     1  UNL1        0.1688
     24 C           4.3178   -2.9646   22.5137 C.3     1  UNL1        0.0609
     25 C           5.2166   -2.9990   23.7141 C.3     1  UNL1        0.0758
     26 N           6.6304   -3.4817   23.5788 N.3     1  UNL1       -0.2713
     27 C           7.5292   -3.5161   24.7791 C.3     1  UNL1        0.0896
     28 C           7.1453   -3.9300   22.2432 C.3     1  UNL1        0.0758
     29 C           6.2465   -3.8956   21.0428 C.3     1  UNL1        0.0609
@<TRIPOS>BOND
     1    20    21    1
     2    21     1    1
     3     1     2   ar
     4     2     3   ar
     5     3     4   ar
     6     4     7    1
     7     7     8    2
     8     7     9   am
     9     9    11    1
    10    11    12    1
    11    12    13   ar
    12    13    14   ar
    13    14    17    1
    14    17    18    1
    15    17    19    1
    16    14    15   ar
    17    15    16   ar
    18     4     5   ar
    19     5     6   ar
    20     6    22    1
    21    22    23    1
    22    23    24    1
    23    24    25    1
    24    25    26    1
    25    26    27    1
    26    26    28    1
    27    28    29    1
    28     6     1   ar
    29    29    23    1
    30    16    12   ar
    31     9    10    1
@<TRIPOS>MOLECULE
*****
 29 31 0 0 0
SMALL
GASTEIGER

@<TRIPOS>ATOM
      1 C         -10.7659   -2.7768   17.9145 C.ar    1  UNL1        0.1724
      2 C         -10.7660   -1.5093   17.1125 C.ar    1  UNL1        0.0402
      3 C         -11.8694   -0.5089   17.2909 C.ar    1  UNL1        0.0078
      4 C         -12.9727   -0.7762   18.2713 C.ar    1  UNL1        0.0566
      5 C         -12.9727   -2.0438   19.0732 C.ar    1  UNL1        0.0445
      6 C         -11.8693   -3.0441   18.8948 C.ar    1  UNL1        0.1722
      7 C         -14.0761    0.2242   18.4497 C.2     1  UNL1        0.2463
      8 O         -13.7616    1.6905   18.4793 O.2     1  UNL1       -0.2701
      9 N         -15.4941   -0.2418   18.5986 N.am    1  UNL1       -0.2943
     10 H         -15.7006   -1.2042   18.5792 H       1  UNL1        0.1501
     11 C         -16.5975    0.7585   18.7770 C.3     1  UNL1        0.1579
     12 C         -16.8636    1.3482   20.1304 C.ar    1  UNL1        0.1738
     13 C         -16.3746    2.6773   20.6247 C.ar    1  UNL1        0.0553
     14 C         -16.8743    2.8628   22.0268 C.ar    1  UNL1        0.1000
     15 N         -17.6721    1.6483   22.3991 N.ar    1  UNL1       -0.0817
     16 O         -17.6655    0.7122   21.2270 O.2     1  UNL1       -0.3563
     17 C         -16.6206    4.0537   22.9029 C.3     1  UNL1        0.0436
     18 C         -17.4288    4.2525   24.1508 C.3     1  UNL1        0.0064
     19 C         -15.5589    5.0458   22.5309 C.3     1  UNL1        0.0064
     20 C          -9.0311   -3.9650   16.3885 C.3     1  UNL1        0.2526
     21 O          -9.6625   -3.7772   17.7360 O.3     1  UNL1       -0.4684
     22 O         -11.8693   -4.3118   19.6968 O.3     1  UNL1       -0.4760
     23 C         -12.6253   -5.5103   19.2052 C.3     1  UNL1        0.1688
     24 C         -14.0367   -5.7438   19.6564 C.3     1  UNL1        0.0609
     25 C         -14.7927   -6.9424   19.1648 C.3     1  UNL1        0.0758
     26 N         -14.1374   -7.9075   18.2218 N.3     1  UNL1       -0.2713
     27 C         -14.8935   -9.1061   17.7301 C.3     1  UNL1        0.0896
     28 C         -12.7261   -7.6741   17.7705 C.3     1  UNL1        0.0758
     29 C         -11.9700   -6.4754   18.2622 C.3     1  UNL1        0.0609
@<TRIPOS>BOND
     1    20    21    1
     2    21     1    1
     3     1     2   ar
     4     2     3   ar
     5     3     4   ar
     6     4     7    1
     7     7     8    2
     8     7     9   am
     9     9    11    1
    10    11    12    1
    11    12    13   ar
    12    13    14   ar
    13    14    17    1
    14    17    18    1
    15    17    19    1
    16    14    15   ar
    17    15    16   ar
    18     4     5   ar
    19     5     6   ar
    20     6    22    1
    21    22    23    1
    22    23    24    1
    23    24    25    1
    24    25    26    1
    25    26    27    1
    26    26    28    1
    27    28    29    1
    28     6     1   ar
    29    29    23    1
    30    16    12   ar
    31     9    10    1
@<TRIPOS>MOLECULE
*****
 29 31 0 0 0
SMALL
GASTEIGER

@<TRIPOS>ATOM
      1 C           3.7051   -0.5047   18.2568 C.ar    1  UNL1        0.1724
      2 C           3.2824    0.9341   18.2251 C.ar    1  UNL1        0.0402
      3 C           2.3396    1.4619   19.2655 C.ar    1  UNL1        0.0078
      4 C           1.8195    0.5509   20.3377 C.ar    1  UNL1        0.0566
      5 C           2.2422   -0.8879   20.3693 C.ar    1  UNL1        0.0445
      6 C           3.1849   -1.4157   19.3289 C.ar    1  UNL1        0.1722
      7 C           0.8767    1.0788   21.3781 C.2     1  UNL1        0.2463
      8 O          -0.5152    1.4836   20.9927 O.2     1  UNL1       -0.2701
      9 N           1.3258    1.2018   22.8040 N.am    1  UNL1       -0.2943
     10 H           2.2394    0.9361   23.0569 H       1  UNL1        0.1501
     11 C           0.3831    1.7296   23.8444 C.3     1  UNL1        0.1579
     12 C           0.6261    1.4355   25.2951 C.ar    1  UNL1        0.1738
     13 C          -0.4202    1.3640   26.3676 C.ar    1  UNL1        0.0553
     14 C           0.2651    1.0456   27.6633 C.ar    1  UNL1        0.1000
     15 N           1.7350    0.9203   27.3916 N.ar    1  UNL1       -0.0817
     16 O           1.9581    1.1614   25.9280 O.2     1  UNL1       -0.3563
     17 C          -0.4022    0.8812   28.9966 C.3     1  UNL1        0.0436
     18 C          -1.6566    0.0668   29.1121 C.3     1  UNL1        0.0064
     19 C           0.1848    1.5313   30.2143 C.3     1  UNL1        0.0064
     20 C           6.1171   -0.7501   17.3230 C.3     1  UNL1        0.2526
     21 O           4.6478   -1.0326   17.2163 O.3     1  UNL1       -0.4684
     22 O           3.6076   -2.8547   19.3606 O.3     1  UNL1       -0.4760
     23 C           4.6876   -3.2985   20.3021 C.3     1  UNL1        0.1688
     24 C           4.3929   -3.4462   21.7655 C.3     1  UNL1        0.0609
     25 C           5.4729   -3.8901   22.7070 C.3     1  UNL1        0.0758
     26 N           6.8477   -4.1862   22.1853 N.3     1  UNL1       -0.2713
     27 C           7.9277   -4.6301   23.1268 C.3     1  UNL1        0.0896
     28 C           7.1425   -4.0385   20.7220 C.3     1  UNL1        0.0758
     29 C           6.0624   -3.5947   19.7804 C.3     1  UNL1        0.0609
@<TRIPOS>BOND
     1    20    21    1
     2    21     1    1
     3     1     2   ar
     4     2     3   ar
     5     3     4   ar
     6     4     7    1
     7     7     8    2
     8     7     9   am
     9     9    11    1
    10    11    12    1
    11    12    13   ar
    12    13    14   ar
    13    14    17    1
    14    17    18    1
    15    17    19    1
    16    14    15   ar
    17    15    16   ar
    18     4     5   ar
    19     5     6   ar
    20     6    22    1
    21    22    23    1
    22    23    24    1
    23    24    25    1
    24    25    26    1
    25    26    27    1
    26    26    28    1
    27    28    29    1
    28     6     1   ar
    29    29    23    1
    30    16    12   ar
    31     9    10    1
@<TRIPOS>MOLECULE
*****
 29 31 0 0 0
SMALL
GASTEIGER

@<TRIPOS>ATOM
      1 C           7.0889   -4.1586   23.0050 C.ar    1  UNL1        0.1724
      2 C           8.1435   -3.7853   24.0041 C.ar    1  UNL1        0.0402
      3 C           7.8105   -2.8581   25.1352 C.ar    1  UNL1        0.0078
      4 C           6.4228   -2.3042   25.2672 C.ar    1  UNL1        0.0566
      5 C           5.3681   -2.6775   24.2680 C.ar    1  UNL1        0.0445
      6 C           5.7012   -3.6047   23.1370 C.ar    1  UNL1        0.1722
      7 C           6.0898   -1.3770   26.3983 C.2     1  UNL1        0.2463
      8 O           6.6256    0.0240   26.4022 O.2     1  UNL1       -0.2701
      9 N           5.2209   -1.8507   27.5254 N.am    1  UNL1       -0.2943
     10 H           4.8691   -2.7703   27.5228 H       1  UNL1        0.1501
     11 C           4.8878   -0.9235   28.6565 C.3     1  UNL1        0.1579
     12 C           3.4549   -0.6641   29.0165 C.ar    1  UNL1        0.1738
     13 C           2.3500   -0.3363   28.0564 C.ar    1  UNL1        0.0553
     14 C           1.0876   -0.1566   28.8463 C.ar    1  UNL1        0.1000
     15 N           1.4123   -0.3732   30.2947 N.ar    1  UNL1       -0.0817
     16 O           2.8754   -0.6869   30.3999 O.2     1  UNL1       -0.3563
     17 C          -0.2624    0.1807   28.2863 C.3     1  UNL1        0.0436
     18 C          -0.3749    1.0745   27.0869 C.3     1  UNL1        0.0064
     19 C          -1.4999   -0.3759   28.9256 C.3     1  UNL1        0.0064
     20 C           8.5088   -4.7264   20.9047 C.3     1  UNL1        0.2526
     21 O           7.4219   -5.0858   21.8739 O.3     1  UNL1       -0.4684
     22 O           4.6464   -3.9780   22.1378 O.3     1  UNL1       -0.4760
     23 C           4.4881   -3.1769   20.8796 C.3     1  UNL1        0.1688
     24 C           5.1052   -3.6596   19.6004 C.3     1  UNL1        0.0609
     25 C           4.9469   -2.8585   18.3422 C.3     1  UNL1        0.0758
     26 N           4.1715   -1.5746   18.3632 N.3     1  UNL1       -0.2713
     27 C           4.0132   -0.7735   17.1050 C.3     1  UNL1        0.0896
     28 C           3.5545   -1.0918   19.6423 C.3     1  UNL1        0.0758
     29 C           3.7128   -1.8930   20.9005 C.3     1  UNL1        0.0609
@<TRIPOS>BOND
     1    20    21    1
     2    21     1    1
     3     1     2   ar
     4     2     3   ar
     5     3     4   ar
     6     4     7    1
     7     7     8    2
     8     7     9   am
     9     9    11    1
    10    11    12    1
    11    12    13   ar
    12    13    14   ar
    13    14    17    1
    14    17    18    1
    15    17    19    1
    16    14    15   ar
    17    15    16   ar
    18     4     5   ar
    19     5     6   ar
    20     6    22    1
    21    22    23    1
    22    23    24    1
    23    24    25    1
    24    25    26    1
    25    26    27    1
    26    26    28    1
    27    28    29    1
    28     6     1   ar
    29    29    23    1
    30    16    12   ar
    31     9    10    1
@<TRIPOS>MOLECULE
*****
 29 31 0 0 0
SMALL
GASTEIGER

@<TRIPOS>ATOM
      1 C           3.8030   -3.0155   20.6897 C.ar    1  UNL1        0.1724
      2 C           4.6225   -3.6816   21.7549 C.ar    1  UNL1        0.0402
      3 C           4.7675   -3.0379   23.1020 C.ar    1  UNL1        0.0078
      4 C           4.0932   -1.7281   23.3838 C.ar    1  UNL1        0.0566
      5 C           3.2737   -1.0620   22.3186 C.ar    1  UNL1        0.0445
      6 C           3.1287   -1.7057   20.9716 C.ar    1  UNL1        0.1722
      7 C           4.2382   -1.0844   24.7309 C.2     1  UNL1        0.2463
      8 O           4.4774    0.3927   24.8345 O.2     1  UNL1       -0.2701
      9 N           4.1441   -1.9179   25.9745 N.am    1  UNL1       -0.2943
     10 H           3.9872   -2.8874   25.9065 H       1  UNL1        0.1501
     11 C           4.2892   -1.2742   27.3215 C.3     1  UNL1        0.1579
     12 C           3.0698   -0.8493   28.0849 C.ar    1  UNL1        0.1738
     13 C           1.8560   -0.1833   27.5078 C.ar    1  UNL1        0.0553
     14 C           0.8862    0.0619   28.6255 C.ar    1  UNL1        0.1000
     15 N           1.5008   -0.4525   29.8935 N.ar    1  UNL1       -0.0817
     16 O           2.8503   -1.0156   29.5594 O.2     1  UNL1       -0.3563
     17 C          -0.4614    0.7080   28.4977 C.3     1  UNL1        0.0436
     18 C          -0.6071    1.9963   27.7432 C.3     1  UNL1        0.0064
     19 C          -1.6635    0.0660   29.1245 C.3     1  UNL1        0.0064
     20 C           4.5323   -4.8188   18.9674 C.3     1  UNL1        0.2526
     21 O           3.6580   -3.6592   19.3426 O.3     1  UNL1       -0.4684
     22 O           2.3092   -1.0394   19.9063 O.3     1  UNL1       -0.4760
     23 C           1.7760    0.3452   20.1263 C.3     1  UNL1        0.1688
     24 C           0.3676    0.5394   20.6046 C.3     1  UNL1        0.0609
     25 C          -0.1656    1.9241   20.8246 C.3     1  UNL1        0.0758
     26 N           0.7097    3.1146   20.5664 N.3     1  UNL1       -0.2713
     27 C           0.1765    4.4992   20.7864 C.3     1  UNL1        0.0896
     28 C           2.1181    2.9204   20.0881 C.3     1  UNL1        0.0758
     29 C           2.6513    1.5357   19.8681 C.3     1  UNL1        0.0609
@<TRIPOS>BOND
     1    20    21    1
     2    21     1    1
     3     1     2   ar
     4     2     3   ar
     5     3     4   ar
     6     4     7    1
     7     7     8    2
     8     7     9   am
     9     9    11    1
    10    11    12    1
    11    12    13   ar
    12    13    14   ar
    13    14    17    1
    14    17    18    1
    15    17    19    1
    16    14    15   ar
    17    15    16   ar
    18     4     5   ar
    19     5     6   ar
    20     6    22    1
    21    22    23    1
    22    23    24    1
    23    24    25    1
    24    25    26    1
    25    26    27    1
    26    26    28    1
    27    28    29    1
    28     6     1   ar
    29    29    23    1
    30    16    12   ar
    31     9    10    1
@<TRIPOS>MOLECULE
*****
 29 31 0 0 0
SMALL
GASTEIGER

@<TRIPOS>ATOM
      1 C           7.5945   -7.4973   25.8956 C.ar    1  UNL1        0.1724
      2 C           8.3750   -7.6521   24.6241 C.ar    1  UNL1        0.0402
      3 C           8.4736   -6.5068   23.6605 C.ar    1  UNL1        0.0078
      4 C           7.7918   -5.2067   23.9683 C.ar    1  UNL1        0.0566
      5 C           7.0113   -5.0519   25.2398 C.ar    1  UNL1        0.0445
      6 C           6.9126   -6.1972   26.2035 C.ar    1  UNL1        0.1722
      7 C           7.8904   -4.0614   23.0047 C.2     1  UNL1        0.2463
      8 O           7.6343   -2.6606   23.4758 O.2     1  UNL1       -0.2701
      9 N           8.2453   -4.3170   21.5699 N.am    1  UNL1       -0.2943
     10 H           8.4135   -5.2364   21.2606 H       1  UNL1        0.1501
     11 C           8.3440   -3.1717   20.6062 C.3     1  UNL1        0.1579
     12 C           7.1864   -2.8435   19.7104 C.ar    1  UNL1        0.1738
     13 C           6.9801   -1.5534   18.9734 C.ar    1  UNL1        0.0553
     14 C           5.6982   -1.6602   18.2018 C.ar    1  UNL1        0.1000
     15 N           5.1124   -3.0164   18.4619 N.ar    1  UNL1       -0.0817
     16 O           6.0321   -3.7477   19.3942 O.2     1  UNL1       -0.3563
     17 C           5.1062   -0.5976   17.3242 C.3     1  UNL1        0.0436
     18 C           3.6537   -0.6540   16.9538 C.3     1  UNL1        0.0064
     19 C           5.9666    0.5215   16.8169 C.3     1  UNL1        0.0064
     20 C           8.6996   -9.0646   27.6483 C.3     1  UNL1        0.2526
     21 O           7.4958   -8.6426   26.8592 O.3     1  UNL1       -0.4684
     22 O           6.1321   -6.0423   27.4751 O.3     1  UNL1       -0.4760
     23 C           6.7239   -5.2931   28.6319 C.3     1  UNL1        0.1688
     24 C           7.4787   -6.0322   29.6969 C.3     1  UNL1        0.0609
     25 C           8.0706   -5.2830   30.8537 C.3     1  UNL1        0.0758
     26 N           7.9077   -3.7947   30.9456 N.3     1  UNL1       -0.2713
     27 C           8.4996   -3.0455   32.1025 C.3     1  UNL1        0.0896
     28 C           7.1529   -3.0556   29.8807 C.3     1  UNL1        0.0758
     29 C           6.5610   -3.8048   28.7238 C.3     1  UNL1        0.0609
@<TRIPOS>BOND
     1    20    21    1
     2    21     1    1
     3     1     2   ar
     4     2     3   ar
     5     3     4   ar
     6     4     7    1
     7     7     8    2
     8     7     9   am
     9     9    11    1
    10    11    12    1
    11    12    13   ar
    12    13    14   ar
    13    14    17    1
    14    17    18    1
    15    17    19    1
    16    14    15   ar
    17    15    16   ar
    18     4     5   ar
    19     5     6   ar
    20     6    22    1
    21    22    23    1
    22    23    24    1
    23    24    25    1
    24    25    26    1
    25    26    27    1
    26    26    28    1
    27    28    29    1
    28     6     1   ar
    29    29    23    1
    30    16    12   ar
    31     9    10    1
@<TRIPOS>MOLECULE
*****
 29 31 0 0 0
SMALL
GASTEIGER

@<TRIPOS>ATOM
      1 C           6.8455   -4.2828   23.3207 C.ar    1  UNL1        0.1724
      2 C           7.4521   -3.7764   24.5956 C.ar    1  UNL1        0.0402
      3 C           6.7146   -2.7713   25.4298 C.ar    1  UNL1        0.0078
      4 C           5.3704   -2.2726   24.9890 C.ar    1  UNL1        0.0566
      5 C           4.7637   -2.7790   23.7141 C.ar    1  UNL1        0.0445
      6 C           5.5012   -3.7841   22.8799 C.ar    1  UNL1        0.1722
      7 C           4.6328   -1.2675   25.8232 C.2     1  UNL1        0.2463
      8 O           4.8305    0.1993   25.5793 O.2     1  UNL1       -0.2701
      9 N           3.6976   -1.7291   26.9012 N.am    1  UNL1       -0.2943
     10 H           3.5679   -2.6918   27.0613 H       1  UNL1        0.1501
     11 C           2.9601   -0.7240   27.7354 C.3     1  UNL1        0.1579
     12 C           3.0962   -0.7445   29.2291 C.ar    1  UNL1        0.1738
     13 C           4.3681   -0.9559   29.9957 C.ar    1  UNL1        0.0553
     14 C           4.0423   -0.8993   31.4588 C.ar    1  UNL1        0.1000
     15 N           2.5690   -0.6529   31.5964 N.ar    1  UNL1       -0.0817
     16 O           1.9844   -0.5573   30.2184 O.2     1  UNL1       -0.3563
     17 C           5.0183   -1.0607   32.5863 C.3     1  UNL1        0.0436
     18 C           6.4926   -1.0467   32.3099 C.3     1  UNL1        0.0064
     19 C           4.5201   -1.2362   33.9902 C.3     1  UNL1        0.0064
     20 C           8.7365   -6.0470   23.0724 C.3     1  UNL1        0.2526
     21 O           7.5830   -5.2879   22.4866 O.3     1  UNL1       -0.4684
     22 O           4.8945   -4.2904   21.6050 O.3     1  UNL1       -0.4760
     23 C           4.7297   -3.3672   20.4343 C.3     1  UNL1        0.1688
     24 C           5.7119   -3.4099   19.3013 C.3     1  UNL1        0.0609
     25 C           5.5471   -2.4867   18.1307 C.3     1  UNL1        0.0758
     26 N           4.4002   -1.5208   18.0929 N.3     1  UNL1       -0.2713
     27 C           4.2354   -0.5975   16.9223 C.3     1  UNL1        0.0896
     28 C           3.4180   -1.4780   19.2258 C.3     1  UNL1        0.0758
     29 C           3.5827   -2.4013   20.3966 C.3     1  UNL1        0.0609
@<TRIPOS>BOND
     1    20    21    1
     2    21     1    1
     3     1     2   ar
     4     2     3   ar
     5     3     4   ar
     6     4     7    1
     7     7     8    2
     8     7     9   am
     9     9    11    1
    10    11    12    1
    11    12    13   ar
    12    13    14   ar
    13    14    17    1
    14    17    18    1
    15    17    19    1
    16    14    15   ar
    17    15    16   ar
    18     4     5   ar
    19     5     6   ar
    20     6    22    1
    21    22    23    1
    22    23    24    1
    23    24    25    1
    24    25    26    1
    25    26    27    1
    26    26    28    1
    27    28    29    1
    28     6     1   ar
    29    29    23    1
    30    16    12   ar
    31     9    10    1
@<TRIPOS>MOLECULE
*****
 29 31 0 0 0
SMALL
GASTEIGER

@<TRIPOS>ATOM
      1 C         -12.2081   -4.1708   19.2266 C.ar    1  UNL1        0.1724
      2 C         -11.8158   -2.7745   18.8439 C.ar    1  UNL1        0.0402
      3 C         -12.8360   -1.6752   18.8695 C.ar    1  UNL1        0.0078
      4 C         -14.2484   -1.9721   19.2778 C.ar    1  UNL1        0.0566
      5 C         -14.6407   -3.3683   19.6605 C.ar    1  UNL1        0.0445
      6 C         -13.6206   -4.4677   19.6349 C.ar    1  UNL1        0.1722
      7 C         -15.2686   -0.8727   19.3034 C.2     1  UNL1        0.2463
      8 O         -15.2384    0.2029   18.2585 O.2     1  UNL1       -0.2701
      9 N         -16.3190   -0.8490   20.3740 N.am    1  UNL1       -0.2943
     10 H         -16.3388   -1.5550   21.0599 H       1  UNL1        0.1501
     11 C         -17.3392    0.2503   20.3996 C.3     1  UNL1        0.1579
     12 C         -17.0114    1.5627   21.0481 C.ar    1  UNL1        0.1738
     13 C         -17.3374    1.9548   22.4588 C.ar    1  UNL1        0.0553
     14 C         -16.8276    3.3477   22.6823 C.ar    1  UNL1        0.1000
     15 N         -16.1867    3.8165   21.4096 N.ar    1  UNL1       -0.0817
     16 O         -16.3003    2.7133   20.3997 O.2     1  UNL1       -0.3563
     17 C         -16.9393    4.1338   23.9549 C.3     1  UNL1        0.0436
     18 C         -15.6996    4.5716   24.6772 C.3     1  UNL1        0.0064
     19 C         -18.2905    4.4821   24.5052 C.3     1  UNL1        0.0064
     20 C          -9.7443   -4.9480   18.9521 C.3     1  UNL1        0.2526
     21 O         -11.1879   -5.2702   19.2010 O.3     1  UNL1       -0.4684
     22 O         -14.0129   -5.8640   20.0176 O.3     1  UNL1       -0.4760
     23 C         -15.0704   -6.5866   19.2369 C.3     1  UNL1        0.1688
     24 C         -14.6842   -7.6773   18.2822 C.3     1  UNL1        0.0609
     25 C         -15.7417   -8.3998   17.5015 C.3     1  UNL1        0.0758
     26 N         -17.1854   -8.0318   17.6754 N.3     1  UNL1       -0.2713
     27 C         -18.2429   -8.7543   16.8946 C.3     1  UNL1        0.0896
     28 C         -17.5716   -6.9412   18.6300 C.3     1  UNL1        0.0758
     29 C         -16.5141   -6.2185   19.4108 C.3     1  UNL1        0.0609
@<TRIPOS>BOND
     1    20    21    1
     2    21     1    1
     3     1     2   ar
     4     2     3   ar
     5     3     4   ar
     6     4     7    1
     7     7     8    2
     8     7     9   am
     9     9    11    1
    10    11    12    1
    11    12    13   ar
    12    13    14   ar
    13    14    17    1
    14    17    18    1
    15    17    19    1
    16    14    15   ar
    17    15    16   ar
    18     4     5   ar
    19     5     6   ar
    20     6    22    1
    21    22    23    1
    22    23    24    1
    23    24    25    1
    24    25    26    1
    25    26    27    1
    26    26    28    1
    27    28    29    1
    28     6     1   ar
    29    29    23    1
    30    16    12   ar
    31     9    10    1
