@<TRIPOS>MOLECULE
*****
 34 38 0 0 0
SMALL
GASTEIGER

@<TRIPOS>ATOM
      1 C          -4.1679    4.2905   23.7765 C.ar    1  UNL1        0.1059
      2 C          -5.5291    4.1854   23.1552 C.ar    1  UNL1        0.0183
      3 C          -5.6926    4.3548   21.6738 C.ar    1  UNL1        0.0015
      4 C          -4.4947    4.6294   20.8137 C.ar    1  UNL1        0.0045
      5 C          -3.1334    4.7346   21.4349 C.ar    1  UNL1        0.0549
      6 C          -2.9701    4.5651   22.9164 C.ar    1  UNL1        0.0229
      7 C          -1.9357    5.0092   20.5748 C.2     1  UNL1        0.2496
      8 O          -1.6934    6.3916   20.0456 O.2     1  UNL1       -0.2699
      9 N          -0.9802    3.9012   20.2438 N.am    1  UNL1       -0.2661
     10 C           0.2541    4.0240   19.4003 C.3     1  UNL1        0.1236
     11 C           0.9059    2.6746   19.3334 C.ar    1  UNL1        0.0338
     12 C           2.0716    1.9165   18.7708 C.ar    1  UNL1        0.0991
     13 N           1.9605    0.4914   19.2252 N.ar    1  UNL1       -0.2271
     14 N           0.7262    0.3686   20.0687 N.ar    1  UNL1       -0.1680
     15 C           0.0744    1.7180   20.1356 C.ar    1  UNL1        0.0981
     16 C          -1.0912    2.4761   20.6982 C.3     1  UNL1        0.1414
     17 C           2.9160   -0.6165   18.8943 C.ar    1  UNL1        0.1042
     18 C           3.8135   -0.5006   17.6980 C.ar    1  UNL1        0.1181
     19 N           4.7690   -1.6085   17.3671 N.ar    1  UNL1       -0.2384
     20 C           4.8270   -2.8324   18.2323 C.ar    1  UNL1        0.1285
     21 C           3.9294   -2.9483   19.4286 C.ar    1  UNL1        0.1607
     22 F           3.9875   -4.1723   20.2938 F       1  UNL1       -0.2025
     23 C           2.9739   -1.8404   19.7595 C.ar    1  UNL1        0.0520
     24 C          -4.6581    4.7989   19.3323 C.ar    1  UNL1        0.0024
     25 C          -5.2945    6.0421   18.7853 C.ar    1  UNL1        0.0001
     26 C          -5.4580    6.2116   17.3039 C.ar    1  UNL1        0.0023
     27 C          -4.9850    5.1377   16.3694 C.ar    1  UNL1        0.0296
     28 C          -4.3486    3.8945   16.9164 C.ar    1  UNL1        0.1401
     29 F          -3.8757    2.8206   15.9820 F       1  UNL1       -0.2042
     30 C          -4.1852    3.7250   18.3978 C.ar    1  UNL1        0.0296
     31 C          -3.8410    3.9517   26.7393 C.3     1  UNL1        0.1816
     32 S          -4.0045    4.1211   25.2579 S.O2    1  UNL1        0.0105
     33 O          -2.6079    4.6605   25.1655 O.2     1  UNL1       -0.1686
     34 O          -5.4011    3.5817   25.3503 O.2     1  UNL1       -0.1686
@<TRIPOS>BOND
     1    31    32    1
     2    32    33    2
     3    32    34    2
     4    32     1    1
     5     1     2   ar
     6     2     3   ar
     7     3     4   ar
     8     4    24    1
     9    24    25   ar
    10    25    26   ar
    11    26    27   ar
    12    27    28   ar
    13    28    29    1
    14    28    30   ar
    15     4     5   ar
    16     5     7    1
    17     7     8    2
    18     7     9   am
    19     9    10    1
    20    10    11    1
    21    11    12   ar
    22    12    13   ar
    23    13    17    1
    24    17    18   ar
    25    18    19   ar
    26    19    20   ar
    27    20    21   ar
    28    21    22    1
    29    21    23   ar
    30    13    14   ar
    31    14    15   ar
    32    15    16    1
    33     5     6   ar
    34     6     1   ar
    35    30    24   ar
    36    16     9    1
    37    15    11   ar
    38    23    17   ar
@<TRIPOS>MOLECULE
*****
 34 38 0 0 0
SMALL
GASTEIGER

@<TRIPOS>ATOM
      1 C           0.5465    1.5834   21.4627 C.ar    1  UNL1        0.1059
      2 C           0.2219    0.4496   20.5359 C.ar    1  UNL1        0.0183
      3 C           1.2214   -0.6464   20.3128 C.ar    1  UNL1        0.0015
      4 C           2.5457   -0.6084   21.0165 C.ar    1  UNL1        0.0045
      5 C           2.8703    0.5255   21.9433 C.ar    1  UNL1        0.0549
      6 C           1.8707    1.6214   22.1663 C.ar    1  UNL1        0.0229
      7 C           4.1945    0.5634   22.6469 C.2     1  UNL1        0.2496
      8 O           5.4315    0.9589   21.8963 O.2     1  UNL1       -0.2699
      9 N           4.2816    0.2058   24.1010 N.am    1  UNL1       -0.2661
     10 C           5.5291    0.1981   24.9339 C.3     1  UNL1        0.1236
     11 C           5.1550   -0.2193   26.3253 C.ar    1  UNL1        0.0338
     12 C           5.6947   -0.4821   27.6999 C.ar    1  UNL1        0.0991
     13 N           4.5496   -0.8946   28.5764 N.ar    1  UNL1       -0.2271
     14 N           3.3020   -0.8869   27.7436 N.ar    1  UNL1       -0.1680
     15 C           3.6762   -0.4695   26.3522 C.ar    1  UNL1        0.0981
     16 C           3.1365   -0.2067   24.9776 C.3     1  UNL1        0.1414
     17 C           4.6367   -1.2522   30.0306 C.ar    1  UNL1        0.1042
     18 C           3.5479   -0.8318   30.9728 C.ar    1  UNL1        0.1181
     19 N           3.6350   -1.1894   32.4270 N.ar    1  UNL1       -0.2384
     20 C           4.8109   -1.9673   32.9389 C.ar    1  UNL1        0.1285
     21 C           5.8997   -2.3877   31.9966 C.ar    1  UNL1        0.1607
     22 F           7.0757   -3.1656   32.5086 F       1  UNL1       -0.2025
     23 C           5.8126   -2.0301   30.5425 C.ar    1  UNL1        0.0520
     24 C           3.5452   -1.7044   20.7933 C.ar    1  UNL1        0.0024
     25 C           3.8836   -2.6492   21.9081 C.ar    1  UNL1        0.0001
     26 C           4.8832   -3.7451   21.6850 C.ar    1  UNL1        0.0023
     27 C           5.5443   -3.8963   20.3470 C.ar    1  UNL1        0.0296
     28 C           5.2058   -2.9515   19.2323 C.ar    1  UNL1        0.1401
     29 F           5.8669   -3.1027   17.8943 F       1  UNL1       -0.2042
     30 C           4.2063   -1.8555   19.4554 C.ar    1  UNL1        0.0296
     31 C          -1.4525    3.7754   21.9090 C.3     1  UNL1        0.1816
     32 S          -0.4530    2.6794   21.6858 S.O2    1  UNL1        0.0105
     33 O           0.4049    3.2387   22.7819 O.2     1  UNL1       -0.1686
     34 O          -1.3109    2.1202   20.5898 O.2     1  UNL1       -0.1686
@<TRIPOS>BOND
     1    31    32    1
     2    32    33    2
     3    32    34    2
     4    32     1    1
     5     1     2   ar
     6     2     3   ar
     7     3     4   ar
     8     4    24    1
     9    24    25   ar
    10    25    26   ar
    11    26    27   ar
    12    27    28   ar
    13    28    29    1
    14    28    30   ar
    15     4     5   ar
    16     5     7    1
    17     7     8    2
    18     7     9   am
    19     9    10    1
    20    10    11    1
    21    11    12   ar
    22    12    13   ar
    23    13    17    1
    24    17    18   ar
    25    18    19   ar
    26    19    20   ar
    27    20    21   ar
    28    21    22    1
    29    21    23   ar
    30    13    14   ar
    31    14    15   ar
    32    15    16    1
    33     5     6   ar
    34     6     1   ar
    35    30    24   ar
    36    16     9    1
    37    15    11   ar
    38    23    17   ar
@<TRIPOS>MOLECULE
*****
 34 38 0 0 0
SMALL
GASTEIGER

@<TRIPOS>ATOM
      1 C          -4.5388    3.7717   21.6899 C.ar    1  UNL1        0.1059
      2 C          -5.0562    3.4205   23.0533 C.ar    1  UNL1        0.0183
      3 C          -4.1093    3.3227   24.2126 C.ar    1  UNL1        0.0015
      4 C          -2.6450    3.5761   24.0083 C.ar    1  UNL1        0.0045
      5 C          -2.1276    3.9273   22.6449 C.ar    1  UNL1        0.0549
      6 C          -3.0746    4.0251   21.4856 C.ar    1  UNL1        0.0229
      7 C          -0.6634    4.1807   22.4407 C.2     1  UNL1        0.2496
      8 O          -0.0660    5.4955   22.8461 O.2     1  UNL1       -0.2699
      9 N           0.2036    3.1192   21.8311 N.am    1  UNL1       -0.2661
     10 C           1.6761    3.2277   21.5668 C.3     1  UNL1        0.1236
     11 C           2.1328    1.9383   20.9510 C.ar    1  UNL1        0.0338
     12 C           3.3251    1.2085   20.4072 C.ar    1  UNL1        0.0991
     13 N           2.8717   -0.1479   19.9549 N.ar    1  UNL1       -0.2271
     14 N           1.3991   -0.2564   20.2192 N.ar    1  UNL1       -0.1680
     15 C           0.9424    1.0330   20.8349 C.ar    1  UNL1        0.0981
     16 C          -0.2498    1.7628   21.3788 C.3     1  UNL1        0.1414
     17 C           3.7386   -1.2093   19.3453 C.ar    1  UNL1        0.1042
     18 C           4.8954   -0.8229   18.4720 C.ar    1  UNL1        0.1181
     19 N           5.7623   -1.8844   17.8624 N.ar    1  UNL1       -0.2384
     20 C           5.4725   -3.3323   18.1260 C.ar    1  UNL1        0.1285
     21 C           4.3157   -3.7187   18.9993 C.ar    1  UNL1        0.1607
     22 F           4.0260   -5.1668   19.2629 F       1  UNL1       -0.2025
     23 C           3.4488   -2.6573   19.6089 C.ar    1  UNL1        0.0520
     24 C          -1.6981    3.4782   25.1675 C.ar    1  UNL1        0.0024
     25 C          -1.5267    4.6436   26.0963 C.ar    1  UNL1        0.0001
     26 C          -0.5798    4.5457   27.2556 C.ar    1  UNL1        0.0023
     27 C           0.1956    3.2825   27.4861 C.ar    1  UNL1        0.0296
     28 C           0.0242    2.1172   26.5573 C.ar    1  UNL1        0.1401
     29 F           0.7996    0.8541   26.7878 F       1  UNL1       -0.2042
     30 C          -0.9227    2.2151   25.3980 C.ar    1  UNL1        0.0296
     31 C          -6.4326    3.9674   19.3714 C.3     1  UNL1        0.1816
     32 S          -5.4857    3.8696   20.5307 S.O2    1  UNL1        0.0105
     33 O          -4.3776    3.4901   19.5935 O.2     1  UNL1       -0.1686
     34 O          -6.5938    4.2491   21.4678 O.2     1  UNL1       -0.1686
@<TRIPOS>BOND
     1    31    32    1
     2    32    33    2
     3    32    34    2
     4    32     1    1
     5     1     2   ar
     6     2     3   ar
     7     3     4   ar
     8     4    24    1
     9    24    25   ar
    10    25    26   ar
    11    26    27   ar
    12    27    28   ar
    13    28    29    1
    14    28    30   ar
    15     4     5   ar
    16     5     7    1
    17     7     8    2
    18     7     9   am
    19     9    10    1
    20    10    11    1
    21    11    12   ar
    22    12    13   ar
    23    13    17    1
    24    17    18   ar
    25    18    19   ar
    26    19    20   ar
    27    20    21   ar
    28    21    22    1
    29    21    23   ar
    30    13    14   ar
    31    14    15   ar
    32    15    16    1
    33     5     6   ar
    34     6     1   ar
    35    30    24   ar
    36    16     9    1
    37    15    11   ar
    38    23    17   ar
@<TRIPOS>MOLECULE
*****
 34 38 0 0 0
SMALL
GASTEIGER

@<TRIPOS>ATOM
      1 C           7.5672    1.7031   17.3523 C.ar    1  UNL1        0.1059
      2 C           8.3746    0.7692   18.2043 C.ar    1  UNL1        0.0183
      3 C           7.7236   -0.4302   18.8270 C.ar    1  UNL1        0.0015
      4 C           6.2651   -0.6955   18.5976 C.ar    1  UNL1        0.0045
      5 C           5.4577    0.2384   17.7456 C.ar    1  UNL1        0.0549
      6 C           6.1089    1.4378   17.1229 C.ar    1  UNL1        0.0229
      7 C           3.9994   -0.0270   17.5162 C.2     1  UNL1        0.2496
      8 O           3.5682   -0.9322   16.4005 O.2     1  UNL1       -0.2699
      9 N           2.9722    0.6127   18.4026 N.am    1  UNL1       -0.2661
     10 C           1.4858    0.4419   18.2953 C.3     1  UNL1        0.1236
     11 C           0.8460    1.2593   19.3783 C.ar    1  UNL1        0.0338
     12 C          -0.4680    1.6589   19.9813 C.ar    1  UNL1        0.0991
     13 N          -0.1891    2.5817   21.1305 N.ar    1  UNL1       -0.2271
     14 N           1.2973    2.7524   21.2377 N.ar    1  UNL1       -0.1680
     15 C           1.9370    1.9351   20.1547 C.ar    1  UNL1        0.0981
     16 C           3.2511    1.5355   19.5517 C.3     1  UNL1        0.1414
     17 C          -1.2163    3.2214   22.0168 C.ar    1  UNL1        0.1042
     18 C          -0.8541    3.6233   23.4158 C.ar    1  UNL1        0.1181
     19 N          -1.8813    4.2631   24.3022 N.ar    1  UNL1       -0.2384
     20 C          -3.2707    4.5009   23.7895 C.ar    1  UNL1        0.1285
     21 C          -3.6330    4.0989   22.3905 C.ar    1  UNL1        0.1607
     22 F          -5.0225    4.3368   21.8778 F       1  UNL1       -0.2025
     23 C          -2.6058    3.4592   21.5041 C.ar    1  UNL1        0.0520
     24 C           5.6141   -1.8949   19.2203 C.ar    1  UNL1        0.0024
     25 C           5.0835   -1.8176   20.6211 C.ar    1  UNL1        0.0001
     26 C           4.4324   -3.0169   21.2438 C.ar    1  UNL1        0.0023
     27 C           4.3120   -4.2936   20.4656 C.ar    1  UNL1        0.0296
     28 C           4.8427   -4.3709   19.0648 C.ar    1  UNL1        0.1401
     29 F           4.7223   -5.6476   18.2866 F       1  UNL1       -0.2042
     30 C           5.4937   -3.1715   18.4421 C.ar    1  UNL1        0.0296
     31 C           8.8693    4.1018   16.1070 C.3     1  UNL1        0.1816
     32 S           8.2183    2.9025   16.7296 S.O2    1  UNL1        0.0105
     33 O           6.9005    3.6191   16.7323 O.2     1  UNL1       -0.1686
     34 O           9.5360    2.1858   16.7270 O.2     1  UNL1       -0.1686
@<TRIPOS>BOND
     1    31    32    1
     2    32    33    2
     3    32    34    2
     4    32     1    1
     5     1     2   ar
     6     2     3   ar
     7     3     4   ar
     8     4    24    1
     9    24    25   ar
    10    25    26   ar
    11    26    27   ar
    12    27    28   ar
    13    28    29    1
    14    28    30   ar
    15     4     5   ar
    16     5     7    1
    17     7     8    2
    18     7     9   am
    19     9    10    1
    20    10    11    1
    21    11    12   ar
    22    12    13   ar
    23    13    17    1
    24    17    18   ar
    25    18    19   ar
    26    19    20   ar
    27    20    21   ar
    28    21    22    1
    29    21    23   ar
    30    13    14   ar
    31    14    15   ar
    32    15    16    1
    33     5     6   ar
    34     6     1   ar
    35    30    24   ar
    36    16     9    1
    37    15    11   ar
    38    23    17   ar
@<TRIPOS>MOLECULE
*****
 34 38 0 0 0
SMALL
GASTEIGER

@<TRIPOS>ATOM
      1 C           3.6761   -1.2516   20.3488 C.ar    1  UNL1        0.1059
      2 C           2.1997   -1.2422   20.0839 C.ar    1  UNL1        0.0183
      3 C           1.2980   -0.3587   20.8940 C.ar    1  UNL1        0.0015
      4 C           1.8728    0.5155   21.9690 C.ar    1  UNL1        0.0045
      5 C           3.3491    0.5061   22.2339 C.ar    1  UNL1        0.0549
      6 C           4.2508   -0.3775   21.4237 C.ar    1  UNL1        0.0229
      7 C           3.9238    1.3802   23.3088 C.2     1  UNL1        0.2496
      8 O           4.3571    2.7795   22.9859 O.2     1  UNL1       -0.2699
      9 N           4.0651    0.8551   24.7068 N.am    1  UNL1       -0.2661
     10 C           4.6190    1.6083   25.8798 C.3     1  UNL1        0.1236
     11 C           4.5735    0.7033   27.0752 C.ar    1  UNL1        0.0338
     12 C           4.8878    0.6094   28.5389 C.ar    1  UNL1        0.0991
     13 N           4.5000   -0.7611   29.0092 N.ar    1  UNL1       -0.2271
     14 N           3.9461   -1.5143   27.8362 N.ar    1  UNL1       -0.1680
     15 C           3.9916   -0.6092   26.6409 C.ar    1  UNL1        0.0981
     16 C           3.6773   -0.5154   25.1772 C.3     1  UNL1        0.1414
     17 C           4.6413   -1.2862   30.4072 C.ar    1  UNL1        0.1042
     18 C           3.6266   -0.9236   31.4507 C.ar    1  UNL1        0.1181
     19 N           3.7679   -1.4487   32.8487 N.ar    1  UNL1       -0.2384
     20 C           4.9239   -2.3364   33.2031 C.ar    1  UNL1        0.1285
     21 C           5.9386   -2.6990   32.1596 C.ar    1  UNL1        0.1607
     22 F           7.0946   -3.5868   32.5141 F       1  UNL1       -0.2025
     23 C           5.7973   -2.1739   30.7616 C.ar    1  UNL1        0.0520
     24 C           0.9710    1.3990   22.7791 C.ar    1  UNL1        0.0024
     25 C           0.4745    2.6925   22.2043 C.ar    1  UNL1        0.0001
     26 C          -0.4272    3.5761   23.0144 C.ar    1  UNL1        0.0023
     27 C          -0.8324    3.1661   24.3992 C.ar    1  UNL1        0.0296
     28 C          -0.3359    1.8726   24.9740 C.ar    1  UNL1        0.1401
     29 F          -0.7412    1.4627   26.3588 F       1  UNL1       -0.2042
     30 C           0.5658    0.9891   24.1639 C.ar    1  UNL1        0.0296
     31 C           5.4795   -3.0188   18.7286 C.3     1  UNL1        0.1816
     32 S           4.5778   -2.1352   19.5387 S.O2    1  UNL1        0.0105
     33 O           3.7951   -3.3370   19.9783 O.2     1  UNL1       -0.1686
     34 O           5.3605   -0.9334   19.0991 O.2     1  UNL1       -0.1686
@<TRIPOS>BOND
     1    31    32    1
     2    32    33    2
     3    32    34    2
     4    32     1    1
     5     1     2   ar
     6     2     3   ar
     7     3     4   ar
     8     4    24    1
     9    24    25   ar
    10    25    26   ar
    11    26    27   ar
    12    27    28   ar
    13    28    29    1
    14    28    30   ar
    15     4     5   ar
    16     5     7    1
    17     7     8    2
    18     7     9   am
    19     9    10    1
    20    10    11    1
    21    11    12   ar
    22    12    13   ar
    23    13    17    1
    24    17    18   ar
    25    18    19   ar
    26    19    20   ar
    27    20    21   ar
    28    21    22    1
    29    21    23   ar
    30    13    14   ar
    31    14    15   ar
    32    15    16    1
    33     5     6   ar
    34     6     1   ar
    35    30    24   ar
    36    16     9    1
    37    15    11   ar
    38    23    17   ar
@<TRIPOS>MOLECULE
*****
 34 38 0 0 0
SMALL
GASTEIGER

@<TRIPOS>ATOM
      1 C           0.3753    1.9057   21.6183 C.ar    1  UNL1        0.1059
      2 C          -0.1138    1.0192   20.5115 C.ar    1  UNL1        0.0183
      3 C           0.8300    0.0639   19.8431 C.ar    1  UNL1        0.0015
      4 C           2.2629   -0.0048   20.2816 C.ar    1  UNL1        0.0045
      5 C           2.7520    0.8816   21.3884 C.ar    1  UNL1        0.0549
      6 C           1.8081    1.8369   22.0567 C.ar    1  UNL1        0.0229
      7 C           4.1848    0.8128   21.8268 C.2     1  UNL1        0.2496
      8 O           5.2530    1.4717   21.0052 O.2     1  UNL1       -0.2699
      9 N           4.5495    0.0851   23.0867 N.am    1  UNL1       -0.2661
     10 C           5.9321   -0.0671   23.6483 C.3     1  UNL1        0.1236
     11 C           5.8327   -0.8645   24.9149 C.ar    1  UNL1        0.0338
     12 C           6.6257   -1.4514   26.0448 C.ar    1  UNL1        0.0991
     13 N           5.6719   -2.1547   26.9643 N.ar    1  UNL1       -0.2271
     14 N           4.2893   -2.0026   26.4027 N.ar    1  UNL1       -0.1680
     15 C           4.3887   -1.2051   25.1360 C.ar    1  UNL1        0.0981
     16 C           3.5957   -0.6183   24.0061 C.3     1  UNL1        0.1414
     17 C           6.0366   -2.8824   28.2242 C.ar    1  UNL1        0.1042
     18 C           6.3009   -4.3585   28.1880 C.ar    1  UNL1        0.1181
     19 N           6.6656   -5.0863   29.4479 N.ar    1  UNL1       -0.2384
     20 C           6.7660   -4.3379   30.7440 C.ar    1  UNL1        0.1285
     21 C           6.5017   -2.8618   30.7802 C.ar    1  UNL1        0.1607
     22 F           6.6021   -2.1135   32.0764 F       1  UNL1       -0.2025
     23 C           6.1370   -2.1341   29.5203 C.ar    1  UNL1        0.0520
     24 C           3.2066   -0.9601   19.6132 C.ar    1  UNL1        0.0024
     25 C           4.0486   -0.4994   18.4604 C.ar    1  UNL1        0.0001
     26 C           4.9923   -1.4547   17.7920 C.ar    1  UNL1        0.0023
     27 C           5.0942   -2.8707   18.2764 C.ar    1  UNL1        0.0296
     28 C           4.2522   -3.3314   19.4291 C.ar    1  UNL1        0.1401
     29 F           4.3540   -4.7474   19.9135 F       1  UNL1       -0.2042
     30 C           3.3085   -2.3761   20.0976 C.ar    1  UNL1        0.0296
     31 C          -1.5122    3.8162   22.9551 C.3     1  UNL1        0.1816
     32 S          -0.5684    2.8609   22.2867 S.O2    1  UNL1        0.0105
     33 O           0.3960    3.0174   23.4249 O.2     1  UNL1       -0.1686
     34 O          -1.5329    2.7045   21.1486 O.2     1  UNL1       -0.1686
@<TRIPOS>BOND
     1    31    32    1
     2    32    33    2
     3    32    34    2
     4    32     1    1
     5     1     2   ar
     6     2     3   ar
     7     3     4   ar
     8     4    24    1
     9    24    25   ar
    10    25    26   ar
    11    26    27   ar
    12    27    28   ar
    13    28    29    1
    14    28    30   ar
    15     4     5   ar
    16     5     7    1
    17     7     8    2
    18     7     9   am
    19     9    10    1
    20    10    11    1
    21    11    12   ar
    22    12    13   ar
    23    13    17    1
    24    17    18   ar
    25    18    19   ar
    26    19    20   ar
    27    20    21   ar
    28    21    22    1
    29    21    23   ar
    30    13    14   ar
    31    14    15   ar
    32    15    16    1
    33     5     6   ar
    34     6     1   ar
    35    30    24   ar
    36    16     9    1
    37    15    11   ar
    38    23    17   ar
@<TRIPOS>MOLECULE
*****
 34 38 0 0 0
SMALL
GASTEIGER

@<TRIPOS>ATOM
      1 C           5.4681    2.7842   17.6926 C.ar    1  UNL1        0.1059
      2 C           6.5646    1.7627   17.7567 C.ar    1  UNL1        0.0183
      3 C           6.3024    0.4184   18.3685 C.ar    1  UNL1        0.0015
      4 C           4.9437    0.0958   18.9162 C.ar    1  UNL1        0.0045
      5 C           3.8472    1.1174   18.8520 C.ar    1  UNL1        0.0549
      6 C           4.1095    2.4616   18.2402 C.ar    1  UNL1        0.0229
      7 C           2.4885    0.7947   19.3996 C.2     1  UNL1        0.2496
      8 O           1.4035    0.3172   18.4806 O.2     1  UNL1       -0.2699
      9 N           2.2149    0.9496   20.8663 N.am    1  UNL1       -0.2661
     10 C           0.9127    0.6669   21.5549 C.3     1  UNL1        0.1236
     11 C           1.0885    0.9570   23.0161 C.ar    1  UNL1        0.0338
     12 C           0.3923    0.9615   24.3447 C.ar    1  UNL1        0.0991
     13 N           1.3729    1.4263   25.3803 N.ar    1  UNL1       -0.2271
     14 N           2.6752    1.7091   24.6916 N.ar    1  UNL1       -0.1680
     15 C           2.4994    1.4190   23.2304 C.ar    1  UNL1        0.0981
     16 C           3.1955    1.4144   21.9018 C.3     1  UNL1        0.1414
     17 C           1.0993    1.5812   26.8469 C.ar    1  UNL1        0.1042
     18 C           2.0404    2.3727   27.7060 C.ar    1  UNL1        0.1181
     19 N           1.7668    2.5276   29.1726 N.ar    1  UNL1       -0.2384
     20 C           0.5521    1.8910   29.7803 C.ar    1  UNL1        0.1285
     21 C          -0.3890    1.0995   28.9212 C.ar    1  UNL1        0.1607
     22 F          -1.6037    0.4629   29.5290 F       1  UNL1       -0.2025
     23 C          -0.1154    0.9446   27.4546 C.ar    1  UNL1        0.0520
     24 C           4.6815   -1.2484   19.5280 C.ar    1  UNL1        0.0024
     25 C           5.1900   -1.5579   20.9047 C.ar    1  UNL1        0.0001
     26 C           4.9279   -2.9021   21.5165 C.ar    1  UNL1        0.0023
     27 C           4.1571   -3.9369   20.7516 C.ar    1  UNL1        0.0296
     28 C           3.6486   -3.6274   19.3748 C.ar    1  UNL1        0.1401
     29 F           2.8778   -4.6621   18.6098 F       1  UNL1       -0.2042
     30 C           3.9107   -2.2832   18.7630 C.ar    1  UNL1        0.0296
     31 C           5.9925    5.4727   16.4690 C.3     1  UNL1        0.1816
     32 S           5.7303    4.1285   17.0808 S.O2    1  UNL1        0.0105
     33 O           4.2806    4.4814   17.2349 O.2     1  UNL1       -0.1686
     34 O           7.1800    3.7756   16.9266 O.2     1  UNL1       -0.1686
@<TRIPOS>BOND
     1    31    32    1
     2    32    33    2
     3    32    34    2
     4    32     1    1
     5     1     2   ar
     6     2     3   ar
     7     3     4   ar
     8     4    24    1
     9    24    25   ar
    10    25    26   ar
    11    26    27   ar
    12    27    28   ar
    13    28    29    1
    14    28    30   ar
    15     4     5   ar
    16     5     7    1
    17     7     8    2
    18     7     9   am
    19     9    10    1
    20    10    11    1
    21    11    12   ar
    22    12    13   ar
    23    13    17    1
    24    17    18   ar
    25    18    19   ar
    26    19    20   ar
    27    20    21   ar
    28    21    22    1
    29    21    23   ar
    30    13    14   ar
    31    14    15   ar
    32    15    16    1
    33     5     6   ar
    34     6     1   ar
    35    30    24   ar
    36    16     9    1
    37    15    11   ar
    38    23    17   ar
@<TRIPOS>MOLECULE
*****
 34 38 0 0 0
SMALL
GASTEIGER

@<TRIPOS>ATOM
      1 C           4.4573   -0.6895   32.0916 C.ar    1  UNL1        0.1059
      2 C           4.4703   -1.9721   32.8692 C.ar    1  UNL1        0.0183
      3 C           5.4111   -3.0744   32.4822 C.ar    1  UNL1        0.0015
      4 C           6.3390   -2.8939   31.3174 C.ar    1  UNL1        0.0045
      5 C           6.3260   -1.6113   30.5397 C.ar    1  UNL1        0.0549
      6 C           5.3851   -0.5091   30.9269 C.ar    1  UNL1        0.0229
      7 C           7.2538   -1.4310   29.3750 C.2     1  UNL1        0.2496
      8 O           8.7123   -1.1717   29.6111 O.2     1  UNL1       -0.2699
      9 N           6.7233   -1.5101   27.9742 N.am    1  UNL1       -0.2661
     10 C           7.5260   -1.3512   26.7171 C.3     1  UNL1        0.1236
     11 C           6.5955   -1.5048   25.5505 C.ar    1  UNL1        0.0338
     12 C           6.5166   -1.5015   24.0526 C.ar    1  UNL1        0.0991
     13 N           5.0901   -1.7533   23.6631 N.ar    1  UNL1       -0.2271
     14 N           4.2874   -1.9122   24.9202 N.ar    1  UNL1       -0.1680
     15 C           5.2179   -1.7586   26.0868 C.ar    1  UNL1        0.0981
     16 C           5.2968   -1.7618   27.5847 C.3     1  UNL1        0.1414
     17 C           4.5596   -1.8323   22.2623 C.ar    1  UNL1        0.1042
     18 C           5.3904   -2.4548   21.1796 C.ar    1  UNL1        0.1181
     19 N           4.8598   -2.5338   19.7788 N.ar    1  UNL1       -0.2384
     20 C           3.4984   -1.9903   19.4607 C.ar    1  UNL1        0.1285
     21 C           2.6676   -1.3679   20.5434 C.ar    1  UNL1        0.1607
     22 F           1.3061   -0.8245   20.2252 F       1  UNL1       -0.2025
     23 C           3.1981   -1.2889   21.9442 C.ar    1  UNL1        0.0520
     24 C           7.2798   -3.9962   30.9303 C.ar    1  UNL1        0.0024
     25 C           8.5951   -4.1421   31.6365 C.ar    1  UNL1        0.0001
     26 C           9.5359   -5.2444   31.2494 C.ar    1  UNL1        0.0023
     27 C           9.1614   -6.2008   30.1562 C.ar    1  UNL1        0.0296
     28 C           7.8461   -6.0549   29.4501 C.ar    1  UNL1        0.1401
     29 F           7.4716   -7.0113   28.3569 F       1  UNL1       -0.2042
     30 C           6.9053   -4.9526   29.8372 C.ar    1  UNL1        0.0296
     31 C           2.5757    1.5151   32.8657 C.3     1  UNL1        0.1816
     32 S           3.5165    0.4128   32.4786 S.O2    1  UNL1        0.0105
     33 O           4.6161    1.0806   33.2499 O.2     1  UNL1       -0.1686
     34 O           2.4168   -0.2549   31.7073 O.2     1  UNL1       -0.1686
@<TRIPOS>BOND
     1    31    32    1
     2    32    33    2
     3    32    34    2
     4    32     1    1
     5     1     2   ar
     6     2     3   ar
     7     3     4   ar
     8     4    24    1
     9    24    25   ar
    10    25    26   ar
    11    26    27   ar
    12    27    28   ar
    13    28    29    1
    14    28    30   ar
    15     4     5   ar
    16     5     7    1
    17     7     8    2
    18     7     9   am
    19     9    10    1
    20    10    11    1
    21    11    12   ar
    22    12    13   ar
    23    13    17    1
    24    17    18   ar
    25    18    19   ar
    26    19    20   ar
    27    20    21   ar
    28    21    22    1
    29    21    23   ar
    30    13    14   ar
    31    14    15   ar
    32    15    16    1
    33     5     6   ar
    34     6     1   ar
    35    30    24   ar
    36    16     9    1
    37    15    11   ar
    38    23    17   ar
@<TRIPOS>MOLECULE
*****
 34 38 0 0 0
SMALL
GASTEIGER

@<TRIPOS>ATOM
      1 C           4.4594   -1.4183   18.7230 C.ar    1  UNL1        0.1059
      2 C           4.8631   -0.7084   17.4648 C.ar    1  UNL1        0.0183
      3 C           4.8370    0.7903   17.4079 C.ar    1  UNL1        0.0015
      4 C           4.4072    1.5791   18.6093 C.ar    1  UNL1        0.0045
      5 C           4.0036    0.8691   19.8675 C.ar    1  UNL1        0.0549
      6 C           4.0297   -0.6296   19.9243 C.ar    1  UNL1        0.0229
      7 C           3.5739    1.6579   21.0688 C.2     1  UNL1        0.2496
      8 O           4.5844    2.0631   22.1007 O.2     1  UNL1       -0.2699
      9 N           2.1337    2.0415   21.2382 N.am    1  UNL1       -0.2661
     10 C           1.5584    2.8247   22.3809 C.3     1  UNL1        0.1236
     11 C           0.0850    2.9764   22.1436 C.ar    1  UNL1        0.0338
     12 C          -1.1811    3.5542   22.7031 C.ar    1  UNL1        0.0991
     13 N          -2.2988    3.2219   21.7595 N.ar    1  UNL1       -0.2271
     14 N          -1.7235    2.4388   20.6169 N.ar    1  UNL1       -0.1680
     15 C          -0.2501    2.2870   20.8542 C.ar    1  UNL1        0.0981
     16 C           1.0160    1.7092   20.2947 C.3     1  UNL1        0.1414
     17 C          -3.7390    3.6055   21.9290 C.ar    1  UNL1        0.1042
     18 C          -4.5717    3.9427   20.7277 C.ar    1  UNL1        0.1181
     19 N          -6.0118    4.3263   20.8972 N.ar    1  UNL1       -0.2384
     20 C          -6.6194    4.3726   22.2678 C.ar    1  UNL1        0.1285
     21 C          -5.7867    4.0354   23.4691 C.ar    1  UNL1        0.1607
     22 F          -6.3944    4.0818   24.8397 F       1  UNL1       -0.2025
     23 C          -4.3465    3.6519   23.2996 C.ar    1  UNL1        0.0520
     24 C           4.3812    3.0778   18.5524 C.ar    1  UNL1        0.0024
     25 C           5.5823    3.8657   18.9840 C.ar    1  UNL1        0.0001
     26 C           5.5563    5.3644   18.9271 C.ar    1  UNL1        0.0023
     27 C           4.3290    6.0752   18.4386 C.ar    1  UNL1        0.0296
     28 C           3.1278    5.2872   18.0070 C.ar    1  UNL1        0.1401
     29 F           1.9006    5.9980   17.5185 F       1  UNL1       -0.2042
     30 C           3.1539    3.7885   18.0639 C.ar    1  UNL1        0.0296
     31 C           4.5116   -4.4157   18.8368 C.3     1  UNL1        0.1816
     32 S           4.4855   -2.9170   18.7799 S.O2    1  UNL1        0.0105
     33 O           3.3554   -2.8992   19.7660 O.2     1  UNL1       -0.1686
     34 O           5.6157   -2.9347   17.7938 O.2     1  UNL1       -0.1686
@<TRIPOS>BOND
     1    31    32    1
     2    32    33    2
     3    32    34    2
     4    32     1    1
     5     1     2   ar
     6     2     3   ar
     7     3     4   ar
     8     4    24    1
     9    24    25   ar
    10    25    26   ar
    11    26    27   ar
    12    27    28   ar
    13    28    29    1
    14    28    30   ar
    15     4     5   ar
    16     5     7    1
    17     7     8    2
    18     7     9   am
    19     9    10    1
    20    10    11    1
    21    11    12   ar
    22    12    13   ar
    23    13    17    1
    24    17    18   ar
    25    18    19   ar
    26    19    20   ar
    27    20    21   ar
    28    21    22    1
    29    21    23   ar
    30    13    14   ar
    31    14    15   ar
    32    15    16    1
    33     5     6   ar
    34     6     1   ar
    35    30    24   ar
    36    16     9    1
    37    15    11   ar
    38    23    17   ar
