@<TRIPOS>MOLECULE
*****
 33 37 0 0 0
SMALL
GASTEIGER

@<TRIPOS>ATOM
      1 C           0.3753    1.5857   26.3348 C.3     1  UNL1        0.0015
      2 C          -0.4731    1.3012   27.5385 C.3     1  UNL1        0.0017
      3 C           0.1244    1.3772   28.9123 C.3     1  UNL1        0.0196
      4 C           1.5705    1.7378   29.0823 C.3     1  UNL1        0.0719
      5 C           2.4190    2.0223   27.8784 C.3     1  UNL1        0.0196
      6 C           1.8214    1.9462   26.5047 C.3     1  UNL1        0.0017
      7 N           2.1681    1.8138   30.4559 N.am    1  UNL1       -0.3013
      8 C           2.4905    0.5545   31.2043 C.2     1  UNL1        0.2635
      9 O           2.2153   -0.7809   30.5790 O.2     1  UNL1       -0.2685
     10 H           2.3487    2.6902   30.8664 H       1  UNL1        0.1497
     11 C           3.0881    0.6305   32.5781 C.2     1  UNL1        0.1341
     12 C           3.9654   -0.4053   33.2165 C.2     1  UNL1        0.0249
     13 C           4.3328    0.0797   34.5875 C.2     1  UNL1        0.0155
     14 C           5.1754   -0.5223   35.6727 C.2     1  UNL1        0.0009
     15 C           5.3678    0.2114   36.9669 C.2     1  UNL1       -0.0041
     16 C           4.7177    1.5469   37.1758 C.2     1  UNL1       -0.0198
     17 C           3.8751    2.1488   36.0906 C.3     1  UNL1        0.0717
     18 C           3.6826    1.4152   34.7965 C.2     1  UNL1        0.0635
     19 N           2.9134    1.7556   33.5546 N.2     1  UNL1       -0.2448
     20 C          -0.2222    1.5096   24.9611 C.3     1  UNL1        0.0173
     21 C           0.5587    1.9941   23.7756 C.3     1  UNL1        0.0724
     22 C           4.5438   -2.7598   21.7095 C.ar    1  UNL1        0.0682
     23 C           3.9977   -2.8483   20.3153 C.ar    1  UNL1        0.0099
     24 C           2.8730   -1.9507   19.8920 C.ar    1  UNL1       -0.0038
     25 C           2.2944   -0.9645   20.8628 C.ar    1  UNL1       -0.0234
     26 C           2.8406   -0.8759   22.2570 C.ar    1  UNL1       -0.0094
     27 C           3.9653   -1.7736   22.6804 C.ar    1  UNL1        0.0070
     28 C           2.2620    0.1103   23.2280 C.3     1  UNL1        0.0989
     29 N           1.1373    1.0080   22.8047 N.3     1  UNL1       -0.2687
     30 C           0.5911    0.9194   21.4104 C.3     1  UNL1        0.0771
     31 C           1.1697   -0.0668   20.4395 C.3     1  UNL1        0.0434
     32 N           6.7933   -4.5551   22.5561 N.1     1  UNL1       -0.1908
     33 C           5.6686   -3.6575   22.1328 C.1     1  UNL1        0.1004
@<TRIPOS>BOND
     1    32    33    3
     2    33    22    1
     3    22    23   ar
     4    23    24   ar
     5    24    25   ar
     6    25    26   ar
     7    26    27   ar
     8    26    28    1
     9    28    29    1
    10    29    21    1
    11    21    20    1
    12     1    20    1
    13     1     2    1
    14     2     3    1
    15     3     4    1
    16     4     7    1
    17     7     8   am
    18     8     9    2
    19     8    11    1
    20    11    12    2
    21    12    13    1
    22    13    14    2
    23    14    15    1
    24    15    16    2
    25    16    17    1
    26    17    18    1
    27    18    19    2
    28     4     5    1
    29     5     6    1
    30    29    30    1
    31    30    31    1
    32    27    22   ar
    33     6     1    1
    34    31    25    1
    35    19    11    1
    36    18    13    1
    37     7    10    1
@<TRIPOS>MOLECULE
*****
 33 37 0 0 0
SMALL
GASTEIGER

@<TRIPOS>ATOM
      1 C           0.6783    1.3644   24.6933 C.3     1  UNL1        0.0015
      2 C           2.1093    1.0489   25.0138 C.3     1  UNL1        0.0017
      3 C           2.5826    1.0759   26.4370 C.3     1  UNL1        0.0196
      4 C           1.6250    1.4184   27.5395 C.3     1  UNL1        0.0719
      5 C           0.1940    1.7339   27.2189 C.3     1  UNL1        0.0196
      6 C          -0.2793    1.7069   25.7958 C.3     1  UNL1        0.0017
      7 N           2.0983    1.4454   28.9626 N.am    1  UNL1       -0.3013
      8 C           2.3956    0.1613   29.6785 C.2     1  UNL1        0.2635
      9 O           2.2196   -1.1498   28.9714 O.2     1  UNL1       -0.2685
     10 H           2.2138    2.3059   29.4267 H       1  UNL1        0.1497
     11 C           2.8689    0.1882   31.1017 C.2     1  UNL1        0.1341
     12 C           2.7557    1.3475   32.0468 C.2     1  UNL1        0.0249
     13 C           3.3553    0.9363   33.3587 C.2     1  UNL1        0.0155
     14 C           3.5233    1.6664   34.6583 C.2     1  UNL1        0.0009
     15 C           4.1752    0.9829   35.8237 C.2     1  UNL1       -0.0041
     16 C           4.6590   -0.4305   35.6894 C.2     1  UNL1       -0.0198
     17 C           4.4911   -1.1605   34.3899 C.3     1  UNL1        0.0717
     18 C           3.8392   -0.4772   33.2245 C.2     1  UNL1        0.0635
     19 N           3.5386   -0.9395   31.8296 N.2     1  UNL1       -0.2448
     20 C           0.2050    1.3374   23.2702 C.3     1  UNL1        0.0173
     21 C           0.8652    2.2094   22.2435 C.3     1  UNL1        0.0724
     22 C           3.8729   -2.5348   18.8974 C.ar    1  UNL1        0.0682
     23 C           4.1862   -1.7152   17.6809 C.ar    1  UNL1        0.0099
     24 C           3.7727   -0.2746   17.6202 C.ar    1  UNL1       -0.0038
     25 C           3.0459    0.3464   18.7760 C.ar    1  UNL1       -0.0234
     26 C           2.7325   -0.4732   19.9925 C.ar    1  UNL1       -0.0094
     27 C           3.1460   -1.9138   20.0532 C.ar    1  UNL1        0.0070
     28 C           2.0056    0.1478   21.1484 C.3     1  UNL1        0.0989
     29 N           1.5921    1.5884   21.0877 N.3     1  UNL1       -0.2687
     30 C           1.9055    2.4080   19.8711 C.3     1  UNL1        0.0771
     31 C           2.6323    1.7870   18.7153 C.3     1  UNL1        0.0434
     32 N           4.6999   -5.4160   19.0189 N.1     1  UNL1       -0.1908
     33 C           4.2864   -3.9754   18.9581 C.1     1  UNL1        0.1004
@<TRIPOS>BOND
     1    32    33    3
     2    33    22    1
     3    22    23   ar
     4    23    24   ar
     5    24    25   ar
     6    25    26   ar
     7    26    27   ar
     8    26    28    1
     9    28    29    1
    10    29    21    1
    11    21    20    1
    12     1    20    1
    13     1     2    1
    14     2     3    1
    15     3     4    1
    16     4     7    1
    17     7     8   am
    18     8     9    2
    19     8    11    1
    20    11    12    2
    21    12    13    1
    22    13    14    2
    23    14    15    1
    24    15    16    2
    25    16    17    1
    26    17    18    1
    27    18    19    2
    28     4     5    1
    29     5     6    1
    30    29    30    1
    31    30    31    1
    32    27    22   ar
    33     6     1    1
    34    31    25    1
    35    19    11    1
    36    18    13    1
    37     7    10    1
@<TRIPOS>MOLECULE
*****
 33 37 0 0 0
SMALL
GASTEIGER

@<TRIPOS>ATOM
      1 C         -16.9565    1.4917   19.3102 C.3     1  UNL1        0.0015
      2 C         -15.6594    1.6173   18.5676 C.3     1  UNL1        0.0017
      3 C         -14.6751    0.4854   18.5804 C.3     1  UNL1        0.0196
      4 C         -14.9881   -0.7720   19.3360 C.3     1  UNL1        0.0719
      5 C         -16.2853   -0.8976   20.0786 C.3     1  UNL1        0.0196
      6 C         -17.2695    0.2342   20.0657 C.3     1  UNL1        0.0017
      7 N         -14.0039   -1.9039   19.3489 N.am    1  UNL1       -0.3013
      8 C         -13.9816   -2.8913   18.2199 C.2     1  UNL1        0.2635
      9 O         -14.9435   -2.7468   17.0781 O.2     1  UNL1       -0.2685
     10 H         -13.3725   -1.9987   20.0983 H       1  UNL1        0.1497
     11 C         -12.9974   -4.0232   18.2328 C.2     1  UNL1        0.1341
     12 C         -11.6917   -4.0479   18.9707 C.2     1  UNL1        0.0249
     13 C         -11.0334   -5.3691   18.7039 C.2     1  UNL1        0.0155
     14 C          -9.7317   -5.9535   19.1664 C.2     1  UNL1        0.0009
     15 C          -9.3288   -7.3297   18.7261 C.2     1  UNL1       -0.0041
     16 C         -10.2277   -8.1215   17.8233 C.2     1  UNL1       -0.0198
     17 C         -11.5295   -7.5371   17.3608 C.3     1  UNL1        0.0717
     18 C         -11.9323   -6.1610   17.8011 C.2     1  UNL1        0.0635
     19 N         -13.1461   -5.3291   17.5099 N.2     1  UNL1       -0.2448
     20 C         -17.9407    2.6236   19.2973 C.3     1  UNL1        0.0173
     21 C         -17.5466    3.9664   19.8373 C.3     1  UNL1        0.0724
     22 C         -13.1419    5.2514   24.4953 C.ar    1  UNL1        0.0682
     23 C         -14.0204    4.9092   25.6619 C.ar    1  UNL1        0.0099
     24 C         -15.4285    4.4469   25.4303 C.ar    1  UNL1       -0.0038
     25 C         -15.9580    4.3268   24.0321 C.ar    1  UNL1       -0.0234
     26 C         -15.0795    4.6689   22.8655 C.ar    1  UNL1       -0.0094
     27 C         -13.6714    5.1312   23.0971 C.ar    1  UNL1        0.0070
     28 C         -15.6090    4.5488   21.4671 C.3     1  UNL1        0.0989
     29 N         -17.0170    4.0865   21.2355 N.3     1  UNL1       -0.2687
     30 C         -17.8956    3.7444   22.4022 C.3     1  UNL1        0.0771
     31 C         -17.3661    3.8645   23.8005 C.3     1  UNL1        0.0434
     32 N         -10.3257    6.1759   24.9586 N.1     1  UNL1       -0.1908
     33 C         -11.7338    5.7136   24.7269 C.1     1  UNL1        0.1004
@<TRIPOS>BOND
     1    32    33    3
     2    33    22    1
     3    22    23   ar
     4    23    24   ar
     5    24    25   ar
     6    25    26   ar
     7    26    27   ar
     8    26    28    1
     9    28    29    1
    10    29    21    1
    11    21    20    1
    12     1    20    1
    13     1     2    1
    14     2     3    1
    15     3     4    1
    16     4     7    1
    17     7     8   am
    18     8     9    2
    19     8    11    1
    20    11    12    2
    21    12    13    1
    22    13    14    2
    23    14    15    1
    24    15    16    2
    25    16    17    1
    26    17    18    1
    27    18    19    2
    28     4     5    1
    29     5     6    1
    30    29    30    1
    31    30    31    1
    32    27    22   ar
    33     6     1    1
    34    31    25    1
    35    19    11    1
    36    18    13    1
    37     7    10    1
@<TRIPOS>MOLECULE
*****
 33 37 0 0 0
SMALL
GASTEIGER

@<TRIPOS>ATOM
      1 C           0.7276    1.5753   25.3132 C.3     1  UNL1        0.0015
      2 C           2.1054    1.9107   25.8021 C.3     1  UNL1        0.0017
      3 C           2.3078    2.3748   27.2141 C.3     1  UNL1        0.0196
      4 C           1.1325    2.5034   28.1371 C.3     1  UNL1        0.0719
      5 C          -0.2454    2.1680   27.6482 C.3     1  UNL1        0.0196
      6 C          -0.4478    1.7039   26.2362 C.3     1  UNL1        0.0017
      7 N           1.3349    2.9675   29.5491 N.am    1  UNL1       -0.3013
      8 C           1.3502    1.9719   30.6708 C.2     1  UNL1        0.2635
      9 O           1.1631    0.5121   30.3807 O.2     1  UNL1       -0.2685
     10 H           1.4577    3.9256   29.7395 H       1  UNL1        0.1497
     11 C           1.5527    2.4359   32.0829 C.2     1  UNL1        0.1341
     12 C           1.0421    3.7176   32.6715 C.2     1  UNL1        0.0249
     13 C           1.4751    3.7736   34.1065 C.2     1  UNL1        0.0155
     14 C           1.2613    4.7990   35.1802 C.2     1  UNL1        0.0009
     15 C           1.8258    4.5772   36.5522 C.2     1  UNL1       -0.0041
     16 C           2.6040    3.3301   36.8505 C.2     1  UNL1       -0.0198
     17 C           2.8177    2.3046   35.7768 C.3     1  UNL1        0.0717
     18 C           2.2533    2.5264   34.4049 C.2     1  UNL1        0.0635
     19 N           2.3013    1.6997   33.1541 N.2     1  UNL1       -0.2448
     20 C           0.5251    1.1112   23.9013 C.3     1  UNL1        0.0173
     21 C           0.8573    2.0228   22.7572 C.3     1  UNL1        0.0724
     22 C           3.8118   -2.4719   19.0399 C.ar    1  UNL1        0.0682
     23 C           4.0476   -1.5856   17.8530 C.ar    1  UNL1        0.0099
     24 C           3.5982   -0.1548   17.8843 C.ar    1  UNL1       -0.0038
     25 C           2.9130    0.3896   19.1025 C.ar    1  UNL1       -0.0234
     26 C           2.6772   -0.4968   20.2894 C.ar    1  UNL1       -0.0094
     27 C           3.1266   -1.9275   20.2581 C.ar    1  UNL1        0.0070
     28 C           1.9919    0.0476   21.5077 C.3     1  UNL1        0.0989
     29 N           1.5425    1.4784   21.5390 N.3     1  UNL1       -0.2687
     30 C           1.7783    2.3647   20.3520 C.3     1  UNL1        0.0771
     31 C           2.4635    1.8203   19.1338 C.3     1  UNL1        0.0434
     32 N           4.7107   -5.3334   18.9772 N.1     1  UNL1       -0.1908
     33 C           4.2613   -3.9026   19.0086 C.1     1  UNL1        0.1004
@<TRIPOS>BOND
     1    32    33    3
     2    33    22    1
     3    22    23   ar
     4    23    24   ar
     5    24    25   ar
     6    25    26   ar
     7    26    27   ar
     8    26    28    1
     9    28    29    1
    10    29    21    1
    11    21    20    1
    12     1    20    1
    13     1     2    1
    14     2     3    1
    15     3     4    1
    16     4     7    1
    17     7     8   am
    18     8     9    2
    19     8    11    1
    20    11    12    2
    21    12    13    1
    22    13    14    2
    23    14    15    1
    24    15    16    2
    25    16    17    1
    26    17    18    1
    27    18    19    2
    28     4     5    1
    29     5     6    1
    30    29    30    1
    31    30    31    1
    32    27    22   ar
    33     6     1    1
    34    31    25    1
    35    19    11    1
    36    18    13    1
    37     7    10    1
@<TRIPOS>MOLECULE
*****
 33 37 0 0 0
SMALL
GASTEIGER

@<TRIPOS>ATOM
      1 C           5.5044   -3.4777   20.4527 C.3     1  UNL1        0.0015
      2 C           4.9791   -2.7837   21.6744 C.3     1  UNL1        0.0017
      3 C           3.7816   -1.8863   21.5707 C.3     1  UNL1        0.0196
      4 C           3.1094   -1.6829   20.2453 C.3     1  UNL1        0.0719
      5 C           3.6347   -2.3769   19.0236 C.3     1  UNL1        0.0196
      6 C           4.8321   -3.2743   19.1273 C.3     1  UNL1        0.0017
      7 N           1.9119   -0.7856   20.1416 N.am    1  UNL1       -0.3013
      8 C           2.0939    0.6816   19.8884 C.2     1  UNL1        0.2635
      9 O           3.4734    1.2515   19.7390 O.2     1  UNL1       -0.2685
     10 H           1.0065   -1.1596   20.2396 H       1  UNL1        0.1497
     11 C           0.8964    1.5791   19.7847 C.2     1  UNL1        0.1341
     12 C           0.6166    2.5514   18.6773 C.2     1  UNL1        0.0249
     13 C          -0.6842    3.2349   18.9783 C.2     1  UNL1        0.0155
     14 C          -1.4592    4.2871   18.2418 C.2     1  UNL1        0.0009
     15 C          -2.7583    4.7893   18.7987 C.2     1  UNL1       -0.0041
     16 C          -3.2824    4.2394   20.0921 C.2     1  UNL1       -0.0198
     17 C          -2.5075    3.1872   20.8286 C.3     1  UNL1        0.0717
     18 C          -1.2084    2.6850   20.2718 C.2     1  UNL1        0.0635
     19 N          -0.2315    1.6617   20.7701 N.2     1  UNL1       -0.2448
     20 C           6.7018   -4.3750   20.5565 C.3     1  UNL1        0.0173
     21 C           7.7554   -4.1034   21.5892 C.3     1  UNL1        0.0724
     22 C           7.6761   -6.4700   27.6837 C.ar    1  UNL1        0.0682
     23 C           8.3468   -7.7745   27.3704 C.ar    1  UNL1        0.0099
     24 C           8.7651   -8.0840   25.9635 C.ar    1  UNL1       -0.0038
     25 C           8.5127   -7.0889   24.8700 C.ar    1  UNL1       -0.0234
     26 C           7.8420   -5.7843   25.1832 C.ar    1  UNL1       -0.0094
     27 C           7.4237   -5.4748   26.5901 C.ar    1  UNL1        0.0070
     28 C           7.5895   -4.7891   24.0896 C.3     1  UNL1        0.0989
     29 N           8.0078   -5.0986   22.6828 N.3     1  UNL1       -0.2687
     30 C           8.6785   -6.4032   22.3695 C.3     1  UNL1        0.0771
     31 C           8.9309   -7.3983   23.4631 C.3     1  UNL1        0.0434
     32 N           6.8396   -5.8510   30.4974 N.1     1  UNL1       -0.1908
     33 C           7.2579   -6.1605   29.0906 C.1     1  UNL1        0.1004
@<TRIPOS>BOND
     1    32    33    3
     2    33    22    1
     3    22    23   ar
     4    23    24   ar
     5    24    25   ar
     6    25    26   ar
     7    26    27   ar
     8    26    28    1
     9    28    29    1
    10    29    21    1
    11    21    20    1
    12     1    20    1
    13     1     2    1
    14     2     3    1
    15     3     4    1
    16     4     7    1
    17     7     8   am
    18     8     9    2
    19     8    11    1
    20    11    12    2
    21    12    13    1
    22    13    14    2
    23    14    15    1
    24    15    16    2
    25    16    17    1
    26    17    18    1
    27    18    19    2
    28     4     5    1
    29     5     6    1
    30    29    30    1
    31    30    31    1
    32    27    22   ar
    33     6     1    1
    34    31    25    1
    35    19    11    1
    36    18    13    1
    37     7    10    1
@<TRIPOS>MOLECULE
*****
 33 37 0 0 0
SMALL
GASTEIGER

@<TRIPOS>ATOM
      1 C           3.4535   -0.7514   18.6604 C.3     1  UNL1        0.0015
      2 C           2.9927   -1.1844   20.0206 C.3     1  UNL1        0.0017
      3 C           1.7326   -0.6150   20.6021 C.3     1  UNL1        0.0196
      4 C           0.9334    0.3874   19.8234 C.3     1  UNL1        0.0719
      5 C           1.3943    0.8204   18.4631 C.3     1  UNL1        0.0196
      6 C           2.6543    0.2510   17.8817 C.3     1  UNL1        0.0017
      7 N          -0.3266    0.9568   20.4048 N.am    1  UNL1       -0.3013
      8 C          -0.3447    2.3649   20.9213 C.2     1  UNL1        0.2635
      9 O           0.8972    3.2037   20.8563 O.2     1  UNL1       -0.2685
     10 H          -1.1417    0.4063   20.4475 H       1  UNL1        0.1497
     11 C          -1.6048    2.9344   21.5028 C.2     1  UNL1        0.1341
     12 C          -1.7254    3.6489   22.8161 C.2     1  UNL1        0.0249
     13 C          -3.1606    4.0454   22.9980 C.2     1  UNL1        0.0155
     14 C          -3.8686    4.7733   24.1020 C.2     1  UNL1        0.0009
     15 C          -5.3430    5.0317   24.0050 C.2     1  UNL1       -0.0041
     16 C          -6.1094    4.5622   22.8041 C.2     1  UNL1       -0.0198
     17 C          -5.4013    3.8343   21.7001 C.3     1  UNL1        0.0717
     18 C          -3.9270    3.5759   21.7970 C.2     1  UNL1        0.0635
     19 N          -2.9654    2.8893   20.8729 N.2     1  UNL1       -0.2448
     20 C           4.7135   -1.3208   18.0790 C.3     1  UNL1        0.0173
     21 C           5.1518   -2.7064   18.4507 C.3     1  UNL1        0.0724
     22 C           7.4212   -4.4226   24.3375 C.ar    1  UNL1        0.0682
     23 C           8.8543   -4.0611   24.0815 C.ar    1  UNL1        0.0099
     24 C           9.2603   -3.5009   22.7506 C.ar    1  UNL1       -0.0038
     25 C           8.2332   -3.3023   21.6756 C.ar    1  UNL1       -0.0234
     26 C           6.8001   -3.6638   21.9316 C.ar    1  UNL1       -0.0094
     27 C           6.3941   -4.2239   23.2626 C.ar    1  UNL1        0.0070
     28 C           5.7729   -3.4651   20.8566 C.3     1  UNL1        0.0989
     29 N           6.1789   -2.9050   19.5257 N.3     1  UNL1       -0.2687
     30 C           7.6121   -2.5435   19.2697 C.3     1  UNL1        0.0771
     31 C           8.6392   -2.7422   20.3447 C.3     1  UNL1        0.0434
     32 N           6.6093   -5.5428   26.9994 N.1     1  UNL1       -0.1908
     33 C           7.0153   -4.9827   25.6685 C.1     1  UNL1        0.1004
@<TRIPOS>BOND
     1    32    33    3
     2    33    22    1
     3    22    23   ar
     4    23    24   ar
     5    24    25   ar
     6    25    26   ar
     7    26    27   ar
     8    26    28    1
     9    28    29    1
    10    29    21    1
    11    21    20    1
    12     1    20    1
    13     1     2    1
    14     2     3    1
    15     3     4    1
    16     4     7    1
    17     7     8   am
    18     8     9    2
    19     8    11    1
    20    11    12    2
    21    12    13    1
    22    13    14    2
    23    14    15    1
    24    15    16    2
    25    16    17    1
    26    17    18    1
    27    18    19    2
    28     4     5    1
    29     5     6    1
    30    29    30    1
    31    30    31    1
    32    27    22   ar
    33     6     1    1
    34    31    25    1
    35    19    11    1
    36    18    13    1
    37     7    10    1
@<TRIPOS>MOLECULE
*****
 33 37 0 0 0
SMALL
GASTEIGER

@<TRIPOS>ATOM
      1 C          -0.6033    2.2924   27.0776 C.3     1  UNL1        0.0015
      2 C          -0.9673    1.0899   27.8972 C.3     1  UNL1        0.0017
      3 C          -0.1762    0.7524   29.1261 C.3     1  UNL1        0.0196
      4 C           0.9790    1.6174   29.5355 C.3     1  UNL1        0.0719
      5 C           1.3429    2.8198   28.7158 C.3     1  UNL1        0.0196
      6 C           0.5518    3.1573   27.4870 C.3     1  UNL1        0.0017
      7 N           1.7701    1.2799   30.7643 N.am    1  UNL1       -0.3013
      8 C           1.5743    2.0717   32.0232 C.2     1  UNL1        0.2635
      9 O           0.5875    3.2010   32.0531 O.2     1  UNL1       -0.2685
     10 H           2.4178    0.5388   30.7447 H       1  UNL1        0.1497
     11 C           2.3655    1.7343   33.2521 C.2     1  UNL1        0.1341
     12 C           3.4806    0.7345   33.3360 C.2     1  UNL1        0.0249
     13 C           3.9846    0.7197   34.7487 C.2     1  UNL1        0.0155
     14 C           5.0715   -0.0678   35.4183 C.2     1  UNL1        0.0009
     15 C           5.3549    0.1353   36.8773 C.2     1  UNL1       -0.0041
     16 C           4.5514    1.1260   37.6665 C.2     1  UNL1       -0.0198
     17 C           3.4645    1.9135   36.9968 C.3     1  UNL1        0.0717
     18 C           3.1811    1.7104   35.5379 C.2     1  UNL1        0.0635
     19 N           2.1804    2.3374   34.6130 N.2     1  UNL1       -0.2448
     20 C          -1.3944    2.6298   25.8487 C.3     1  UNL1        0.0173
     21 C          -0.7629    3.4259   24.7453 C.3     1  UNL1        0.0724
     22 C           2.4304   -0.7211   20.8268 C.ar    1  UNL1        0.0682
     23 C           1.7461   -0.3172   19.5546 C.ar    1  UNL1        0.0099
     24 C           0.6968    0.7545   19.5750 C.ar    1  UNL1       -0.0038
     25 C           0.3319    1.4224   20.8675 C.ar    1  UNL1       -0.0234
     26 C           1.0162    1.0185   22.1397 C.ar    1  UNL1       -0.0094
     27 C           2.0655   -0.0532   22.1194 C.ar    1  UNL1        0.0070
     28 C           0.6513    1.6863   23.4324 C.3     1  UNL1        0.0989
     29 N          -0.3980    2.7581   23.4528 N.3     1  UNL1       -0.2687
     30 C          -1.0823    3.1620   22.1805 C.3     1  UNL1        0.0771
     31 C          -0.7174    2.4941   20.8879 C.3     1  UNL1        0.0434
     32 N           4.5290   -2.8645   20.7861 N.1     1  UNL1       -0.1908
     33 C           3.4797   -1.7928   20.8064 C.1     1  UNL1        0.1004
@<TRIPOS>BOND
     1    32    33    3
     2    33    22    1
     3    22    23   ar
     4    23    24   ar
     5    24    25   ar
     6    25    26   ar
     7    26    27   ar
     8    26    28    1
     9    28    29    1
    10    29    21    1
    11    21    20    1
    12     1    20    1
    13     1     2    1
    14     2     3    1
    15     3     4    1
    16     4     7    1
    17     7     8   am
    18     8     9    2
    19     8    11    1
    20    11    12    2
    21    12    13    1
    22    13    14    2
    23    14    15    1
    24    15    16    2
    25    16    17    1
    26    17    18    1
    27    18    19    2
    28     4     5    1
    29     5     6    1
    30    29    30    1
    31    30    31    1
    32    27    22   ar
    33     6     1    1
    34    31    25    1
    35    19    11    1
    36    18    13    1
    37     7    10    1
@<TRIPOS>MOLECULE
*****
 33 37 0 0 0
SMALL
GASTEIGER

@<TRIPOS>ATOM
      1 C           2.4865    0.5899   18.6540 C.3     1  UNL1        0.0015
      2 C           1.7659   -0.3375   19.5872 C.3     1  UNL1        0.0017
      3 C           0.6479    0.1795   20.4433 C.3     1  UNL1        0.0196
      4 C           0.2505    1.6239   20.3661 C.3     1  UNL1        0.0719
      5 C           0.9711    2.5512   19.4329 C.3     1  UNL1        0.0196
      6 C           2.0891    2.0342   18.5769 C.3     1  UNL1        0.0017
      7 N          -0.8675    2.1409   21.2221 N.am    1  UNL1       -0.3013
      8 C          -0.5649    2.7833   22.5434 C.2     1  UNL1        0.2635
      9 O           0.8556    2.9087   23.0086 O.2     1  UNL1       -0.2685
     10 H          -1.7998    2.0586   20.9168 H       1  UNL1        0.1497
     11 C          -1.6829    3.3004   23.3995 C.2     1  UNL1        0.1341
     12 C          -1.7193    3.2967   24.8990 C.2     1  UNL1        0.0249
     13 C          -3.0197    3.9059   25.3326 C.2     1  UNL1        0.0155
     14 C          -3.6042    4.1636   26.6897 C.2     1  UNL1        0.0009
     15 C          -4.9561    4.8015   26.8153 C.2     1  UNL1       -0.0041
     16 C          -5.7233    5.1817   25.5837 C.2     1  UNL1       -0.0198
     17 C          -5.1387    4.9240   24.2265 C.3     1  UNL1        0.0717
     18 C          -3.7869    4.2861   24.1010 C.2     1  UNL1        0.0635
     19 N          -2.9607    3.9119   22.9063 N.2     1  UNL1       -0.2448
     20 C           3.6044    0.0728   17.7980 C.3     1  UNL1        0.0173
     21 C           3.9500   -1.3867   17.8166 C.3     1  UNL1        0.0724
     22 C           7.1496   -3.9283   22.9208 C.ar    1  UNL1        0.0682
     23 C           8.5210   -3.8563   22.3173 C.ar    1  UNL1        0.0099
     24 C           8.7039   -3.3048   20.9344 C.ar    1  UNL1       -0.0038
     25 C           7.5154   -2.8253   20.1550 C.ar    1  UNL1       -0.0234
     26 C           6.1441   -2.8973   20.7584 C.ar    1  UNL1       -0.0094
     27 C           5.9612   -3.4487   22.1413 C.ar    1  UNL1        0.0070
     28 C           4.9555   -2.4177   19.9789 C.3     1  UNL1        0.0989
     29 N           5.1384   -1.8663   18.5960 N.3     1  UNL1       -0.2687
     30 C           6.5099   -1.7943   17.9926 C.3     1  UNL1        0.0771
     31 C           7.6983   -2.2738   18.7720 C.3     1  UNL1        0.0434
     32 N           6.7839   -5.0312   25.6866 N.1     1  UNL1       -0.1908
     33 C           6.9668   -4.4797   24.3037 C.1     1  UNL1        0.1004
@<TRIPOS>BOND
     1    32    33    3
     2    33    22    1
     3    22    23   ar
     4    23    24   ar
     5    24    25   ar
     6    25    26   ar
     7    26    27   ar
     8    26    28    1
     9    28    29    1
    10    29    21    1
    11    21    20    1
    12     1    20    1
    13     1     2    1
    14     2     3    1
    15     3     4    1
    16     4     7    1
    17     7     8   am
    18     8     9    2
    19     8    11    1
    20    11    12    2
    21    12    13    1
    22    13    14    2
    23    14    15    1
    24    15    16    2
    25    16    17    1
    26    17    18    1
    27    18    19    2
    28     4     5    1
    29     5     6    1
    30    29    30    1
    31    30    31    1
    32    27    22   ar
    33     6     1    1
    34    31    25    1
    35    19    11    1
    36    18    13    1
    37     7    10    1
@<TRIPOS>MOLECULE
*****
 33 37 0 0 0
SMALL
GASTEIGER

@<TRIPOS>ATOM
      1 C           1.2230    2.8002   28.7571 C.3     1  UNL1        0.0015
      2 C           0.3425    1.6319   28.4259 C.3     1  UNL1        0.0017
      3 C           0.5709    0.8548   27.1633 C.3     1  UNL1        0.0196
      4 C           1.6798    1.2460   26.2320 C.3     1  UNL1        0.0719
      5 C           2.5603    2.4143   26.5633 C.3     1  UNL1        0.0196
      6 C           2.3319    3.1914   27.8258 C.3     1  UNL1        0.0017
      7 N           1.9082    0.4689   24.9696 N.am    1  UNL1       -0.3013
      8 C           3.2033   -0.2584   24.7605 C.2     1  UNL1        0.2635
      9 O           4.2699   -0.2087   25.8140 O.2     1  UNL1       -0.2685
     10 H           1.2081    0.4362   24.2781 H       1  UNL1        0.1497
     11 C           3.4317   -1.0356   23.4980 C.2     1  UNL1        0.1341
     12 C           4.2694   -2.2725   23.3634 C.2     1  UNL1        0.0249
     13 C           4.2180   -2.7136   21.9306 C.2     1  UNL1        0.0155
     14 C           4.8506   -3.8688   21.2127 C.2     1  UNL1        0.0009
     15 C           4.6137   -4.0595   19.7439 C.2     1  UNL1       -0.0041
     16 C           3.7442   -3.0952   18.9930 C.2     1  UNL1       -0.0198
     17 C           3.1116   -1.9400   19.7109 C.3     1  UNL1        0.0717
     18 C           3.3485   -1.7492   21.1797 C.2     1  UNL1        0.0635
     19 N           2.8626   -0.7121   22.1484 N.2     1  UNL1       -0.2448
     20 C           0.9946    3.5773   30.0196 C.3     1  UNL1        0.0173
     21 C           0.5306    2.8732   31.2602 C.3     1  UNL1        0.0724
     22 C           5.0370   -1.4976   33.0873 C.ar    1  UNL1        0.0682
     23 C           5.2804   -0.9323   34.4551 C.ar    1  UNL1        0.0099
     24 C           4.5252    0.2811   34.9104 C.ar    1  UNL1       -0.0038
     25 C           3.5266    0.9291   33.9979 C.ar    1  UNL1       -0.0234
     26 C           3.2832    0.3637   32.6300 C.ar    1  UNL1       -0.0094
     27 C           4.0384   -0.8496   32.1747 C.ar    1  UNL1        0.0070
     28 C           2.2845    1.0118   31.7174 C.3     1  UNL1        0.0989
     29 N           1.5293    2.2251   32.1727 N.3     1  UNL1       -0.2687
     30 C           1.7727    2.7905   33.5406 C.3     1  UNL1        0.0771
     31 C           2.7713    2.1425   34.4532 C.3     1  UNL1        0.0434
     32 N           6.5475   -3.9244   32.1767 N.1     1  UNL1       -0.1908
     33 C           5.7923   -2.7110   32.6320 C.1     1  UNL1        0.1004
@<TRIPOS>BOND
     1    32    33    3
     2    33    22    1
     3    22    23   ar
     4    23    24   ar
     5    24    25   ar
     6    25    26   ar
     7    26    27   ar
     8    26    28    1
     9    28    29    1
    10    29    21    1
    11    21    20    1
    12     1    20    1
    13     1     2    1
    14     2     3    1
    15     3     4    1
    16     4     7    1
    17     7     8   am
    18     8     9    2
    19     8    11    1
    20    11    12    2
    21    12    13    1
    22    13    14    2
    23    14    15    1
    24    15    16    2
    25    16    17    1
    26    17    18    1
    27    18    19    2
    28     4     5    1
    29     5     6    1
    30    29    30    1
    31    30    31    1
    32    27    22   ar
    33     6     1    1
    34    31    25    1
    35    19    11    1
    36    18    13    1
    37     7    10    1
