@<TRIPOS>MOLECULE
*****
 31 33 0 0 0
SMALL
GASTEIGER

@<TRIPOS>ATOM
      1 C          -6.8168  -16.9438   23.0608 C.2     1  UNL1        0.2296
      2 O          -5.4170  -16.6556   23.5163 O.2     1  UNL1       -0.2745
      3 N          -7.1541  -18.2826   22.4743 N.am    1  UNL1       -0.2543
      4 C          -8.5539  -18.5707   22.0188 C.ar    1  UNL1        0.0565
      5 C          -8.8077  -19.0113   20.6077 C.ar    1  UNL1        0.0445
      6 C         -10.2075  -19.2994   20.1522 C.ar    1  UNL1        0.1415
      7 F         -10.4614  -19.7401   18.7410 F       1  UNL1       -0.2041
      8 C         -11.3536  -19.1469   21.1079 C.ar    1  UNL1        0.0328
      9 C         -11.0998  -18.7062   22.5190 C.ar    1  UNL1        0.0406
     10 C          -9.7000  -18.4181   22.9745 C.ar    1  UNL1        0.0181
     11 C         -12.2458  -18.5536   23.4747 C.ar    1  UNL1        0.1807
     12 N         -13.6051  -18.0134   23.1423 N.ar    1  UNL1       -0.1083
     13 N         -14.4332  -18.0404   24.3928 N.ar    1  UNL1       -0.0229
     14 N         -13.5856  -18.5973   25.4980 N.ar    1  UNL1       -0.0464
     15 N         -12.2338  -18.9145   24.9306 N.ar    1  UNL1       -0.2388
     16 H         -11.4723  -19.2931   25.4267 H       1  UNL1        0.1923
     17 C          -7.8794  -15.8931   23.1917 C.3     1  UNL1        0.0856
     18 C          -8.1309  -15.2422   24.5195 C.3     1  UNL1        0.0096
     19 C          -8.1730  -15.5506   27.0989 C.3     1  UNL1        0.0000
     20 C          -8.4361  -16.0850   25.7222 C.3     1  UNL1        0.0005
     21 C          -6.0916  -19.3332   22.3434 C.3     1  UNL1        0.1247
     22 C          -4.8139  -19.0219   21.6216 C.ar    1  UNL1       -0.0020
     23 C          -3.5490  -18.8016   22.3970 C.ar    1  UNL1       -0.0027
     24 C          -2.2714  -18.4904   21.6752 C.ar    1  UNL1        0.0036
     25 C          -2.2589  -18.3995   20.1780 C.ar    1  UNL1        0.0714
     26 C          -3.5238  -18.6198   19.4026 C.ar    1  UNL1        0.0036
     27 C          -4.8014  -18.9310   20.1244 C.ar    1  UNL1       -0.0027
     28 C          -0.9812  -18.0882   19.4562 C.3     1  UNL1        0.4186
     29 F           0.2963  -17.7770   18.7345 F       1  UNL1       -0.1659
     30 F          -0.2390  -18.1124   20.7595 F       1  UNL1       -0.1659
     31 F          -1.7234  -18.0641   18.1530 F       1  UNL1       -0.1659
@<TRIPOS>BOND
     1    19    20    1
     2    20    18    1
     3    18    17    1
     4    17     1    1
     5     1     2    2
     6     1     3   am
     7     3    21    1
     8    21    22    1
     9    22    23   ar
    10    23    24   ar
    11    24    25   ar
    12    25    28    1
    13    28    29    1
    14    28    30    1
    15    28    31    1
    16    25    26   ar
    17    26    27   ar
    18     3     4    1
    19     4     5   ar
    20     5     6   ar
    21     6     7    1
    22     6     8   ar
    23     8     9   ar
    24     9    11    1
    25    11    12   ar
    26    12    13   ar
    27    13    14   ar
    28    14    15   ar
    29     9    10   ar
    30    27    22   ar
    31    10     4   ar
    32    15    11   ar
    33    15    16    1
@<TRIPOS>MOLECULE
*****
 31 33 0 0 0
SMALL
GASTEIGER

@<TRIPOS>ATOM
      1 C          -7.6837  -19.7195   20.1371 C.2     1  UNL1        0.2296
      2 O          -6.9112  -20.7147   19.3230 O.2     1  UNL1       -0.2745
      3 N          -7.1796  -19.3020   21.4868 N.am    1  UNL1       -0.2543
      4 C          -7.9522  -18.3068   22.3010 C.ar    1  UNL1        0.0565
      5 C          -7.3127  -17.0122   22.7071 C.ar    1  UNL1        0.0445
      6 C          -8.0852  -16.0171   23.5212 C.ar    1  UNL1        0.1415
      7 F          -7.4457  -14.7224   23.9274 F       1  UNL1       -0.2041
      8 C          -9.4972  -16.3165   23.9292 C.ar    1  UNL1        0.0328
      9 C         -10.1367  -17.6112   23.5231 C.ar    1  UNL1        0.0406
     10 C          -9.3642  -18.6063   22.7090 C.ar    1  UNL1        0.0181
     11 C         -11.5488  -17.9106   23.9311 C.ar    1  UNL1        0.1807
     12 N         -12.7882  -17.4269   23.2384 N.ar    1  UNL1       -0.1083
     13 N         -13.9747  -17.9637   23.9827 N.ar    1  UNL1       -0.0229
     14 N         -13.4687  -18.7793   25.1354 N.ar    1  UNL1       -0.0464
     15 N         -11.9694  -18.7465   25.1035 N.ar    1  UNL1       -0.2388
     16 H         -11.3671  -19.1948   25.7403 H       1  UNL1        0.1923
     17 C          -8.9602  -19.1418   19.6016 C.3     1  UNL1        0.0856
     18 C         -10.2664  -19.8263   19.8761 C.3     1  UNL1        0.0096
     19 C         -11.4774  -17.5289   19.9493 C.3     1  UNL1        0.0000
     20 C         -11.4929  -19.0131   20.1664 C.3     1  UNL1        0.0005
     21 C          -5.9031  -19.8797   22.0223 C.3     1  UNL1        0.1247
     22 C          -4.5848  -19.2897   21.6172 C.ar    1  UNL1       -0.0020
     23 C          -4.0547  -19.5180   20.2328 C.ar    1  UNL1       -0.0027
     24 C          -2.7364  -18.9280   19.8278 C.ar    1  UNL1        0.0036
     25 C          -1.9484  -18.1096   20.8072 C.ar    1  UNL1        0.0714
     26 C          -2.4785  -17.8813   22.1916 C.ar    1  UNL1        0.0036
     27 C          -3.7968  -18.4713   22.5967 C.ar    1  UNL1       -0.0027
     28 C          -0.6301  -17.5196   20.4021 C.3     1  UNL1        0.4186
     29 F           0.6882  -16.9297   19.9970 F       1  UNL1       -0.1659
     30 F          -1.0217  -16.2143   21.0287 F       1  UNL1       -0.1659
     31 F          -0.2385  -18.8249   19.7754 F       1  UNL1       -0.1659
@<TRIPOS>BOND
     1    19    20    1
     2    20    18    1
     3    18    17    1
     4    17     1    1
     5     1     2    2
     6     1     3   am
     7     3    21    1
     8    21    22    1
     9    22    23   ar
    10    23    24   ar
    11    24    25   ar
    12    25    28    1
    13    28    29    1
    14    28    30    1
    15    28    31    1
    16    25    26   ar
    17    26    27   ar
    18     3     4    1
    19     4     5   ar
    20     5     6   ar
    21     6     7    1
    22     6     8   ar
    23     8     9   ar
    24     9    11    1
    25    11    12   ar
    26    12    13   ar
    27    13    14   ar
    28    14    15   ar
    29     9    10   ar
    30    27    22   ar
    31    10     4   ar
    32    15    11   ar
    33    15    16    1
@<TRIPOS>MOLECULE
*****
 31 33 0 0 0
SMALL
GASTEIGER

@<TRIPOS>ATOM
      1 C         -10.5974  -18.3155   19.9844 C.2     1  UNL1        0.2296
      2 O         -11.7442  -17.4367   19.5811 O.2     1  UNL1       -0.2745
      3 N          -9.6304  -17.8524   21.0334 N.am    1  UNL1       -0.2543
      4 C          -8.4836  -18.7312   21.4367 C.ar    1  UNL1        0.0565
      5 C          -8.6958  -19.8298   22.4357 C.ar    1  UNL1        0.0445
      6 C          -7.5490  -20.7085   22.8389 C.ar    1  UNL1        0.1415
      7 F          -7.7611  -21.8072   23.8380 F       1  UNL1       -0.2041
      8 C          -6.1901  -20.4887   22.2431 C.ar    1  UNL1        0.0328
      9 C          -5.9779  -19.3901   21.2441 C.ar    1  UNL1        0.0406
     10 C          -7.1247  -18.5114   20.8409 C.ar    1  UNL1        0.0181
     11 C          -4.6190  -19.1703   20.6484 C.ar    1  UNL1        0.1807
     12 N          -3.3192  -19.6648   21.2106 N.ar    1  UNL1       -0.1083
     13 N          -2.2181  -19.2175   20.2955 N.ar    1  UNL1       -0.0229
     14 N          -2.8373  -18.4465   19.1676 N.ar    1  UNL1       -0.0464
     15 N          -4.3211  -18.4173   19.3857 N.ar    1  UNL1       -0.2388
     16 H          -4.9832  -17.9806   18.8025 H       1  UNL1        0.1923
     17 C         -10.4176  -19.6574   19.3387 C.3     1  UNL1        0.0856
     18 C          -9.2268  -19.9152   18.4637 C.3     1  UNL1        0.0096
     19 C          -9.3414  -21.4414   16.3644 C.3     1  UNL1        0.0000
     20 C          -9.0436  -21.2591   17.8231 C.3     1  UNL1        0.0005
     21 C          -9.8102  -16.5105   21.6791 C.3     1  UNL1        0.1247
     22 C          -9.1207  -16.2035   22.9755 C.ar    1  UNL1       -0.0020
     23 C          -7.8722  -15.3721   22.9824 C.ar    1  UNL1       -0.0027
     24 C          -7.1828  -15.0652   24.2787 C.ar    1  UNL1        0.0036
     25 C          -7.7417  -15.5897   25.5680 C.ar    1  UNL1        0.0714
     26 C          -8.9902  -16.4211   25.5611 C.ar    1  UNL1        0.0036
     27 C          -9.6796  -16.7280   24.2648 C.ar    1  UNL1       -0.0027
     28 C          -7.0522  -15.2827   26.8644 C.3     1  UNL1        0.4186
     29 F          -6.3627  -14.9758   28.1606 F       1  UNL1       -0.1659
     30 F          -5.8630  -14.7667   26.1097 F       1  UNL1       -0.1659
     31 F          -8.2413  -15.7987   27.6190 F       1  UNL1       -0.1659
@<TRIPOS>BOND
     1    19    20    1
     2    20    18    1
     3    18    17    1
     4    17     1    1
     5     1     2    2
     6     1     3   am
     7     3    21    1
     8    21    22    1
     9    22    23   ar
    10    23    24   ar
    11    24    25   ar
    12    25    28    1
    13    28    29    1
    14    28    30    1
    15    28    31    1
    16    25    26   ar
    17    26    27   ar
    18     3     4    1
    19     4     5   ar
    20     5     6   ar
    21     6     7    1
    22     6     8   ar
    23     8     9   ar
    24     9    11    1
    25    11    12   ar
    26    12    13   ar
    27    13    14   ar
    28    14    15   ar
    29     9    10   ar
    30    27    22   ar
    31    10     4   ar
    32    15    11   ar
    33    15    16    1
@<TRIPOS>MOLECULE
*****
 31 33 0 0 0
SMALL
GASTEIGER

@<TRIPOS>ATOM
      1 C          -6.1747  -17.2229   23.2707 C.2     1  UNL1        0.2296
      2 O          -4.6871  -17.0714   23.3895 O.2     1  UNL1       -0.2745
      3 N          -6.7550  -18.4494   22.6313 N.am    1  UNL1       -0.2543
      4 C          -8.2426  -18.6009   22.5125 C.ar    1  UNL1        0.0565
      5 C          -8.9503  -19.6788   23.2788 C.ar    1  UNL1        0.0445
      6 C         -10.4379  -19.8302   23.1600 C.ar    1  UNL1        0.1415
      7 F         -11.1457  -20.9081   23.9264 F       1  UNL1       -0.2041
      8 C         -11.2178  -18.9037   22.2749 C.ar    1  UNL1        0.0328
      9 C         -10.5101  -17.8258   21.5086 C.ar    1  UNL1        0.0406
     10 C          -9.0225  -17.6744   21.6274 C.ar    1  UNL1        0.0181
     11 C         -11.2900  -16.8994   20.6234 C.ar    1  UNL1        0.1807
     12 N         -12.7779  -16.7099   20.6385 N.ar    1  UNL1       -0.1083
     13 N         -13.1264  -15.6931   19.5922 N.ar    1  UNL1       -0.0229
     14 N         -11.8538  -15.2542   18.9304 N.ar    1  UNL1       -0.0464
     15 N         -10.7189  -15.9997   19.5677 N.ar    1  UNL1       -0.2388
     16 H          -9.7664  -15.9137   19.3341 H       1  UNL1        0.1923
     17 C          -7.0820  -16.1479   23.7914 C.3     1  UNL1        0.0856
     18 C          -6.5526  -15.1146   24.7412 C.3     1  UNL1        0.0096
     19 C          -7.3889  -15.5830   27.1560 C.3     1  UNL1        0.0000
     20 C          -6.2659  -15.4831   26.1667 C.3     1  UNL1        0.0005
     21 C          -5.8477  -19.5245   22.1106 C.3     1  UNL1        0.1247
     22 C          -4.5769  -19.1562   21.4039 C.ar    1  UNL1       -0.0020
     23 C          -3.2643  -19.2494   22.1239 C.ar    1  UNL1       -0.0027
     24 C          -1.9935  -18.8812   21.4172 C.ar    1  UNL1        0.0036
     25 C          -2.0353  -18.4196   19.9906 C.ar    1  UNL1        0.0714
     26 C          -3.3479  -18.3263   19.2706 C.ar    1  UNL1        0.0036
     27 C          -4.6187  -18.6946   19.9773 C.ar    1  UNL1       -0.0027
     28 C          -0.7644  -18.0513   19.2839 C.3     1  UNL1        0.4186
     29 F           0.5064  -17.6830   18.5772 F       1  UNL1       -0.1659
     30 F          -0.0104  -18.1764   20.5746 F       1  UNL1       -0.1659
     31 F          -1.5184  -17.9262   17.9933 F       1  UNL1       -0.1659
@<TRIPOS>BOND
     1    19    20    1
     2    20    18    1
     3    18    17    1
     4    17     1    1
     5     1     2    2
     6     1     3   am
     7     3    21    1
     8    21    22    1
     9    22    23   ar
    10    23    24   ar
    11    24    25   ar
    12    25    28    1
    13    28    29    1
    14    28    30    1
    15    28    31    1
    16    25    26   ar
    17    26    27   ar
    18     3     4    1
    19     4     5   ar
    20     5     6   ar
    21     6     7    1
    22     6     8   ar
    23     8     9   ar
    24     9    11    1
    25    11    12   ar
    26    12    13   ar
    27    13    14   ar
    28    14    15   ar
    29     9    10   ar
    30    27    22   ar
    31    10     4   ar
    32    15    11   ar
    33    15    16    1
@<TRIPOS>MOLECULE
*****
 31 33 0 0 0
SMALL
GASTEIGER

@<TRIPOS>ATOM
      1 C          -9.3151  -19.5337   19.7838 C.2     1  UNL1        0.2296
      2 O          -8.9597  -20.2769   18.5303 O.2     1  UNL1       -0.2745
      3 N          -8.4091  -19.5999   20.9774 N.am    1  UNL1       -0.2543
      4 C          -8.7645  -18.8566   22.2310 C.ar    1  UNL1        0.0565
      5 C         -10.0765  -19.1160   22.9102 C.ar    1  UNL1        0.0445
      6 C         -10.4319  -18.3727   24.1637 C.ar    1  UNL1        0.1415
      7 F         -11.7439  -18.6321   24.8430 F       1  UNL1       -0.2041
      8 C          -9.4753  -17.3701   24.7379 C.ar    1  UNL1        0.0328
      9 C          -8.1633  -17.1108   24.0586 C.ar    1  UNL1        0.0406
     10 C          -7.8079  -17.8540   22.8052 C.ar    1  UNL1        0.0181
     11 C          -7.2067  -16.1081   24.6328 C.ar    1  UNL1        0.1807
     12 N          -5.8574  -15.7589   24.0784 N.ar    1  UNL1       -0.1083
     13 N          -5.2483  -14.7137   24.9652 N.ar    1  UNL1       -0.0229
     14 N          -6.2211  -14.4168   26.0677 N.ar    1  UNL1       -0.0464
     15 N          -7.4315  -15.2787   25.8622 N.ar    1  UNL1       -0.2388
     16 H          -8.2328  -15.2967   26.4339 H       1  UNL1        0.1923
     17 C         -10.5766  -18.7242   19.8437 C.3     1  UNL1        0.0856
     18 C         -10.5216  -17.2357   19.6667 C.3     1  UNL1        0.0096
     19 C         -12.3605  -16.6798   21.4159 C.3     1  UNL1        0.0000
     20 C         -11.0718  -16.3331   20.7309 C.3     1  UNL1        0.0005
     21 C          -7.1477  -20.4093   20.9175 C.3     1  UNL1        0.1247
     22 C          -5.8173  -19.7204   20.8415 C.ar    1  UNL1       -0.0020
     23 C          -5.3098  -19.2128   19.5245 C.ar    1  UNL1       -0.0027
     24 C          -3.9795  -18.5239   19.4485 C.ar    1  UNL1        0.0036
     25 C          -3.1568  -18.3427   20.6896 C.ar    1  UNL1        0.0714
     26 C          -3.6644  -18.8503   22.0067 C.ar    1  UNL1        0.0036
     27 C          -4.9946  -19.5392   22.0826 C.ar    1  UNL1       -0.0027
     28 C          -1.8265  -17.6538   20.6136 C.3     1  UNL1        0.4186
     29 F          -0.4962  -16.9649   20.5377 F       1  UNL1       -0.1659
     30 F          -1.3023  -18.7613   19.7485 F       1  UNL1       -0.1659
     31 F          -2.3506  -16.5462   21.4788 F       1  UNL1       -0.1659
@<TRIPOS>BOND
     1    19    20    1
     2    20    18    1
     3    18    17    1
     4    17     1    1
     5     1     2    2
     6     1     3   am
     7     3    21    1
     8    21    22    1
     9    22    23   ar
    10    23    24   ar
    11    24    25   ar
    12    25    28    1
    13    28    29    1
    14    28    30    1
    15    28    31    1
    16    25    26   ar
    17    26    27   ar
    18     3     4    1
    19     4     5   ar
    20     5     6   ar
    21     6     7    1
    22     6     8   ar
    23     8     9   ar
    24     9    11    1
    25    11    12   ar
    26    12    13   ar
    27    13    14   ar
    28    14    15   ar
    29     9    10   ar
    30    27    22   ar
    31    10     4   ar
    32    15    11   ar
    33    15    16    1
@<TRIPOS>MOLECULE
*****
 31 33 0 0 0
SMALL
GASTEIGER

@<TRIPOS>ATOM
      1 C          -6.4189  -15.6966   24.3978 C.2     1  UNL1        0.2296
      2 O          -5.5704  -14.9011   25.3451 O.2     1  UNL1       -0.2745
      3 N          -5.8539  -16.9124   23.7251 N.am    1  UNL1       -0.2543
      4 C          -6.7024  -17.7079   22.7778 C.ar    1  UNL1        0.0565
      5 C          -6.1566  -18.9555   22.1490 C.ar    1  UNL1        0.0445
      6 C          -7.0051  -19.7509   21.2018 C.ar    1  UNL1        0.1415
      7 F          -6.4593  -20.9986   20.5729 F       1  UNL1       -0.2041
      8 C          -8.3994  -19.2987   20.8833 C.ar    1  UNL1        0.0328
      9 C          -8.9452  -18.0511   21.5122 C.ar    1  UNL1        0.0406
     10 C          -8.0967  -17.2557   22.4594 C.ar    1  UNL1        0.0181
     11 C         -10.3395  -17.5989   21.1938 C.ar    1  UNL1        0.1807
     12 N         -11.6060  -18.2200   21.7038 N.ar    1  UNL1       -0.1083
     13 N         -12.7614  -17.4511   21.1347 N.ar    1  UNL1       -0.0229
     14 N         -12.2090  -16.3548   20.2728 N.ar    1  UNL1       -0.0464
     15 N         -10.7122  -16.4461   20.3093 N.ar    1  UNL1       -0.2388
     16 H         -10.0846  -15.8534   19.8359 H       1  UNL1        0.1923
     17 C          -7.8324  -15.2762   24.1232 C.3     1  UNL1        0.0856
     18 C          -8.7804  -15.0436   25.2621 C.3     1  UNL1        0.0096
     19 C          -8.8000  -17.1943   26.7194 C.3     1  UNL1        0.0000
     20 C          -8.5502  -15.7219   26.5800 C.3     1  UNL1        0.0005
     21 C          -4.4404  -17.3328   23.9997 C.3     1  UNL1        0.1247
     22 C          -3.4654  -17.4701   22.8680 C.ar    1  UNL1       -0.0020
     23 C          -2.8130  -16.2503   22.2881 C.ar    1  UNL1       -0.0027
     24 C          -1.8381  -16.3876   21.1565 C.ar    1  UNL1        0.0036
     25 C          -1.5156  -17.7447   20.6048 C.ar    1  UNL1        0.0714
     26 C          -2.1680  -18.9644   21.1847 C.ar    1  UNL1        0.0036
     27 C          -3.1430  -18.8272   22.3164 C.ar    1  UNL1       -0.0027
     28 C          -0.5406  -17.8819   19.4731 C.3     1  UNL1        0.4186
     29 F           0.4344  -18.0192   18.3415 F       1  UNL1       -0.1659
     30 F          -1.6651  -18.2412   18.5478 F       1  UNL1       -0.1659
     31 F           0.5839  -17.5226   20.3984 F       1  UNL1       -0.1659
@<TRIPOS>BOND
     1    19    20    1
     2    20    18    1
     3    18    17    1
     4    17     1    1
     5     1     2    2
     6     1     3   am
     7     3    21    1
     8    21    22    1
     9    22    23   ar
    10    23    24   ar
    11    24    25   ar
    12    25    28    1
    13    28    29    1
    14    28    30    1
    15    28    31    1
    16    25    26   ar
    17    26    27   ar
    18     3     4    1
    19     4     5   ar
    20     5     6   ar
    21     6     7    1
    22     6     8   ar
    23     8     9   ar
    24     9    11    1
    25    11    12   ar
    26    12    13   ar
    27    13    14   ar
    28    14    15   ar
    29     9    10   ar
    30    27    22   ar
    31    10     4   ar
    32    15    11   ar
    33    15    16    1
@<TRIPOS>MOLECULE
*****
 31 33 0 0 0
SMALL
GASTEIGER

@<TRIPOS>ATOM
      1 C          -5.7314  -19.8285   20.3594 C.2     1  UNL1        0.2296
      2 O          -6.3003  -21.0114   19.6334 O.2     1  UNL1       -0.2745
      3 N          -6.1820  -19.5179   21.7560 N.am    1  UNL1       -0.2543
      4 C          -5.6130  -18.3349   22.4820 C.ar    1  UNL1        0.0565
      5 C          -4.2532  -17.8157   22.1199 C.ar    1  UNL1        0.0445
      6 C          -3.6843  -16.6328   22.8458 C.ar    1  UNL1        0.1415
      7 F          -2.3244  -16.1135   22.4837 F       1  UNL1       -0.2041
      8 C          -4.4753  -15.9692   23.9339 C.ar    1  UNL1        0.0328
      9 C          -5.8351  -16.4884   24.2960 C.ar    1  UNL1        0.0406
     10 C          -6.4040  -17.6713   23.5701 C.ar    1  UNL1        0.0181
     11 C          -6.6261  -15.8247   25.3841 C.ar    1  UNL1        0.1807
     12 N          -8.1195  -15.8401   25.5234 N.ar    1  UNL1       -0.1083
     13 N          -8.4789  -15.0540   26.7493 N.ar    1  UNL1       -0.0229
     14 N          -7.2076  -14.5528   27.3678 N.ar    1  UNL1       -0.0464
     15 N          -6.0625  -15.0291   26.5240 N.ar    1  UNL1       -0.2388
     16 H          -5.1085  -14.8509   26.6894 H       1  UNL1        0.1923
     17 C          -4.7119  -18.9562   19.6888 C.3     1  UNL1        0.0856
     18 C          -3.3477  -19.4982   19.3801 C.3     1  UNL1        0.0096
     19 C          -1.1324  -18.2942   20.0069 C.3     1  UNL1        0.0000
     20 C          -2.2319  -18.5618   19.0223 C.3     1  UNL1        0.0005
     21 C          -7.2015  -20.3901   22.4266 C.3     1  UNL1        0.1247
     22 C          -8.5788  -19.8615   22.6979 C.ar    1  UNL1       -0.0020
     23 C          -9.2355  -18.9393   21.7140 C.ar    1  UNL1       -0.0027
     24 C         -10.6128  -18.4107   21.9853 C.ar    1  UNL1        0.0036
     25 C         -11.3333  -18.8043   23.2407 C.ar    1  UNL1        0.0714
     26 C         -10.6766  -19.7265   24.2247 C.ar    1  UNL1        0.0036
     27 C          -9.2994  -20.2551   23.9533 C.ar    1  UNL1       -0.0027
     28 C         -12.7107  -18.2756   23.5120 C.3     1  UNL1        0.4186
     29 F         -14.0879  -17.7470   23.7833 F       1  UNL1       -0.1659
     30 F         -12.5363  -18.5706   24.9723 F       1  UNL1       -0.1659
     31 F         -12.8851  -17.9806   22.0518 F       1  UNL1       -0.1659
@<TRIPOS>BOND
     1    19    20    1
     2    20    18    1
     3    18    17    1
     4    17     1    1
     5     1     2    2
     6     1     3   am
     7     3    21    1
     8    21    22    1
     9    22    23   ar
    10    23    24   ar
    11    24    25   ar
    12    25    28    1
    13    28    29    1
    14    28    30    1
    15    28    31    1
    16    25    26   ar
    17    26    27   ar
    18     3     4    1
    19     4     5   ar
    20     5     6   ar
    21     6     7    1
    22     6     8   ar
    23     8     9   ar
    24     9    11    1
    25    11    12   ar
    26    12    13   ar
    27    13    14   ar
    28    14    15   ar
    29     9    10   ar
    30    27    22   ar
    31    10     4   ar
    32    15    11   ar
    33    15    16    1
@<TRIPOS>MOLECULE
*****
 31 33 0 0 0
SMALL
GASTEIGER

@<TRIPOS>ATOM
      1 C          -3.0990  -18.7326   22.2097 C.2     1  UNL1        0.2296
      2 O          -2.3079  -19.8928   21.6823 O.2     1  UNL1       -0.2745
      3 N          -4.5503  -18.9059   22.5469 N.am    1  UNL1       -0.2543
      4 C          -5.3414  -17.7457   23.0744 C.ar    1  UNL1        0.0565
      5 C          -4.7219  -16.8031   24.0631 C.ar    1  UNL1        0.0445
      6 C          -5.5130  -15.6429   24.5905 C.ar    1  UNL1        0.1415
      7 F          -4.8935  -14.7003   25.5793 F       1  UNL1       -0.2041
      8 C          -6.9236  -15.4254   24.1291 C.ar    1  UNL1        0.0328
      9 C          -7.5431  -16.3680   23.1404 C.ar    1  UNL1        0.0406
     10 C          -6.7520  -17.5281   22.6130 C.ar    1  UNL1        0.0181
     11 C          -8.9537  -16.1505   22.6790 C.ar    1  UNL1        0.1807
     12 N         -10.1937  -16.4025   23.4847 N.ar    1  UNL1       -0.1083
     13 N         -11.3783  -16.0505   22.6346 N.ar    1  UNL1       -0.0229
     14 N         -10.8706  -15.5809   21.3035 N.ar    1  UNL1       -0.0464
     15 N          -9.3721  -15.6427   21.3310 N.ar    1  UNL1       -0.2388
     16 H          -8.7691  -15.3938   20.5937 H       1  UNL1        0.1923
     17 C          -2.4388  -17.3992   22.3999 C.3     1  UNL1        0.0856
     18 C          -2.0707  -16.5676   21.2070 C.3     1  UNL1        0.0096
     19 C          -1.6457  -17.8008   18.9601 C.3     1  UNL1        0.0000
     20 C          -1.1186  -17.1075   20.1814 C.3     1  UNL1        0.0005
     21 C          -5.2105  -20.2393   22.3567 C.3     1  UNL1        0.1247
     22 C          -6.1557  -20.4517   21.2115 C.ar    1  UNL1       -0.0020
     23 C          -5.8410  -21.4729   20.1588 C.ar    1  UNL1       -0.0027
     24 C          -6.7862  -21.6852   19.0136 C.ar    1  UNL1        0.0036
     25 C          -8.0460  -20.8764   18.9211 C.ar    1  UNL1        0.0714
     26 C          -8.3607  -19.8552   19.9737 C.ar    1  UNL1        0.0036
     27 C          -7.4155  -19.6428   21.1189 C.ar    1  UNL1       -0.0027
     28 C          -8.9912  -21.0888   17.7758 C.3     1  UNL1        0.4186
     29 F          -9.9364  -21.3011   16.6306 F       1  UNL1       -0.1659
     30 F          -8.2004  -22.2886   17.3456 F       1  UNL1       -0.1659
     31 F          -9.7820  -19.8890   18.2060 F       1  UNL1       -0.1659
@<TRIPOS>BOND
     1    19    20    1
     2    20    18    1
     3    18    17    1
     4    17     1    1
     5     1     2    2
     6     1     3   am
     7     3    21    1
     8    21    22    1
     9    22    23   ar
    10    23    24   ar
    11    24    25   ar
    12    25    28    1
    13    28    29    1
    14    28    30    1
    15    28    31    1
    16    25    26   ar
    17    26    27   ar
    18     3     4    1
    19     4     5   ar
    20     5     6   ar
    21     6     7    1
    22     6     8   ar
    23     8     9   ar
    24     9    11    1
    25    11    12   ar
    26    12    13   ar
    27    13    14   ar
    28    14    15   ar
    29     9    10   ar
    30    27    22   ar
    31    10     4   ar
    32    15    11   ar
    33    15    16    1
@<TRIPOS>MOLECULE
*****
 31 33 0 0 0
SMALL
GASTEIGER

@<TRIPOS>ATOM
      1 C          -2.9445  -18.7876   22.2243 C.2     1  UNL1        0.2296
      2 O          -2.1811  -19.9225   21.6085 O.2     1  UNL1       -0.2745
      3 N          -4.4403  -18.8526   22.3166 N.am    1  UNL1       -0.2543
      4 C          -5.2037  -17.7176   22.9323 C.ar    1  UNL1        0.0565
      5 C          -4.5397  -16.8261   23.9394 C.ar    1  UNL1        0.0445
      6 C          -5.3031  -15.6912   24.5551 C.ar    1  UNL1        0.1415
      7 F          -4.6391  -14.7996   25.5623 F       1  UNL1       -0.2041
      8 C          -6.7306  -15.4479   24.1638 C.ar    1  UNL1        0.0328
      9 C          -7.3946  -16.3394   23.1568 C.ar    1  UNL1        0.0406
     10 C          -6.6312  -17.4742   22.5410 C.ar    1  UNL1        0.0181
     11 C          -8.8220  -16.0960   22.7654 C.ar    1  UNL1        0.1807
     12 N          -9.3480  -16.0003   21.3639 N.ar    1  UNL1       -0.1083
     13 N         -10.8252  -15.7507   21.4392 N.ar    1  UNL1       -0.0229
     14 N         -11.2122  -15.6922   22.8872 N.ar    1  UNL1       -0.0464
     15 N          -9.9742  -15.9056   23.7069 N.ar    1  UNL1       -0.2388
     16 H          -9.9262  -15.9184   24.6901 H       1  UNL1        0.1923
     17 C          -2.2122  -17.5877   22.7477 C.3     1  UNL1        0.0856
     18 C          -1.8285  -16.4774   21.8150 C.3     1  UNL1        0.0096
     19 C          -0.1955  -17.4620   20.0503 C.3     1  UNL1        0.0000
     20 C          -1.4897  -16.7819   20.3859 C.3     1  UNL1        0.0005
     21 C          -5.1726  -20.0524   21.7931 C.3     1  UNL1        0.1247
     22 C          -6.6436  -19.9693   21.5113 C.ar    1  UNL1       -0.0020
     23 C          -7.6331  -20.2150   22.6115 C.ar    1  UNL1       -0.0027
     24 C          -9.1040  -20.1318   22.3297 C.ar    1  UNL1        0.0036
     25 C          -9.5854  -19.8030   20.9476 C.ar    1  UNL1        0.0714
     26 C          -8.5959  -19.5574   19.8474 C.ar    1  UNL1        0.0036
     27 C          -7.1250  -19.6405   20.1292 C.ar    1  UNL1       -0.0027
     28 C         -11.0564  -19.7199   20.6658 C.3     1  UNL1        0.4186
     29 F         -12.5273  -19.6368   20.3840 F       1  UNL1       -0.1659
     30 F         -10.7868  -18.7670   19.5392 F       1  UNL1       -0.1659
     31 F         -11.3260  -20.6729   21.7923 F       1  UNL1       -0.1659
@<TRIPOS>BOND
     1    19    20    1
     2    20    18    1
     3    18    17    1
     4    17     1    1
     5     1     2    2
     6     1     3   am
     7     3    21    1
     8    21    22    1
     9    22    23   ar
    10    23    24   ar
    11    24    25   ar
    12    25    28    1
    13    28    29    1
    14    28    30    1
    15    28    31    1
    16    25    26   ar
    17    26    27   ar
    18     3     4    1
    19     4     5   ar
    20     5     6   ar
    21     6     7    1
    22     6     8   ar
    23     8     9   ar
    24     9    11    1
    25    11    12   ar
    26    12    13   ar
    27    13    14   ar
    28    14    15   ar
    29     9    10   ar
    30    27    22   ar
    31    10     4   ar
    32    15    11   ar
    33    15    16    1
