@<TRIPOS>MOLECULE
*****
 37 42 0 0 0
SMALL
GASTEIGER

@<TRIPOS>ATOM
      1 N          -1.4526    3.6301   20.7384 N.ar    1  UNL1       -0.2407
      2 C          -0.6713    2.4587   20.2213 C.ar    1  UNL1        0.3369
      3 O          -0.5883    1.1035   20.8589 O.2     1  UNL1       -0.2459
      4 N           0.0127    2.8805   18.9546 N.ar    1  UNL1       -0.2755
      5 C          -0.3460    4.3125   18.6888 C.ar    1  UNL1        0.0804
      6 C           0.0350    5.2545   17.5854 C.ar    1  UNL1        0.0188
      7 C          -0.4896    6.6598   17.5844 C.ar    1  UNL1        0.0016
      8 C          -1.3952    7.1231   18.6869 C.ar    1  UNL1        0.0016
      9 C          -1.7762    6.1811   19.7902 C.ar    1  UNL1        0.0192
     10 C          -1.2516    4.7758   19.7912 C.ar    1  UNL1        0.0855
     11 C          -6.6486    4.2714   22.7942 C.ar    1  UNL1        0.1419
     12 C          -6.2319    4.3332   21.3546 C.ar    1  UNL1        0.0372
     13 C          -4.7922    4.1381   20.9815 C.ar    1  UNL1        0.0094
     14 C          -3.7693    3.8811   22.0480 C.ar    1  UNL1        0.0751
     15 C          -2.2883    3.6519   21.9838 C.ar    1  UNL1        0.1928
     16 N          -1.7896    3.4484   23.3838 N.ar    1  UNL1       -0.0587
     17 O          -2.9624    3.5518   24.3132 O.2     1  UNL1       -0.3518
     18 C          -4.1859    3.8192   23.4875 C.ar    1  UNL1        0.1814
     19 C          -5.6256    4.0144   23.8607 C.ar    1  UNL1        0.0771
     20 C          -8.4510    5.3627   24.3142 C.3     1  UNL1        0.2525
     21 O          -8.0883    4.4665   23.1674 O.3     1  UNL1       -0.4713
     22 C           0.8995    2.0211   18.1032 C.3     1  UNL1        0.1373
     23 C           2.1875    1.4903   18.6594 C.ar    1  UNL1        0.0003
     24 C           3.3007    2.4344   19.0052 C.ar    1  UNL1       -0.0024
     25 C           4.5887    1.9036   19.5614 C.ar    1  UNL1       -0.0005
     26 C           4.7636    0.4288   19.7717 C.ar    1  UNL1       -0.0005
     27 C           3.6505   -0.5153   19.4258 C.ar    1  UNL1        0.0218
     28 C           2.3625    0.0154   18.8696 C.ar    1  UNL1       -0.0029
     29 C           3.8253   -1.9901   19.6360 C.3     1  UNL1        0.2240
     30 C           3.2590   -1.7042   20.9952 C.3     1  UNL1        0.0581
     31 O           3.8818   -3.4052   20.1304 O.3     1  UNL1       -0.4285
     32 C           4.4465   -4.2576   19.0328 C.2     1  UNL1        0.4080
     33 O           4.6780   -5.7381   19.0966 O.2     1  UNL1       -0.2260
     34 N           4.7390   -3.3691   17.8600 N.am    1  UNL1       -0.2179
     35 C           4.3551   -1.9679   18.2329 C.2     1  UNL1        0.2711
     36 O           4.4792   -0.7569   17.3565 O.2     1  UNL1       -0.2705
     37 H           5.1167   -3.6555   16.9971 H       1  UNL1        0.1610
@<TRIPOS>BOND
     1    20    21    1
     2    21    11    1
     3    11    12   ar
     4    12    13   ar
     5    13    14   ar
     6    14    15   ar
     7    15     1    1
     8     1     2   ar
     9     2     3    2
    10     2     4   ar
    11     4    22    1
    12    22    23    1
    13    23    24   ar
    14    24    25   ar
    15    25    26   ar
    16    26    27   ar
    17    27    29    1
    18    29    30    1
    19    29    31    1
    20    31    32    1
    21    32    33    2
    22    32    34   am
    23    34    35   am
    24    35    36    2
    25    27    28   ar
    26     4     5   ar
    27     5     6   ar
    28     6     7   ar
    29     7     8   ar
    30     8     9   ar
    31     9    10   ar
    32    15    16   ar
    33    16    17   ar
    34    17    18   ar
    35    18    19   ar
    36    19    11   ar
    37    18    14   ar
    38    10     1   ar
    39    28    23   ar
    40    10     5   ar
    41    35    29    1
    42    34    37    1
@<TRIPOS>MOLECULE
*****
 37 42 0 0 0
SMALL
GASTEIGER

@<TRIPOS>ATOM
      1 N           1.0847    1.6875   26.8347 N.ar    1  UNL1       -0.2407
      2 C           2.1183    1.5885   25.7521 C.ar    1  UNL1        0.3369
      3 O           3.4937    1.0079   25.8967 O.2     1  UNL1       -0.2459
      4 N           1.5347    2.1721   24.4995 N.ar    1  UNL1       -0.2755
      5 C           0.1406    2.6318   24.8079 C.ar    1  UNL1        0.0804
      6 C          -0.9115    3.2843   23.9610 C.ar    1  UNL1        0.0188
      7 C          -2.2418    3.6374   24.5574 C.ar    1  UNL1        0.0016
      8 C          -2.5200    3.3379   26.0006 C.ar    1  UNL1        0.0016
      9 C          -1.4679    2.6853   26.8475 C.ar    1  UNL1        0.0192
     10 C          -0.1375    2.3323   26.2511 C.ar    1  UNL1        0.0855
     11 C           1.1019    3.2713   32.2317 C.ar    1  UNL1        0.1419
     12 C           0.8808    4.1461   31.0335 C.ar    1  UNL1        0.0372
     13 C           0.9099    3.5528   29.6561 C.ar    1  UNL1        0.0094
     14 C           1.1601    2.0848   29.4769 C.ar    1  UNL1        0.0751
     15 C           1.2452    1.2232   28.2520 C.ar    1  UNL1        0.1928
     16 N           1.5189   -0.1841   28.6932 N.ar    1  UNL1       -0.0587
     17 O           1.6030   -0.1923   30.1908 O.2     1  UNL1       -0.3518
     18 C           1.3813    1.2100   30.6751 C.ar    1  UNL1        0.1814
     19 C           1.3522    1.8033   32.0525 C.ar    1  UNL1        0.0771
     20 C           0.7630    5.3207   33.7921 C.3     1  UNL1        0.2525
     21 O           1.0728    3.8646   33.6091 O.3     1  UNL1       -0.4713
     22 C           2.2244    2.2775   23.1716 C.3     1  UNL1        0.1373
     23 C           1.9708    1.2476   22.1109 C.ar    1  UNL1        0.0003
     24 C           0.5667    0.9506   21.6745 C.ar    1  UNL1       -0.0024
     25 C           0.3130   -0.0793   20.6138 C.ar    1  UNL1       -0.0005
     26 C           1.4633   -0.8121   19.9895 C.ar    1  UNL1       -0.0005
     27 C           2.8674   -0.5150   20.4259 C.ar    1  UNL1        0.0218
     28 C           3.1211    0.5149   21.4866 C.ar    1  UNL1       -0.0029
     29 C           4.0177   -1.2477   19.8017 C.3     1  UNL1        0.2240
     30 C           3.8650   -2.1676   20.9765 C.3     1  UNL1        0.0581
     31 O           5.1362   -2.1727   19.4230 O.3     1  UNL1       -0.4285
     32 C           5.7398   -1.6713   18.1445 C.2     1  UNL1        0.4080
     33 O           6.8872   -2.2952   17.4071 O.2     1  UNL1       -0.2260
     34 N           4.9943   -0.4363   17.7331 N.am    1  UNL1       -0.2179
     35 C           3.9300   -0.1746   18.7573 C.2     1  UNL1        0.2711
     36 O           2.9501    0.9610   18.7401 O.2     1  UNL1       -0.2705
     37 H           5.1722    0.1070   16.9316 H       1  UNL1        0.1610
@<TRIPOS>BOND
     1    20    21    1
     2    21    11    1
     3    11    12   ar
     4    12    13   ar
     5    13    14   ar
     6    14    15   ar
     7    15     1    1
     8     1     2   ar
     9     2     3    2
    10     2     4   ar
    11     4    22    1
    12    22    23    1
    13    23    24   ar
    14    24    25   ar
    15    25    26   ar
    16    26    27   ar
    17    27    29    1
    18    29    30    1
    19    29    31    1
    20    31    32    1
    21    32    33    2
    22    32    34   am
    23    34    35   am
    24    35    36    2
    25    27    28   ar
    26     4     5   ar
    27     5     6   ar
    28     6     7   ar
    29     7     8   ar
    30     8     9   ar
    31     9    10   ar
    32    15    16   ar
    33    16    17   ar
    34    17    18   ar
    35    18    19   ar
    36    19    11   ar
    37    18    14   ar
    38    10     1   ar
    39    28    23   ar
    40    10     5   ar
    41    35    29    1
    42    34    37    1
@<TRIPOS>MOLECULE
*****
 37 42 0 0 0
SMALL
GASTEIGER

@<TRIPOS>ATOM
      1 N           0.9437    2.2790   23.5664 N.ar    1  UNL1       -0.2407
      2 C           1.2022    0.9708   22.8796 C.ar    1  UNL1        0.3369
      3 O           2.0313   -0.1581   23.4163 O.2     1  UNL1       -0.2459
      4 N           0.4860    0.9897   21.5617 N.ar    1  UNL1       -0.2755
      5 C          -0.2151    2.3096   21.4340 C.ar    1  UNL1        0.0804
      6 C          -1.0746    2.8889   20.3497 C.ar    1  UNL1        0.0188
      7 C          -1.6512    4.2649   20.5044 C.ar    1  UNL1        0.0016
      8 C          -1.3684    5.0618   21.7434 C.ar    1  UNL1        0.0016
      9 C          -0.5089    4.4825   22.8277 C.ar    1  UNL1        0.0192
     10 C           0.0677    3.1064   22.6730 C.ar    1  UNL1        0.0855
     11 C           0.3310    1.6998   29.1275 C.ar    1  UNL1        0.1419
     12 C          -0.4890    1.0466   28.0547 C.ar    1  UNL1        0.0372
     13 C          -0.1853    1.3149   26.6105 C.ar    1  UNL1        0.0094
     14 C           0.9385    2.2364   26.2391 C.ar    1  UNL1        0.0751
     15 C           1.4689    2.6879   24.9107 C.ar    1  UNL1        0.1928
     16 N           2.6168    3.6202   25.1624 N.ar    1  UNL1       -0.0587
     17 O           2.7957    3.7449   26.6464 O.2     1  UNL1       -0.3518
     18 C           1.7585    2.8896   27.3119 C.ar    1  UNL1        0.1814
     19 C           1.4547    2.6213   28.7561 C.ar    1  UNL1        0.0771
     20 C           0.7996    2.1400   31.6448 C.3     1  UNL1        0.2525
     21 O           0.0273    1.4315   30.5717 O.3     1  UNL1       -0.4713
     22 C           0.4733   -0.1169   20.5492 C.3     1  UNL1        0.1373
     23 C           1.7133   -0.4311   19.7659 C.ar    1  UNL1        0.0003
     24 C           2.0459    0.3632   18.5377 C.ar    1  UNL1       -0.0024
     25 C           3.2859    0.0491   17.7543 C.ar    1  UNL1       -0.0005
     26 C           4.1933   -1.0594   18.1990 C.ar    1  UNL1       -0.0005
     27 C           3.8608   -1.8537   19.4272 C.ar    1  UNL1        0.0218
     28 C           2.6208   -1.5396   20.2106 C.ar    1  UNL1       -0.0029
     29 C           4.7681   -2.9622   19.8720 C.3     1  UNL1        0.2240
     30 C           3.8392   -3.8300   19.0760 C.3     1  UNL1        0.0581
     31 O           5.4813   -4.2521   20.1504 O.3     1  UNL1       -0.4285
     32 C           6.6615   -3.9498   21.0257 C.2     1  UNL1        0.4080
     33 O           7.6515   -4.9487   21.5468 O.2     1  UNL1       -0.2260
     34 N           6.6776   -2.4729   21.2881 N.am    1  UNL1       -0.2179
     35 C           5.5075   -1.8627   20.5751 C.2     1  UNL1        0.2711
     36 O           5.1410   -0.4081   20.5667 O.2     1  UNL1       -0.2705
     37 H           7.3399   -1.9892   21.8327 H       1  UNL1        0.1610
@<TRIPOS>BOND
     1    20    21    1
     2    21    11    1
     3    11    12   ar
     4    12    13   ar
     5    13    14   ar
     6    14    15   ar
     7    15     1    1
     8     1     2   ar
     9     2     3    2
    10     2     4   ar
    11     4    22    1
    12    22    23    1
    13    23    24   ar
    14    24    25   ar
    15    25    26   ar
    16    26    27   ar
    17    27    29    1
    18    29    30    1
    19    29    31    1
    20    31    32    1
    21    32    33    2
    22    32    34   am
    23    34    35   am
    24    35    36    2
    25    27    28   ar
    26     4     5   ar
    27     5     6   ar
    28     6     7   ar
    29     7     8   ar
    30     8     9   ar
    31     9    10   ar
    32    15    16   ar
    33    16    17   ar
    34    17    18   ar
    35    18    19   ar
    36    19    11   ar
    37    18    14   ar
    38    10     1   ar
    39    28    23   ar
    40    10     5   ar
    41    35    29    1
    42    34    37    1
@<TRIPOS>MOLECULE
*****
 37 42 0 0 0
SMALL
GASTEIGER

@<TRIPOS>ATOM
      1 N           0.2203    2.8456   22.9021 N.ar    1  UNL1       -0.2407
      2 C          -0.2233    2.0818   21.6897 C.ar    1  UNL1        0.3369
      3 O          -1.3463    2.4614   20.7707 O.2     1  UNL1       -0.2459
      4 N           0.6533    0.8717   21.5579 N.ar    1  UNL1       -0.2755
      5 C           1.6387    0.8876   22.6887 C.ar    1  UNL1        0.0804
      6 C           2.7451   -0.0511   23.0692 C.ar    1  UNL1        0.0188
      7 C           3.5839    0.2302   24.2805 C.ar    1  UNL1        0.0016
      8 C           3.3163    1.4501   25.1113 C.ar    1  UNL1        0.0016
      9 C           2.2100    2.3888   24.7308 C.ar    1  UNL1        0.0192
     10 C           1.3711    2.1075   23.5194 C.ar    1  UNL1        0.0855
     11 C          -3.3946    5.1037   26.5721 C.ar    1  UNL1        0.1419
     12 C          -3.0767    3.6485   26.3950 C.ar    1  UNL1        0.0372
     13 C          -2.0794    3.2193   25.3601 C.ar    1  UNL1        0.0094
     14 C          -1.4000    4.2451   24.5022 C.ar    1  UNL1        0.0751
     15 C          -0.3811    4.1231   23.4082 C.ar    1  UNL1        0.1928
     16 N          -0.0693    5.5029   22.9091 N.ar    1  UNL1       -0.0587
     17 O          -0.8955    6.4777   23.6948 O.2     1  UNL1       -0.3518
     18 C          -1.7180    5.7003   24.6794 C.ar    1  UNL1        0.1814
     19 C          -2.7153    6.1295   25.7143 C.ar    1  UNL1        0.0771
     20 C          -5.8193    5.7785   27.2168 C.3     1  UNL1        0.2525
     21 O          -4.3920    5.5329   27.6071 O.3     1  UNL1       -0.4713
     22 C           0.5607   -0.1712   20.4837 C.3     1  UNL1        0.1373
     23 C           1.7723   -0.5209   19.6715 C.ar    1  UNL1        0.0003
     24 C           2.0717    0.2318   18.4090 C.ar    1  UNL1       -0.0024
     25 C           3.2832   -0.1179   17.5967 C.ar    1  UNL1       -0.0005
     26 C           4.1954   -1.2203   18.0468 C.ar    1  UNL1       -0.0005
     27 C           3.8960   -1.9730   19.3092 C.ar    1  UNL1        0.0218
     28 C           2.6845   -1.6233   20.1216 C.ar    1  UNL1       -0.0029
     29 C           4.8081   -3.0754   19.7594 C.3     1  UNL1        0.2240
     30 C           3.8719   -3.9536   18.9835 C.3     1  UNL1        0.0581
     31 O           5.5246   -4.3614   20.0474 O.3     1  UNL1       -0.4285
     32 C           6.7129   -4.0475   20.9072 C.2     1  UNL1        0.4080
     33 O           7.7084   -5.0394   21.4316 O.2     1  UNL1       -0.2260
     34 N           6.7309   -2.5675   21.1506 N.am    1  UNL1       -0.2179
     35 C           5.5537   -1.9667   20.4412 C.2     1  UNL1        0.2711
     36 O           5.1865   -0.5125   20.4178 O.2     1  UNL1       -0.2705
     37 H           7.3982   -2.0765   21.6826 H       1  UNL1        0.1610
@<TRIPOS>BOND
     1    20    21    1
     2    21    11    1
     3    11    12   ar
     4    12    13   ar
     5    13    14   ar
     6    14    15   ar
     7    15     1    1
     8     1     2   ar
     9     2     3    2
    10     2     4   ar
    11     4    22    1
    12    22    23    1
    13    23    24   ar
    14    24    25   ar
    15    25    26   ar
    16    26    27   ar
    17    27    29    1
    18    29    30    1
    19    29    31    1
    20    31    32    1
    21    32    33    2
    22    32    34   am
    23    34    35   am
    24    35    36    2
    25    27    28   ar
    26     4     5   ar
    27     5     6   ar
    28     6     7   ar
    29     7     8   ar
    30     8     9   ar
    31     9    10   ar
    32    15    16   ar
    33    16    17   ar
    34    17    18   ar
    35    18    19   ar
    36    19    11   ar
    37    18    14   ar
    38    10     1   ar
    39    28    23   ar
    40    10     5   ar
    41    35    29    1
    42    34    37    1
@<TRIPOS>MOLECULE
*****
 37 42 0 0 0
SMALL
GASTEIGER

@<TRIPOS>ATOM
      1 N         -11.9213   -4.0374   17.1880 N.ar    1  UNL1       -0.2407
      2 C         -13.1970   -4.7174   16.7878 C.ar    1  UNL1        0.3369
      3 O         -14.3627   -4.0706   16.1002 O.2     1  UNL1       -0.2459
      4 N         -13.1024   -6.1578   17.1958 N.ar    1  UNL1       -0.2755
      5 C         -11.7681   -6.3680   17.8483 C.ar    1  UNL1        0.0804
      6 C         -11.1236   -7.5834   18.4461 C.ar    1  UNL1        0.0188
      7 C          -9.7491   -7.4883   19.0392 C.ar    1  UNL1        0.0016
      8 C          -9.0191   -6.1779   19.0344 C.ar    1  UNL1        0.0016
      9 C          -9.6637   -4.9625   18.4365 C.ar    1  UNL1        0.0192
     10 C         -11.0382   -5.0576   17.8434 C.ar    1  UNL1        0.0855
     11 C         -13.5705    1.2626   18.0967 C.ar    1  UNL1        0.1419
     12 C         -14.2733    0.0103   18.5299 C.ar    1  UNL1        0.0372
     13 C         -13.6876   -1.3307   18.2001 C.ar    1  UNL1        0.0094
     14 C         -12.3992   -1.4193   17.4372 C.ar    1  UNL1        0.0751
     15 C         -11.5873   -2.5913   16.9710 C.ar    1  UNL1        0.1928
     16 N         -10.3828   -2.0632   16.2497 N.ar    1  UNL1       -0.0587
     17 O         -10.4502   -0.5649   16.2700 O.2     1  UNL1       -0.3518
     18 C         -11.6965   -0.1670   17.0040 C.ar    1  UNL1        0.1814
     19 C         -12.2822    1.1740   17.3338 C.ar    1  UNL1        0.0771
     20 C         -15.4038    2.6941   19.2542 C.3     1  UNL1        0.2525
     21 O         -14.1562    2.6036   18.4265 O.3     1  UNL1       -0.4713
     22 C         -14.1568   -7.2041   16.9879 C.3     1  UNL1        0.1373
     23 C         -15.2685   -7.3568   17.9834 C.ar    1  UNL1        0.0003
     24 C         -15.3737   -8.6080   18.8040 C.ar    1  UNL1       -0.0024
     25 C         -16.4854   -8.7608   19.7994 C.ar    1  UNL1       -0.0005
     26 C         -17.4917   -7.6624   19.9744 C.ar    1  UNL1       -0.0005
     27 C         -17.3864   -6.4111   19.1538 C.ar    1  UNL1        0.0218
     28 C         -16.2748   -6.2583   18.1584 C.ar    1  UNL1       -0.0029
     29 C         -18.3927   -5.3126   19.3287 C.3     1  UNL1        0.2240
     30 C         -19.3253   -6.2732   18.6524 C.3     1  UNL1        0.0581
     31 O         -19.5940   -4.4149   19.3622 O.3     1  UNL1       -0.4285
     32 C         -19.1935   -3.1290   20.0227 C.2     1  UNL1        0.4080
     33 O         -20.0851   -1.9477   20.2659 O.2     1  UNL1       -0.2260
     34 N         -17.7446   -3.2321   20.3975 N.am    1  UNL1       -0.2179
     35 C         -17.2498   -4.5816   19.9685 C.2     1  UNL1        0.2711
     36 O         -15.8566   -5.1078   20.1479 O.2     1  UNL1       -0.2705
     37 H         -17.2120   -2.5362   20.8462 H       1  UNL1        0.1610
@<TRIPOS>BOND
     1    20    21    1
     2    21    11    1
     3    11    12   ar
     4    12    13   ar
     5    13    14   ar
     6    14    15   ar
     7    15     1    1
     8     1     2   ar
     9     2     3    2
    10     2     4   ar
    11     4    22    1
    12    22    23    1
    13    23    24   ar
    14    24    25   ar
    15    25    26   ar
    16    26    27   ar
    17    27    29    1
    18    29    30    1
    19    29    31    1
    20    31    32    1
    21    32    33    2
    22    32    34   am
    23    34    35   am
    24    35    36    2
    25    27    28   ar
    26     4     5   ar
    27     5     6   ar
    28     6     7   ar
    29     7     8   ar
    30     8     9   ar
    31     9    10   ar
    32    15    16   ar
    33    16    17   ar
    34    17    18   ar
    35    18    19   ar
    36    19    11   ar
    37    18    14   ar
    38    10     1   ar
    39    28    23   ar
    40    10     5   ar
    41    35    29    1
    42    34    37    1
@<TRIPOS>MOLECULE
*****
 37 42 0 0 0
SMALL
GASTEIGER

@<TRIPOS>ATOM
      1 N          -1.8928    4.2107   20.8857 N.ar    1  UNL1       -0.2407
      2 C          -1.4210    3.7427   19.5410 C.ar    1  UNL1        0.3369
      3 O          -1.8895    4.2597   18.2132 O.2     1  UNL1       -0.2459
      4 N          -0.3983    2.6667   19.7572 N.ar    1  UNL1       -0.2755
      5 C          -0.2381    2.4698   21.2356 C.ar    1  UNL1        0.0804
      6 C           0.6295    1.5449   22.0367 C.ar    1  UNL1        0.0188
      7 C           0.5734    1.5742   23.5354 C.ar    1  UNL1        0.0016
      8 C          -0.3502    2.5284   24.2329 C.ar    1  UNL1        0.0016
      9 C          -1.2178    3.4533   23.4317 C.ar    1  UNL1        0.0192
     10 C          -1.1617    3.4240   21.9330 C.ar    1  UNL1        0.0855
     11 C          -7.0877    5.2650   22.7667 C.ar    1  UNL1        0.1419
     12 C          -6.4095    3.9296   22.6847 C.ar    1  UNL1        0.0372
     13 C          -5.0104    3.8303   22.1529 C.ar    1  UNL1        0.0094
     14 C          -4.2896    5.0664   21.7031 C.ar    1  UNL1        0.0751
     15 C          -2.9160    5.2779   21.1388 C.ar    1  UNL1        0.1928
     16 N          -2.7452    6.7441   20.8720 N.ar    1  UNL1       -0.0587
     17 O          -4.0132    7.4387   21.2714 O.2     1  UNL1       -0.3518
     18 C          -4.9677    6.4018   21.7851 C.ar    1  UNL1        0.1814
     19 C          -6.3668    6.5011   22.3168 C.ar    1  UNL1        0.0771
     20 C          -8.7220    5.8053   24.7127 C.3     1  UNL1        0.2525
     21 O          -8.4867    5.3644   23.2984 O.3     1  UNL1       -0.4713
     22 C           0.3352    1.9191   18.6835 C.3     1  UNL1        0.1373
     23 C           1.7607    1.5043   18.8984 C.ar    1  UNL1        0.0003
     24 C           2.8604    2.5194   18.7977 C.ar    1  UNL1       -0.0024
     25 C           4.2859    2.1047   19.0126 C.ar    1  UNL1       -0.0005
     26 C           4.6115    0.6749   19.3283 C.ar    1  UNL1       -0.0005
     27 C           3.5118   -0.3402   19.4290 C.ar    1  UNL1        0.0218
     28 C           2.0864    0.0745   19.2141 C.ar    1  UNL1       -0.0029
     29 C           3.8374   -1.7700   19.7446 C.3     1  UNL1        0.2240
     30 C           3.5082   -1.3698   21.1522 C.3     1  UNL1        0.0581
     31 O           4.0942   -3.1161   20.3545 O.3     1  UNL1       -0.4285
     32 C           4.5140   -4.0495   19.2578 C.2     1  UNL1        0.4080
     33 O           4.8688   -5.4977   19.4202 O.2     1  UNL1       -0.2260
     34 N           4.5167   -3.2800   17.9701 N.am    1  UNL1       -0.2179
     35 C           4.0985   -1.8713   18.2710 C.2     1  UNL1        0.2711
     36 O           3.9649   -0.7591   17.2734 O.2     1  UNL1       -0.2705
     37 H           4.7517   -3.6370   17.0832 H       1  UNL1        0.1610
@<TRIPOS>BOND
     1    20    21    1
     2    21    11    1
     3    11    12   ar
     4    12    13   ar
     5    13    14   ar
     6    14    15   ar
     7    15     1    1
     8     1     2   ar
     9     2     3    2
    10     2     4   ar
    11     4    22    1
    12    22    23    1
    13    23    24   ar
    14    24    25   ar
    15    25    26   ar
    16    26    27   ar
    17    27    29    1
    18    29    30    1
    19    29    31    1
    20    31    32    1
    21    32    33    2
    22    32    34   am
    23    34    35   am
    24    35    36    2
    25    27    28   ar
    26     4     5   ar
    27     5     6   ar
    28     6     7   ar
    29     7     8   ar
    30     8     9   ar
    31     9    10   ar
    32    15    16   ar
    33    16    17   ar
    34    17    18   ar
    35    18    19   ar
    36    19    11   ar
    37    18    14   ar
    38    10     1   ar
    39    28    23   ar
    40    10     5   ar
    41    35    29    1
    42    34    37    1
@<TRIPOS>MOLECULE
*****
 37 42 0 0 0
SMALL
GASTEIGER

@<TRIPOS>ATOM
      1 N          -0.5513    2.7813   22.4668 N.ar    1  UNL1       -0.2407
      2 C          -0.1626    3.1895   23.8569 C.ar    1  UNL1        0.3369
      3 O          -0.7916    4.2879   24.6617 O.2     1  UNL1       -0.2459
      4 N           0.9658    2.3064   24.3009 N.ar    1  UNL1       -0.2755
      5 C           1.2743    1.3524   23.1852 C.ar    1  UNL1        0.0804
      6 C           2.2879    0.2543   23.0550 C.ar    1  UNL1        0.0188
      7 C           2.3640   -0.5502   21.7914 C.ar    1  UNL1        0.0016
      8 C           1.4263   -0.2568   20.6578 C.ar    1  UNL1        0.0016
      9 C           0.4127    0.8413   20.7880 C.ar    1  UNL1        0.0192
     10 C           0.3368    1.6458   22.0518 C.ar    1  UNL1        0.0855
     11 C          -5.9950    4.1872   22.3046 C.ar    1  UNL1        0.1419
     12 C          -5.2649    3.5277   23.4368 C.ar    1  UNL1        0.0372
     13 C          -3.8019    3.2224   23.3092 C.ar    1  UNL1        0.0094
     14 C          -3.0689    3.5767   22.0494 C.ar    1  UNL1        0.0751
     15 C          -1.6374    3.3998   21.6375 C.ar    1  UNL1        0.1928
     16 N          -1.4828    3.9500   20.2507 N.ar    1  UNL1       -0.0587
     17 O          -2.8186    4.4670   19.8055 O.2     1  UNL1       -0.3518
     18 C          -3.7989    4.2362   20.9172 C.ar    1  UNL1        0.1814
     19 C          -5.2619    4.5415   21.0448 C.ar    1  UNL1        0.0771
     20 C          -8.0724    4.6660   23.7894 C.3     1  UNL1        0.2525
     21 O          -7.4580    4.4925   22.4321 O.3     1  UNL1       -0.4713
     22 C           1.6630    2.3667   25.6275 C.3     1  UNL1        0.1373
     23 C           1.0154    1.7723   26.8430 C.ar    1  UNL1        0.0003
     24 C          -0.3877    1.2477   26.7643 C.ar    1  UNL1       -0.0024
     25 C          -1.0354    0.6532   27.9797 C.ar    1  UNL1       -0.0005
     26 C          -0.2800    0.5833   29.2737 C.ar    1  UNL1       -0.0005
     27 C           1.1231    1.1078   29.3523 C.ar    1  UNL1        0.0218
     28 C           1.7708    1.7023   28.1370 C.ar    1  UNL1       -0.0029
     29 C           1.8785    1.0379   30.6463 C.3     1  UNL1        0.2240
     30 C           1.2671    2.3849   30.8944 C.3     1  UNL1        0.0581
     31 O           2.5062    1.2495   31.9921 O.3     1  UNL1       -0.4285
     32 C           3.3476    0.0479   32.3053 C.2     1  UNL1        0.4080
     33 O           4.1549   -0.1625   33.5518 O.2     1  UNL1       -0.2260
     34 N           3.2400   -0.9064   31.1530 N.am    1  UNL1       -0.2179
     35 C           2.3320   -0.2946   30.1277 C.2     1  UNL1        0.2711
     36 O           1.9455   -0.9075   28.8143 O.2     1  UNL1       -0.2705
     37 H           3.6868   -1.7808   31.0821 H       1  UNL1        0.1610
@<TRIPOS>BOND
     1    20    21    1
     2    21    11    1
     3    11    12   ar
     4    12    13   ar
     5    13    14   ar
     6    14    15   ar
     7    15     1    1
     8     1     2   ar
     9     2     3    2
    10     2     4   ar
    11     4    22    1
    12    22    23    1
    13    23    24   ar
    14    24    25   ar
    15    25    26   ar
    16    26    27   ar
    17    27    29    1
    18    29    30    1
    19    29    31    1
    20    31    32    1
    21    32    33    2
    22    32    34   am
    23    34    35   am
    24    35    36    2
    25    27    28   ar
    26     4     5   ar
    27     5     6   ar
    28     6     7   ar
    29     7     8   ar
    30     8     9   ar
    31     9    10   ar
    32    15    16   ar
    33    16    17   ar
    34    17    18   ar
    35    18    19   ar
    36    19    11   ar
    37    18    14   ar
    38    10     1   ar
    39    28    23   ar
    40    10     5   ar
    41    35    29    1
    42    34    37    1
@<TRIPOS>MOLECULE
*****
 37 42 0 0 0
SMALL
GASTEIGER

@<TRIPOS>ATOM
      1 N           1.2713    1.7896   23.4726 N.ar    1  UNL1       -0.2407
      2 C           0.8439    2.8469   22.4982 C.ar    1  UNL1        0.3369
      3 O           1.4328    3.0832   21.1390 O.2     1  UNL1       -0.2459
      4 N          -0.2758    3.6265   23.1217 N.ar    1  UNL1       -0.2755
      5 C          -0.5404    3.0511   24.4814 C.ar    1  UNL1        0.0804
      6 C          -1.5284    3.4141   25.5500 C.ar    1  UNL1        0.0188
      7 C          -1.5603    2.6420   26.8356 C.ar    1  UNL1        0.0016
      8 C          -0.6042    1.5067   27.0525 C.ar    1  UNL1        0.0016
      9 C           0.3838    1.1436   25.9839 C.ar    1  UNL1        0.0192
     10 C           0.4157    1.9159   24.6983 C.ar    1  UNL1        0.0855
     11 C           3.2924   -2.1549   20.0097 C.ar    1  UNL1        0.1419
     12 C           2.0627   -1.3198   19.8091 C.ar    1  UNL1        0.0372
     13 C           1.6672   -0.3068   20.8423 C.ar    1  UNL1        0.0094
     14 C           2.5016   -0.1290   22.0761 C.ar    1  UNL1        0.0751
     15 C           2.3626    0.7829   23.2589 C.ar    1  UNL1        0.1928
     16 N           3.5065    0.5114   24.1905 N.ar    1  UNL1       -0.0587
     17 O           4.3524   -0.5683   23.5835 O.2     1  UNL1       -0.3518
     18 C           3.7313   -0.9641   22.2767 C.ar    1  UNL1        0.1814
     19 C           4.1267   -1.9770   21.2434 C.ar    1  UNL1        0.0771
     20 C           5.1290   -3.5510   18.8148 C.3     1  UNL1        0.2525
     21 O           3.6878   -3.1679   18.9764 O.3     1  UNL1       -0.4713
     22 C          -1.0031    4.7792   22.4953 C.3     1  UNL1        0.1373
     23 C          -2.2983    4.5467   21.7753 C.ar    1  UNL1        0.0003
     24 C          -2.3084    3.8088   20.4694 C.ar    1  UNL1       -0.0024
     25 C          -3.6035    3.5762   19.7493 C.ar    1  UNL1       -0.0005
     26 C          -4.8886    4.0816   20.3351 C.ar    1  UNL1       -0.0005
     27 C          -4.8785    4.8195   21.6410 C.ar    1  UNL1        0.0218
     28 C          -3.5833    5.0521   22.3611 C.ar    1  UNL1       -0.0029
     29 C          -6.1635    5.3249   22.2268 C.3     1  UNL1        0.2240
     30 C          -5.8713    6.5489   21.4106 C.3     1  UNL1        0.0581
     31 O          -7.3874    6.0862   22.6421 O.3     1  UNL1       -0.4285
     32 C          -8.1675    5.2270   23.5925 C.2     1  UNL1        0.4080
     33 O          -9.4621    5.5953   24.2545 O.2     1  UNL1       -0.2260
     34 N          -7.4256    3.9346   23.7646 N.am    1  UNL1       -0.2179
     35 C          -6.1871    3.9952   22.9206 C.2     1  UNL1        0.2711
     36 O          -5.1536    2.9156   22.7927 O.2     1  UNL1       -0.2705
     37 H          -7.7029    3.1793   24.3319 H       1  UNL1        0.1610
@<TRIPOS>BOND
     1    20    21    1
     2    21    11    1
     3    11    12   ar
     4    12    13   ar
     5    13    14   ar
     6    14    15   ar
     7    15     1    1
     8     1     2   ar
     9     2     3    2
    10     2     4   ar
    11     4    22    1
    12    22    23    1
    13    23    24   ar
    14    24    25   ar
    15    25    26   ar
    16    26    27   ar
    17    27    29    1
    18    29    30    1
    19    29    31    1
    20    31    32    1
    21    32    33    2
    22    32    34   am
    23    34    35   am
    24    35    36    2
    25    27    28   ar
    26     4     5   ar
    27     5     6   ar
    28     6     7   ar
    29     7     8   ar
    30     8     9   ar
    31     9    10   ar
    32    15    16   ar
    33    16    17   ar
    34    17    18   ar
    35    18    19   ar
    36    19    11   ar
    37    18    14   ar
    38    10     1   ar
    39    28    23   ar
    40    10     5   ar
    41    35    29    1
    42    34    37    1
@<TRIPOS>MOLECULE
*****
 37 42 0 0 0
SMALL
GASTEIGER

@<TRIPOS>ATOM
      1 N          -0.4599    3.3398   25.6298 N.ar    1  UNL1       -0.2407
      2 C           0.2031    3.5109   24.2952 C.ar    1  UNL1        0.3369
      3 O          -0.2510    4.4248   23.1959 O.2     1  UNL1       -0.2459
      4 N           1.4000    2.6077   24.2530 N.ar    1  UNL1       -0.2755
      5 C           1.4767    1.8783   25.5615 C.ar    1  UNL1        0.0804
      6 C           2.4447    0.8606   26.0881 C.ar    1  UNL1        0.0188
      7 C           2.2632    0.2954   27.4656 C.ar    1  UNL1        0.0016
      8 C           1.1137    0.7478   28.3166 C.ar    1  UNL1        0.0016
      9 C           0.1458    1.7655   27.7900 C.ar    1  UNL1        0.0192
     10 C           0.3273    2.3307   26.4124 C.ar    1  UNL1        0.0855
     11 C          -5.9000    4.3162   24.5868 C.ar    1  UNL1        0.1419
     12 C          -4.9641    3.4637   23.7824 C.ar    1  UNL1        0.0372
     13 C          -3.5338    3.3125   24.2083 C.ar    1  UNL1        0.0094
     14 C          -3.0394    4.0138   25.4386 C.ar    1  UNL1        0.0751
     15 C          -1.6934    4.0525   26.0994 C.ar    1  UNL1        0.1928
     16 N          -1.7975    4.9290   27.3123 N.ar    1  UNL1       -0.0587
     17 O          -3.2078    5.4320   27.4010 O.2     1  UNL1       -0.3518
     18 C          -3.9754    4.8664   26.2430 C.ar    1  UNL1        0.1814
     19 C          -5.4057    5.0176   25.8171 C.ar    1  UNL1        0.0771
     20 C          -7.7277    5.5942   23.2540 C.3     1  UNL1        0.2525
     21 O          -7.3303    4.4674   24.1609 O.3     1  UNL1       -0.4713
     22 C           2.3528    2.4598   23.1040 C.3     1  UNL1        0.1373
     23 C           2.0455    1.4992   21.9937 C.ar    1  UNL1        0.0003
     24 C           0.6516    0.9722   21.8223 C.ar    1  UNL1       -0.0024
     25 C           0.3443    0.0116   20.7120 C.ar    1  UNL1       -0.0005
     26 C           1.4307   -0.4220   19.7731 C.ar    1  UNL1       -0.0005
     27 C           2.8246    0.1050   19.9445 C.ar    1  UNL1        0.0218
     28 C           3.1320    1.0656   21.0548 C.ar    1  UNL1       -0.0029
     29 C           3.9111   -0.3286   19.0057 C.3     1  UNL1        0.2240
     30 C           3.5054    0.8865   18.2254 C.3     1  UNL1        0.0581
     31 O           4.9129   -0.5082   17.9038 O.3     1  UNL1       -0.4285
     32 C           5.7106   -1.7436   18.1993 C.2     1  UNL1        0.4080
     33 O           6.8219   -2.2978   17.3580 O.2     1  UNL1       -0.2260
     34 N           5.2018   -2.3276   19.4839 N.am    1  UNL1       -0.2179
     35 C           4.0897   -1.4531   19.9823 C.2     1  UNL1        0.2711
     36 O           3.2956   -1.6656   21.2369 O.2     1  UNL1       -0.2705
     37 H           5.5387   -3.1419   19.9229 H       1  UNL1        0.1610
@<TRIPOS>BOND
     1    20    21    1
     2    21    11    1
     3    11    12   ar
     4    12    13   ar
     5    13    14   ar
     6    14    15   ar
     7    15     1    1
     8     1     2   ar
     9     2     3    2
    10     2     4   ar
    11     4    22    1
    12    22    23    1
    13    23    24   ar
    14    24    25   ar
    15    25    26   ar
    16    26    27   ar
    17    27    29    1
    18    29    30    1
    19    29    31    1
    20    31    32    1
    21    32    33    2
    22    32    34   am
    23    34    35   am
    24    35    36    2
    25    27    28   ar
    26     4     5   ar
    27     5     6   ar
    28     6     7   ar
    29     7     8   ar
    30     8     9   ar
    31     9    10   ar
    32    15    16   ar
    33    16    17   ar
    34    17    18   ar
    35    18    19   ar
    36    19    11   ar
    37    18    14   ar
    38    10     1   ar
    39    28    23   ar
    40    10     5   ar
    41    35    29    1
    42    34    37    1
