@<TRIPOS>MOLECULE
*****
 19 20 0 0 0
SMALL
GASTEIGER

@<TRIPOS>ATOM
      1 C          -9.8499  -17.3569   22.3602 C.3     1  UNL1        0.0321
      2 C         -10.7108  -16.2571   22.9070 C.3     1  UNL1        0.0053
      3 C         -12.1005  -16.0591   22.3783 C.3     1  UNL1        0.0004
      4 C         -12.6292  -16.9611   21.3026 C.3     1  UNL1        0.0000
      5 C         -11.7683  -18.0609   20.7558 C.3     1  UNL1        0.0004
      6 C         -10.3786  -18.2588   21.2845 C.3     1  UNL1        0.0053
      7 C          -8.9086  -16.7656   23.3674 C.ar    1  UNL1       -0.0207
      8 C          -7.7264  -15.9641   22.9091 C.ar    1  UNL1       -0.0033
      9 C          -6.7852  -15.3728   23.9163 C.ar    1  UNL1        0.0119
     10 C          -7.0262  -15.5830   25.3818 C.ar    1  UNL1        0.0682
     11 CL         -6.0849  -14.9917   26.3890 Cl      1  UNL1       -0.0814
     12 C          -8.2083  -16.3845   25.8401 C.ar    1  UNL1        0.0679
     13 CL         -8.4493  -16.5947   27.3056 Cl      1  UNL1       -0.0814
     14 C          -9.1495  -16.9758   24.8329 C.ar    1  UNL1        0.0080
     15 C          -8.6620  -18.2514   22.1631 C.3     1  UNL1        0.0578
     16 C          -8.5278  -19.5087   22.9700 C.3     1  UNL1        0.0174
     17 C          -6.7462  -18.9581   20.5567 C.3     1  UNL1        0.0859
     18 N          -7.6082  -17.8885   21.1592 N.3     1  UNL1       -0.2971
     19 H          -8.0853  -17.4246   20.3861 H       1  UNL1        0.1233
@<TRIPOS>BOND
     1    17    18    1
     2    18    15    1
     3    15    16    1
     4    15     1    1
     5     1     7    1
     6     7     8   ar
     7     8     9   ar
     8     9    10   ar
     9    10    11    1
    10    10    12   ar
    11    12    13    1
    12    12    14   ar
    13     1     2    1
    14     2     3    1
    15     3     4    1
    16     4     5    1
    17     5     6    1
    18     6     1    1
    19    14     7   ar
    20    18    19    1
@<TRIPOS>MOLECULE
*****
 19 20 0 0 0
SMALL
GASTEIGER

@<TRIPOS>ATOM
      1 C         -10.2233  -18.1510   21.9995 C.3     1  UNL1        0.0321
      2 C          -8.7825  -18.5447   21.8616 C.3     1  UNL1        0.0053
      3 C          -8.3131  -19.2508   20.6242 C.3     1  UNL1        0.0004
      4 C          -9.2845  -19.5632   19.5247 C.3     1  UNL1        0.0000
      5 C         -10.7253  -19.1695   19.6627 C.3     1  UNL1        0.0004
      6 C         -11.1948  -18.4634   20.9000 C.3     1  UNL1        0.0053
      7 C          -9.6877  -17.6403   23.3043 C.ar    1  UNL1       -0.0207
      8 C          -9.9943  -18.3704   24.5782 C.ar    1  UNL1       -0.0033
      9 C          -9.4587  -17.8596   25.8828 C.ar    1  UNL1        0.0119
     10 C          -8.6165  -16.6188   25.9136 C.ar    1  UNL1        0.0682
     11 CL         -8.0808  -16.1080   27.2183 Cl      1  UNL1       -0.0814
     12 C          -8.3099  -15.8887   24.6397 C.ar    1  UNL1        0.0679
     13 CL         -7.4677  -14.6478   24.6704 Cl      1  UNL1       -0.0814
     14 C          -8.8455  -16.3994   23.3350 C.ar    1  UNL1        0.0080
     15 C         -11.4782  -17.5800   22.5906 C.3     1  UNL1        0.0578
     16 C         -11.8182  -16.1349   22.3760 C.3     1  UNL1        0.0174
     17 C         -13.7323  -17.9379   23.8318 C.3     1  UNL1        0.0859
     18 N         -12.3929  -18.4541   23.3962 N.3     1  UNL1       -0.2971
     19 H         -12.5668  -19.2908   22.8393 H       1  UNL1        0.1233
@<TRIPOS>BOND
     1    17    18    1
     2    18    15    1
     3    15    16    1
     4    15     1    1
     5     1     7    1
     6     7     8   ar
     7     8     9   ar
     8     9    10   ar
     9    10    11    1
    10    10    12   ar
    11    12    13    1
    12    12    14   ar
    13     1     2    1
    14     2     3    1
    15     3     4    1
    16     4     5    1
    17     5     6    1
    18     6     1    1
    19    14     7   ar
    20    18    19    1
@<TRIPOS>MOLECULE
*****
 19 20 0 0 0
SMALL
GASTEIGER

@<TRIPOS>ATOM
      1 C          -9.6636  -17.6558   22.4503 C.3     1  UNL1        0.0321
      2 C          -9.8432  -16.2268   22.0314 C.3     1  UNL1        0.0053
      3 C         -10.8415  -15.8767   20.9680 C.3     1  UNL1        0.0004
      4 C         -11.6603  -16.9558   20.3236 C.3     1  UNL1        0.0000
      5 C         -11.4807  -18.3848   20.7425 C.3     1  UNL1        0.0004
      6 C         -10.4824  -18.7349   21.8059 C.3     1  UNL1        0.0053
      7 C          -8.6616  -16.9931   23.3486 C.ar    1  UNL1       -0.0207
      8 C          -7.2356  -16.8511   22.9056 C.ar    1  UNL1       -0.0033
      9 C          -6.2336  -16.1885   23.8039 C.ar    1  UNL1        0.0119
     10 C          -6.6577  -15.6679   25.1452 C.ar    1  UNL1        0.0682
     11 CL         -5.6556  -15.0052   26.0435 Cl      1  UNL1       -0.0814
     12 C          -8.0836  -15.8099   25.5882 C.ar    1  UNL1        0.0679
     13 CL         -8.5077  -15.2893   26.9296 Cl      1  UNL1       -0.0814
     14 C          -9.0856  -16.4725   24.6900 C.ar    1  UNL1        0.0080
     15 C          -9.1360  -18.8547   23.1813 C.3     1  UNL1        0.0578
     16 C          -8.0670  -19.7025   22.5582 C.3     1  UNL1        0.0174
     17 C          -9.9126  -20.6418   24.8998 C.3     1  UNL1        0.0859
     18 N          -9.6776  -19.2058   24.5353 N.3     1  UNL1       -0.2971
     19 H          -9.0216  -18.8316   25.2209 H       1  UNL1        0.1233
@<TRIPOS>BOND
     1    17    18    1
     2    18    15    1
     3    15    16    1
     4    15     1    1
     5     1     7    1
     6     7     8   ar
     7     8     9   ar
     8     9    10   ar
     9    10    11    1
    10    10    12   ar
    11    12    13    1
    12    12    14   ar
    13     1     2    1
    14     2     3    1
    15     3     4    1
    16     4     5    1
    17     5     6    1
    18     6     1    1
    19    14     7   ar
    20    18    19    1
@<TRIPOS>MOLECULE
*****
 19 20 0 0 0
SMALL
GASTEIGER

@<TRIPOS>ATOM
      1 C         -10.9753  -18.0379   22.3560 C.3     1  UNL1        0.0321
      2 C         -10.7287  -18.5105   23.7580 C.3     1  UNL1        0.0053
      3 C         -11.8781  -18.6712   24.7084 C.3     1  UNL1        0.0004
      4 C         -13.2740  -18.3594   24.2566 C.3     1  UNL1        0.0000
      5 C         -13.5206  -17.8869   22.8545 C.3     1  UNL1        0.0004
      6 C         -12.3713  -17.7261   21.9042 C.3     1  UNL1        0.0053
      7 C          -9.4852  -18.2059   22.3159 C.ar    1  UNL1       -0.0207
      8 C          -8.8834  -19.4050   21.6452 C.ar    1  UNL1       -0.0033
      9 C          -7.3934  -19.5729   21.6052 C.ar    1  UNL1        0.0119
     10 C          -6.5052  -18.5416   22.2359 C.ar    1  UNL1        0.0682
     11 CL         -5.0151  -18.7096   22.1959 Cl      1  UNL1       -0.0814
     12 C          -7.1071  -17.3426   22.9067 C.ar    1  UNL1        0.0679
     13 CL         -6.2189  -16.3114   23.5374 Cl      1  UNL1       -0.0814
     14 C          -8.5971  -17.1747   22.9466 C.ar    1  UNL1        0.0080
     15 C         -10.7044  -17.6237   20.9399 C.3     1  UNL1        0.0578
     16 C         -10.7662  -18.6383   19.8368 C.3     1  UNL1        0.0174
     17 C         -11.0606  -15.4956   19.4928 C.3     1  UNL1        0.0859
     18 N         -10.3717  -16.1950   20.6270 N.3     1  UNL1       -0.2971
     19 H         -10.5698  -15.6552   21.4696 H       1  UNL1        0.1233
@<TRIPOS>BOND
     1    17    18    1
     2    18    15    1
     3    15    16    1
     4    15     1    1
     5     1     7    1
     6     7     8   ar
     7     8     9   ar
     8     9    10   ar
     9    10    11    1
    10    10    12   ar
    11    12    13    1
    12    12    14   ar
    13     1     2    1
    14     2     3    1
    15     3     4    1
    16     4     5    1
    17     5     6    1
    18     6     1    1
    19    14     7   ar
    20    18    19    1
@<TRIPOS>MOLECULE
*****
 19 20 0 0 0
SMALL
GASTEIGER

@<TRIPOS>ATOM
      1 C         -11.1698  -17.8035   22.4169 C.3     1  UNL1        0.0321
      2 C         -10.8480  -18.9549   23.3227 C.3     1  UNL1        0.0053
      3 C         -11.7953  -19.3308   24.4233 C.3     1  UNL1        0.0004
      4 C         -13.0644  -18.5552   24.6181 C.3     1  UNL1        0.0000
      5 C         -13.3861  -17.4037   23.7123 C.3     1  UNL1        0.0004
      6 C         -12.4388  -17.0278   22.6117 C.3     1  UNL1        0.0053
      7 C          -9.8537  -18.2307   21.8377 C.ar    1  UNL1       -0.0207
      8 C          -8.5761  -17.8870   22.5446 C.ar    1  UNL1       -0.0033
      9 C          -7.2601  -18.3142   21.9654 C.ar    1  UNL1        0.0119
     10 C          -7.2217  -19.0851   20.6792 C.ar    1  UNL1        0.0682
     11 CL         -5.9056  -19.5124   20.1000 Cl      1  UNL1       -0.0814
     12 C          -8.4992  -19.4288   19.9723 C.ar    1  UNL1        0.0679
     13 CL         -8.4607  -20.1997   18.6861 Cl      1  UNL1       -0.0814
     14 C          -9.8152  -19.0016   20.5515 C.ar    1  UNL1        0.0080
     15 C         -11.0344  -16.8003   21.3099 C.3     1  UNL1        0.0578
     16 C         -10.0443  -15.6800   21.4299 C.3     1  UNL1        0.0174
     17 C         -12.0440  -15.7439   19.1617 C.3     1  UNL1        0.0859
     18 N         -11.8893  -16.9175   20.0829 N.3     1  UNL1       -0.2971
     19 H         -11.5025  -17.6798   19.5263 H       1  UNL1        0.1233
@<TRIPOS>BOND
     1    17    18    1
     2    18    15    1
     3    15    16    1
     4    15     1    1
     5     1     7    1
     6     7     8   ar
     7     8     9   ar
     8     9    10   ar
     9    10    11    1
    10    10    12   ar
    11    12    13    1
    12    12    14   ar
    13     1     2    1
    14     2     3    1
    15     3     4    1
    16     4     5    1
    17     5     6    1
    18     6     1    1
    19    14     7   ar
    20    18    19    1
@<TRIPOS>MOLECULE
*****
 19 20 0 0 0
SMALL
GASTEIGER

@<TRIPOS>ATOM
      1 C          -9.8911  -17.5664   22.8962 C.3     1  UNL1        0.0321
      2 C          -9.6309  -16.5526   21.8218 C.3     1  UNL1        0.0053
      3 C         -10.7788  -15.9351   21.0794 C.3     1  UNL1        0.0004
      4 C         -12.1869  -16.3316   21.4114 C.3     1  UNL1        0.0000
      5 C         -12.4470  -17.3455   22.4858 C.3     1  UNL1        0.0004
      6 C         -11.2992  -17.9629   23.2282 C.3     1  UNL1        0.0053
      7 C          -8.3926  -17.5160   22.9429 C.ar    1  UNL1       -0.0207
      8 C          -7.5843  -18.5457   22.2106 C.ar    1  UNL1       -0.0033
      9 C          -6.0859  -18.4952   22.2574 C.ar    1  UNL1        0.0119
     10 C          -5.3958  -17.4151   23.0366 C.ar    1  UNL1        0.0682
     11 CL         -3.8974  -17.3646   23.0834 Cl      1  UNL1       -0.0814
     12 C          -6.2041  -16.3854   23.7689 C.ar    1  UNL1        0.0679
     13 CL         -5.5140  -15.3052   24.5480 Cl      1  UNL1       -0.0814
     14 C          -7.7025  -16.4358   23.7221 C.ar    1  UNL1        0.0080
     15 C          -9.6308  -18.5628   23.9868 C.3     1  UNL1        0.0578
     16 C          -9.7191  -18.1420   25.4238 C.3     1  UNL1        0.0174
     17 C          -9.6459  -21.0925   24.5786 C.3     1  UNL1        0.0859
     18 N          -9.2824  -19.9800   23.6404 N.3     1  UNL1       -0.2971
     19 H          -9.7359  -20.1856   22.7502 H       1  UNL1        0.1233
@<TRIPOS>BOND
     1    17    18    1
     2    18    15    1
     3    15    16    1
     4    15     1    1
     5     1     7    1
     6     7     8   ar
     7     8     9   ar
     8     9    10   ar
     9    10    11    1
    10    10    12   ar
    11    12    13    1
    12    12    14   ar
    13     1     2    1
    14     2     3    1
    15     3     4    1
    16     4     5    1
    17     5     6    1
    18     6     1    1
    19    14     7   ar
    20    18    19    1
@<TRIPOS>MOLECULE
*****
 19 20 0 0 0
SMALL
GASTEIGER

@<TRIPOS>ATOM
      1 C          -8.6797  -17.1633   23.9720 C.3     1  UNL1        0.0321
      2 C          -7.6107  -16.4564   23.1927 C.3     1  UNL1        0.0053
      3 C          -6.8307  -15.3439   23.8282 C.3     1  UNL1        0.0004
      4 C          -7.1197  -14.9384   25.2432 C.3     1  UNL1        0.0000
      5 C          -8.1887  -15.6453   26.0225 C.3     1  UNL1        0.0004
      6 C          -8.9687  -16.7578   25.3870 C.3     1  UNL1        0.0053
      7 C          -8.7733  -17.9037   22.6708 C.ar    1  UNL1       -0.0207
      8 C          -7.7201  -18.9055   22.3004 C.ar    1  UNL1       -0.0033
      9 C          -7.8137  -19.6458   20.9993 C.ar    1  UNL1        0.0119
     10 C          -8.9605  -19.3843   20.0684 C.ar    1  UNL1        0.0682
     11 CL         -9.0541  -20.1247   18.7672 Cl      1  UNL1       -0.0814
     12 C         -10.0137  -18.3826   20.4388 C.ar    1  UNL1        0.0679
     13 CL        -11.1605  -18.1211   19.5079 Cl      1  UNL1       -0.0814
     14 C          -9.9201  -17.6423   21.7399 C.ar    1  UNL1        0.0080
     15 C          -9.7812  -18.1274   24.2995 C.3     1  UNL1        0.0578
     16 C         -11.1962  -17.8071   23.9185 C.3     1  UNL1        0.0174
     17 C         -10.0622  -20.7006   24.5226 C.3     1  UNL1        0.0859
     18 N          -9.4677  -19.4118   25.0080 N.3     1  UNL1       -0.2971
     19 H          -8.4544  -19.5251   24.9777 H       1  UNL1        0.1233
@<TRIPOS>BOND
     1    17    18    1
     2    18    15    1
     3    15    16    1
     4    15     1    1
     5     1     7    1
     6     7     8   ar
     7     8     9   ar
     8     9    10   ar
     9    10    11    1
    10    10    12   ar
    11    12    13    1
    12    12    14   ar
    13     1     2    1
    14     2     3    1
    15     3     4    1
    16     4     5    1
    17     5     6    1
    18     6     1    1
    19    14     7   ar
    20    18    19    1
@<TRIPOS>MOLECULE
*****
 19 20 0 0 0
SMALL
GASTEIGER

@<TRIPOS>ATOM
      1 C         -12.1312   -5.8850   18.6512 C.3     1  UNL1        0.0321
      2 C         -11.0676   -4.9371   19.1202 C.3     1  UNL1        0.0053
      3 C          -9.6287   -5.3609   19.1123 C.3     1  UNL1        0.0004
      4 C          -9.2536   -6.7327   18.6353 C.3     1  UNL1        0.0000
      5 C         -10.3173   -7.6806   18.1663 C.3     1  UNL1        0.0004
      6 C         -11.7561   -7.2568   18.1742 C.3     1  UNL1        0.0053
      7 C         -12.9780   -4.6994   19.0083 C.ar    1  UNL1       -0.0207
      8 C         -13.7151   -4.6703   20.3144 C.ar    1  UNL1       -0.0033
      9 C         -14.5617   -3.4848   20.6715 C.ar    1  UNL1        0.0119
     10 C         -14.6713   -2.3283   19.7225 C.ar    1  UNL1        0.0682
     11 CL        -15.5181   -1.1427   20.0797 Cl      1  UNL1       -0.0814
     12 C         -13.9342   -2.3573   18.4165 C.ar    1  UNL1        0.0679
     13 CL        -14.0438   -1.2009   17.4675 Cl      1  UNL1       -0.0814
     14 C         -13.0876   -3.5429   18.0594 C.ar    1  UNL1        0.0080
     15 C         -13.4890   -6.4212   18.3062 C.3     1  UNL1        0.0578
     16 C         -14.1064   -6.1010   16.9772 C.3     1  UNL1        0.0174
     17 C         -15.6557   -7.6604   19.0272 C.3     1  UNL1        0.0859
     18 N         -14.2294   -7.2776   19.2903 N.3     1  UNL1       -0.2971
     19 H         -13.7028   -8.1466   19.3790 H       1  UNL1        0.1233
@<TRIPOS>BOND
     1    17    18    1
     2    18    15    1
     3    15    16    1
     4    15     1    1
     5     1     7    1
     6     7     8   ar
     7     8     9   ar
     8     9    10   ar
     9    10    11    1
    10    10    12   ar
    11    12    13    1
    12    12    14   ar
    13     1     2    1
    14     2     3    1
    15     3     4    1
    16     4     5    1
    17     5     6    1
    18     6     1    1
    19    14     7   ar
    20    18    19    1
@<TRIPOS>MOLECULE
*****
 19 20 0 0 0
SMALL
GASTEIGER

@<TRIPOS>ATOM
      1 C         -12.3521   -5.7066   18.6099 C.3     1  UNL1        0.0321
      2 C         -11.7916   -7.0834   18.4094 C.3     1  UNL1        0.0053
      3 C         -10.3257   -7.3326   18.6070 C.3     1  UNL1        0.0004
      4 C          -9.4203   -6.2049   19.0052 C.3     1  UNL1        0.0000
      5 C          -9.9807   -4.8281   19.2057 C.3     1  UNL1        0.0004
      6 C         -11.4466   -4.5789   19.0081 C.3     1  UNL1        0.0053
      7 C         -13.6031   -6.4452   18.2363 C.ar    1  UNL1       -0.0207
      8 C         -13.8487   -6.8295   16.8074 C.ar    1  UNL1       -0.0033
      9 C         -15.0997   -7.5681   16.4339 C.ar    1  UNL1        0.0119
     10 C         -16.1050   -7.9223   17.4893 C.ar    1  UNL1        0.0682
     11 CL        -17.3561   -8.6609   17.1157 Cl      1  UNL1       -0.0814
     12 C         -15.8594   -7.5379   18.9182 C.ar    1  UNL1        0.0679
     13 CL        -16.8647   -7.8921   19.9736 Cl      1  UNL1       -0.0814
     14 C         -14.6084   -6.7994   19.2917 C.ar    1  UNL1        0.0080
     15 C         -13.3470   -4.5862   18.6807 C.3     1  UNL1        0.0578
     16 C         -13.7874   -4.0573   20.0134 C.3     1  UNL1        0.0174
     17 C         -15.1224   -3.1249   17.4713 C.3     1  UNL1        0.0859
     18 N         -13.9015   -3.9948   17.4186 N.3     1  UNL1       -0.2971
     19 H         -13.1574   -3.4331   17.0049 H       1  UNL1        0.1233
@<TRIPOS>BOND
     1    17    18    1
     2    18    15    1
     3    15    16    1
     4    15     1    1
     5     1     7    1
     6     7     8   ar
     7     8     9   ar
     8     9    10   ar
     9    10    11    1
    10    10    12   ar
    11    12    13    1
    12    12    14   ar
    13     1     2    1
    14     2     3    1
    15     3     4    1
    16     4     5    1
    17     5     6    1
    18     6     1    1
    19    14     7   ar
    20    18    19    1
