@<TRIPOS>MOLECULE
*****
 36 38 0 0 0
SMALL
GASTEIGER

@<TRIPOS>ATOM
      1 C          -6.6061  -19.0063   21.8231 C.ar    1  UNL1       -0.0078
      2 C          -6.3726  -19.9207   20.6572 C.ar    1  UNL1       -0.0033
      3 C          -4.9972  -20.0566   20.0744 C.ar    1  UNL1       -0.0042
      4 C          -3.8553  -19.2782   20.6575 C.ar    1  UNL1       -0.0166
      5 C          -4.0888  -18.3638   21.8234 C.ar    1  UNL1       -0.0042
      6 C          -5.4642  -18.2279   22.4062 C.ar    1  UNL1       -0.0030
      7 C          -5.6978  -17.3134   23.5721 C.ar    1  UNL1       -0.0003
      8 C          -6.8302  -16.3304   23.5392 C.ar    1  UNL1       -0.0001
      9 C          -7.0638  -15.4160   24.7050 C.ar    1  UNL1        0.0039
     10 C          -6.1649  -15.4846   25.9040 C.ar    1  UNL1        0.0714
     11 C          -5.0324  -16.4677   25.9369 C.ar    1  UNL1        0.0039
     12 C          -4.7989  -17.3821   24.7710 C.ar    1  UNL1       -0.0001
     13 C          -6.3985  -14.5703   27.0698 C.3     1  UNL1        0.4186
     14 F          -6.6321  -13.6559   28.2357 F       1  UNL1       -0.1659
     15 F          -7.6716  -15.2980   27.3855 F       1  UNL1       -0.1659
     16 F          -5.1254  -13.8426   26.7542 F       1  UNL1       -0.1659
     17 C          -7.9816  -18.8703   22.4059 C.3     1  UNL1        0.0801
     18 N          -9.0291  -18.0795   21.6797 N.3     1  UNL1       -0.2703
     19 C          -9.2756  -16.6463   22.0469 C.3     1  UNL1        0.0726
     20 C         -10.3230  -15.8554   21.3206 C.3     1  UNL1        0.0259
     21 C         -11.1240  -16.4979   20.2272 C.3     1  UNL1        0.0979
     22 C         -10.8775  -17.9313   19.8599 C.3     1  UNL1        0.0259
     23 C          -9.8300  -18.7221   20.5862 C.3     1  UNL1        0.0726
     24 C         -12.1715  -15.7071   19.5009 C.3     1  UNL1        0.3976
     25 F         -13.2189  -14.9163   18.7747 F       1  UNL1       -0.1701
     26 F         -11.1278  -15.1957   18.5525 F       1  UNL1       -0.1701
     27 F         -13.2151  -16.2184   20.4493 F       1  UNL1       -0.1701
     28 C          -8.3096  -19.5252   23.7149 C.3     1  UNL1        0.0205
     29 C         -10.0930  -20.6357   23.4215 C.3     1  UNL1        0.0001
     30 C          -9.7052  -19.4542   24.2602 C.3     1  UNL1        0.0016
     31 C          -9.3173  -18.2727   25.0989 C.3     1  UNL1        0.0001
     32 C         -11.1007  -19.3832   24.8055 C.3     1  UNL1        0.0001
     33 C          -2.4798  -19.4141   20.0747 C.3     1  UNL1        0.0679
     34 C          -1.8767  -18.2783   19.3026 C.2     1  UNL1        0.0547
     35 O          -2.7511  -17.1734   18.7881 O.co2   1  UNL1       -0.5488
     36 O          -0.3993  -18.2473   19.0451 O.co2   1  UNL1       -0.5488
@<TRIPOS>UNITY_ATOM_ATTR
35 1
charge -1
@<TRIPOS>BOND
     1    29    30    1
     2    30    31    1
     3    30    32    1
     4    30    28    1
     5    28    17    1
     6    17     1    1
     7     1     2   ar
     8     2     3   ar
     9     3     4   ar
    10     4    33    1
    11    33    34    1
    12    34    35   ar
    13    34    36   ar
    14     4     5   ar
    15     5     6   ar
    16     6     7    1
    17     7     8   ar
    18     8     9   ar
    19     9    10   ar
    20    10    13    1
    21    13    14    1
    22    13    15    1
    23    13    16    1
    24    10    11   ar
    25    11    12   ar
    26    17    18    1
    27    18    19    1
    28    19    20    1
    29    20    21    1
    30    21    24    1
    31    24    25    1
    32    24    26    1
    33    24    27    1
    34    21    22    1
    35    22    23    1
    36     6     1   ar
    37    12     7   ar
    38    23    18    1
@<TRIPOS>MOLECULE
*****
 36 38 0 0 0
SMALL
GASTEIGER

@<TRIPOS>ATOM
      1 C           3.7746    1.7349   34.4893 C.ar    1  UNL1       -0.0078
      2 C           2.9919    2.7270   35.2975 C.ar    1  UNL1       -0.0033
      3 C           2.7390    2.4746   36.7543 C.ar    1  UNL1       -0.0042
      4 C           3.2688    1.2301   37.4029 C.ar    1  UNL1       -0.0166
      5 C           4.0515    0.2381   36.5948 C.ar    1  UNL1       -0.0042
      6 C           4.3044    0.4905   35.1380 C.ar    1  UNL1       -0.0030
      7 C           5.0872   -0.5016   34.3297 C.ar    1  UNL1       -0.0003
      8 C           6.5620   -0.3115   34.1328 C.ar    1  UNL1       -0.0001
      9 C           7.3447   -1.3035   33.3246 C.ar    1  UNL1        0.0039
     10 C           6.6527   -2.4856   32.7133 C.ar    1  UNL1        0.0714
     11 C           5.1778   -2.6757   32.9102 C.ar    1  UNL1        0.0039
     12 C           4.3951   -1.6836   33.7184 C.ar    1  UNL1       -0.0001
     13 C           7.4354   -3.4776   31.9051 C.3     1  UNL1        0.4186
     14 F           8.2181   -4.4696   31.0969 F       1  UNL1       -0.1659
     15 F           8.6874   -3.0793   32.6288 F       1  UNL1       -0.1659
     16 F           6.1834   -3.8759   31.1814 F       1  UNL1       -0.1659
     17 C           4.0276    1.9873   33.0325 C.3     1  UNL1        0.0801
     18 N           3.0274    1.5381   32.0088 N.3     1  UNL1       -0.2703
     19 C           1.7275    2.2713   31.8582 C.3     1  UNL1        0.0726
     20 C           0.7273    1.8221   30.8346 C.3     1  UNL1        0.0259
     21 C           1.0270    0.6399   29.9615 C.3     1  UNL1        0.0979
     22 C           2.3269   -0.0934   30.1120 C.3     1  UNL1        0.0259
     23 C           3.3271    0.3558   31.1357 C.3     1  UNL1        0.0726
     24 C           0.0268    0.1907   28.9378 C.3     1  UNL1        0.3976
     25 F          -0.9734   -0.2584   27.9142 F       1  UNL1       -0.1701
     26 F          -1.0861    0.7211   29.7924 F       1  UNL1       -0.1701
     27 F           1.1396   -0.3397   28.0832 F       1  UNL1       -0.1701
     28 C           5.2806    2.6887   32.5993 C.3     1  UNL1        0.0205
     29 C           6.7704    3.3624   33.9510 C.3     1  UNL1        0.0001
     30 C           5.6454    4.0131   33.2020 C.3     1  UNL1        0.0016
     31 C           4.5205    4.6637   32.4529 C.3     1  UNL1        0.0001
     32 C           6.0101    5.3374   33.8045 C.3     1  UNL1        0.0001
     33 C           3.0158    0.9778   38.8598 C.3     1  UNL1        0.0679
     34 C           1.6159    0.7553   39.3504 C.2     1  UNL1        0.0547
     35 O           0.7114    1.9268   39.5938 O.co2   1  UNL1       -0.5488
     36 O           1.1206   -0.6389   39.5977 O.co2   1  UNL1       -0.5488
@<TRIPOS>UNITY_ATOM_ATTR
35 1
charge -1
@<TRIPOS>BOND
     1    29    30    1
     2    30    31    1
     3    30    32    1
     4    30    28    1
     5    28    17    1
     6    17     1    1
     7     1     2   ar
     8     2     3   ar
     9     3     4   ar
    10     4    33    1
    11    33    34    1
    12    34    35   ar
    13    34    36   ar
    14     4     5   ar
    15     5     6   ar
    16     6     7    1
    17     7     8   ar
    18     8     9   ar
    19     9    10   ar
    20    10    13    1
    21    13    14    1
    22    13    15    1
    23    13    16    1
    24    10    11   ar
    25    11    12   ar
    26    17    18    1
    27    18    19    1
    28    19    20    1
    29    20    21    1
    30    21    24    1
    31    24    25    1
    32    24    26    1
    33    24    27    1
    34    21    22    1
    35    22    23    1
    36     6     1   ar
    37    12     7   ar
    38    23    18    1
@<TRIPOS>MOLECULE
*****
 36 38 0 0 0
SMALL
GASTEIGER

@<TRIPOS>ATOM
      1 C           2.7376    2.6294   19.8504 C.ar    1  UNL1       -0.0078
      2 C           2.1641    4.0131   19.9306 C.ar    1  UNL1       -0.0033
      3 C           0.9194    4.3544   19.1662 C.ar    1  UNL1       -0.0042
      4 C           0.2483    3.3121   18.3217 C.ar    1  UNL1       -0.0166
      5 C           0.8218    1.9284   18.2416 C.ar    1  UNL1       -0.0042
      6 C           2.0665    1.5871   19.0060 C.ar    1  UNL1       -0.0030
      7 C           2.6401    0.2034   18.9259 C.ar    1  UNL1       -0.0003
      8 C           2.3828   -0.7801   20.0288 C.ar    1  UNL1       -0.0001
      9 C           2.9564   -2.1638   19.9488 C.ar    1  UNL1        0.0039
     10 C           3.7872   -2.5640   18.7657 C.ar    1  UNL1        0.0714
     11 C           4.0445   -1.5805   17.6627 C.ar    1  UNL1        0.0039
     12 C           3.4709   -0.1968   17.7428 C.ar    1  UNL1       -0.0001
     13 C           4.3608   -3.9477   18.6857 C.3     1  UNL1        0.4186
     14 F           4.9343   -5.3314   18.6056 F       1  UNL1       -0.1659
     15 F           3.0075   -4.5255   18.9768 F       1  UNL1       -0.1659
     16 F           5.7140   -3.3699   18.3945 F       1  UNL1       -0.1659
     17 C           3.9823    2.2880   20.6148 C.3     1  UNL1        0.0801
     18 N           3.8909    1.4768   21.8732 N.3     1  UNL1       -0.2703
     19 C           5.0195    0.5695   22.2643 C.3     1  UNL1        0.0726
     20 C           4.9280   -0.2417   23.5227 C.3     1  UNL1        0.0259
     21 C           3.7080   -0.1457   24.3900 C.3     1  UNL1        0.0979
     22 C           2.5793    0.7616   23.9988 C.3     1  UNL1        0.0259
     23 C           2.6707    1.5729   22.7405 C.3     1  UNL1        0.0726
     24 C           3.6165   -0.9569   25.6483 C.3     1  UNL1        0.3976
     25 F           3.5251   -1.7682   26.9067 F       1  UNL1       -0.1701
     26 F           2.8424    0.1478   26.3043 F       1  UNL1       -0.1701
     27 F           4.3906   -2.0617   24.9924 F       1  UNL1       -0.1701
     28 C           5.3184    2.7579   20.1208 C.3     1  UNL1        0.0205
     29 C           5.2486    3.7754   18.2607 C.3     1  UNL1        0.0001
     30 C           5.7545    2.4405   18.7211 C.3     1  UNL1        0.0016
     31 C           6.2604    1.1055   19.1815 C.3     1  UNL1        0.0001
     32 C           6.1906    2.1230   17.3214 C.3     1  UNL1        0.0001
     33 C          -0.9964    3.6535   17.5574 C.3     1  UNL1        0.0679
     34 C          -2.2046    4.1675   18.2826 C.2     1  UNL1        0.0547
     35 O          -2.6031    3.5649   19.5971 O.co2   1  UNL1       -0.5488
     36 O          -3.0144    5.2843   17.6933 O.co2   1  UNL1       -0.5488
@<TRIPOS>UNITY_ATOM_ATTR
35 1
charge -1
@<TRIPOS>BOND
     1    29    30    1
     2    30    31    1
     3    30    32    1
     4    30    28    1
     5    28    17    1
     6    17     1    1
     7     1     2   ar
     8     2     3   ar
     9     3     4   ar
    10     4    33    1
    11    33    34    1
    12    34    35   ar
    13    34    36   ar
    14     4     5   ar
    15     5     6   ar
    16     6     7    1
    17     7     8   ar
    18     8     9   ar
    19     9    10   ar
    20    10    13    1
    21    13    14    1
    22    13    15    1
    23    13    16    1
    24    10    11   ar
    25    11    12   ar
    26    17    18    1
    27    18    19    1
    28    19    20    1
    29    20    21    1
    30    21    24    1
    31    24    25    1
    32    24    26    1
    33    24    27    1
    34    21    22    1
    35    22    23    1
    36     6     1   ar
    37    12     7   ar
    38    23    18    1
@<TRIPOS>MOLECULE
*****
 36 38 0 0 0
SMALL
GASTEIGER

@<TRIPOS>ATOM
      1 C           2.4607    1.1436   24.4305 C.ar    1  UNL1       -0.0078
      2 C           2.7622    0.7659   25.8505 C.ar    1  UNL1       -0.0033
      3 C           1.6841    0.8383   26.8909 C.ar    1  UNL1       -0.0042
      4 C           0.3045    1.2882   26.5112 C.ar    1  UNL1       -0.0166
      5 C           0.0029    1.6659   25.0913 C.ar    1  UNL1       -0.0042
      6 C           1.0810    1.5935   24.0509 C.ar    1  UNL1       -0.0030
      7 C           0.7795    1.9712   22.6308 C.ar    1  UNL1       -0.0003
      8 C           0.3247    0.9249   21.6569 C.ar    1  UNL1       -0.0001
      9 C           0.0232    1.3025   20.2369 C.ar    1  UNL1        0.0039
     10 C           0.1765    2.7264   19.7907 C.ar    1  UNL1        0.0714
     11 C           0.6314    3.7727   20.7646 C.ar    1  UNL1        0.0039
     12 C           0.9329    3.3950   22.1847 C.ar    1  UNL1       -0.0001
     13 C          -0.1250    3.1040   18.3707 C.3     1  UNL1        0.4186
     14 F          -0.4265    3.4815   16.9507 F       1  UNL1       -0.1659
     15 F           0.4711    1.8104   17.9002 F       1  UNL1       -0.1659
     16 F          -0.7211    4.3975   18.8412 F       1  UNL1       -0.1659
     17 C           3.5388    1.0712   23.3901 C.3     1  UNL1        0.0801
     18 N           3.7125   -0.1763   22.5755 N.3     1  UNL1       -0.2703
     19 C           3.5366   -0.1305   21.0866 C.3     1  UNL1        0.0726
     20 C           3.7103   -1.3780   20.2721 C.3     1  UNL1        0.0259
     21 C           4.0600   -2.6714   20.9465 C.3     1  UNL1        0.0979
     22 C           4.2360   -2.7173   22.4355 C.3     1  UNL1        0.0259
     23 C           4.0623   -1.4697   23.2500 C.3     1  UNL1        0.0726
     24 C           4.2337   -3.9190   20.1320 C.3     1  UNL1        0.3976
     25 F           4.4074   -5.1665   19.3175 F       1  UNL1       -0.1701
     26 F           5.4755   -4.2508   20.9051 F       1  UNL1       -0.1701
     27 F           2.9919   -3.5871   19.3588 F       1  UNL1       -0.1701
     28 C           4.4431    2.2464   23.1642 C.3     1  UNL1        0.0205
     29 C           6.0532    1.7570   24.4558 C.3     1  UNL1        0.0001
     30 C           5.1089    2.9156   24.3300 C.3     1  UNL1        0.0016
     31 C           4.1645    4.0741   24.2043 C.3     1  UNL1        0.0001
     32 C           5.7745    3.5847   25.4958 C.3     1  UNL1        0.0001
     33 C          -0.7737    1.3606   27.5517 C.3     1  UNL1        0.0679
     34 C          -0.7665    0.4039   28.7070 C.2     1  UNL1        0.0547
     35 O          -0.0128    0.7447   29.9583 O.co2   1  UNL1       -0.5488
     36 O          -1.5130   -0.8937   28.6109 O.co2   1  UNL1       -0.5488
@<TRIPOS>UNITY_ATOM_ATTR
35 1
charge -1
@<TRIPOS>BOND
     1    29    30    1
     2    30    31    1
     3    30    32    1
     4    30    28    1
     5    28    17    1
     6    17     1    1
     7     1     2   ar
     8     2     3   ar
     9     3     4   ar
    10     4    33    1
    11    33    34    1
    12    34    35   ar
    13    34    36   ar
    14     4     5   ar
    15     5     6   ar
    16     6     7    1
    17     7     8   ar
    18     8     9   ar
    19     9    10   ar
    20    10    13    1
    21    13    14    1
    22    13    15    1
    23    13    16    1
    24    10    11   ar
    25    11    12   ar
    26    17    18    1
    27    18    19    1
    28    19    20    1
    29    20    21    1
    30    21    24    1
    31    24    25    1
    32    24    26    1
    33    24    27    1
    34    21    22    1
    35    22    23    1
    36     6     1   ar
    37    12     7   ar
    38    23    18    1
@<TRIPOS>MOLECULE
*****
 36 38 0 0 0
SMALL
GASTEIGER

@<TRIPOS>ATOM
      1 C          -6.9112  -17.5768   23.0551 C.ar    1  UNL1       -0.0078
      2 C          -5.5858  -18.0520   23.5722 C.ar    1  UNL1       -0.0033
      3 C          -4.6619  -18.8197   22.6739 C.ar    1  UNL1       -0.0042
      4 C          -5.0634  -19.1122   21.2586 C.ar    1  UNL1       -0.0166
      5 C          -6.3888  -18.6370   20.7415 C.ar    1  UNL1       -0.0042
      6 C          -7.3127  -17.8693   21.6397 C.ar    1  UNL1       -0.0030
      7 C          -8.6382  -17.3940   21.1226 C.ar    1  UNL1       -0.0003
      8 C          -9.7085  -18.3868   20.7780 C.ar    1  UNL1       -0.0001
      9 C         -11.0339  -17.9116   20.2609 C.ar    1  UNL1        0.0039
     10 C         -11.2891  -16.4435   20.0885 C.ar    1  UNL1        0.0714
     11 C         -10.2188  -15.4507   20.4331 C.ar    1  UNL1        0.0039
     12 C          -8.8933  -15.9260   20.9502 C.ar    1  UNL1       -0.0001
     13 C         -12.6145  -15.9683   19.5714 C.3     1  UNL1        0.4186
     14 F         -13.9399  -15.4931   19.0543 F       1  UNL1       -0.1659
     15 F         -13.3115  -16.7245   20.6632 F       1  UNL1       -0.1659
     16 F         -11.9174  -15.2120   18.4796 F       1  UNL1       -0.1659
     17 C          -7.8352  -16.8090   23.9534 C.3     1  UNL1        0.0801
     18 N          -9.2830  -17.1910   24.0431 N.3     1  UNL1       -0.2703
     19 C         -10.3449  -16.1985   23.6728 C.3     1  UNL1        0.0726
     20 C         -11.7926  -16.5805   23.7625 C.3     1  UNL1        0.0259
     21 C         -12.1785  -17.9551   24.2225 C.3     1  UNL1        0.0979
     22 C         -11.1166  -18.9477   24.5927 C.3     1  UNL1        0.0259
     23 C          -9.6688  -18.5657   24.5030 C.3     1  UNL1        0.0726
     24 C         -13.6263  -18.3371   24.3122 C.3     1  UNL1        0.3976
     25 F         -15.0740  -18.7191   24.4019 F       1  UNL1       -0.1701
     26 F         -13.7879  -18.0688   22.8452 F       1  UNL1       -0.1701
     27 F         -13.4646  -18.6054   25.7791 F       1  UNL1       -0.1701
     28 C          -7.3114  -15.6593   24.7619 C.3     1  UNL1        0.0205
     29 C          -5.4516  -15.6357   25.7821 C.3     1  UNL1        0.0001
     30 C          -6.8773  -15.8766   26.1812 C.3     1  UNL1        0.0016
     31 C          -8.3030  -16.1176   26.5803 C.3     1  UNL1        0.0001
     32 C          -6.4432  -16.0940   27.6004 C.3     1  UNL1        0.0001
     33 C          -4.1394  -19.8800   20.3603 C.3     1  UNL1        0.0679
     34 C          -2.6643  -19.6103   20.3947 C.2     1  UNL1        0.0547
     35 O          -1.7969  -20.3106   21.3983 O.co2   1  UNL1       -0.5488
     36 O          -2.0564  -18.6402   19.4253 O.co2   1  UNL1       -0.5488
@<TRIPOS>UNITY_ATOM_ATTR
35 1
charge -1
@<TRIPOS>BOND
     1    29    30    1
     2    30    31    1
     3    30    32    1
     4    30    28    1
     5    28    17    1
     6    17     1    1
     7     1     2   ar
     8     2     3   ar
     9     3     4   ar
    10     4    33    1
    11    33    34    1
    12    34    35   ar
    13    34    36   ar
    14     4     5   ar
    15     5     6   ar
    16     6     7    1
    17     7     8   ar
    18     8     9   ar
    19     9    10   ar
    20    10    13    1
    21    13    14    1
    22    13    15    1
    23    13    16    1
    24    10    11   ar
    25    11    12   ar
    26    17    18    1
    27    18    19    1
    28    19    20    1
    29    20    21    1
    30    21    24    1
    31    24    25    1
    32    24    26    1
    33    24    27    1
    34    21    22    1
    35    22    23    1
    36     6     1   ar
    37    12     7   ar
    38    23    18    1
@<TRIPOS>MOLECULE
*****
 36 38 0 0 0
SMALL
GASTEIGER

@<TRIPOS>ATOM
      1 C           4.5217    0.1639   24.2484 C.ar    1  UNL1       -0.0078
      2 C           4.2578    1.1959   25.3044 C.ar    1  UNL1       -0.0033
      3 C           2.8499    1.6143   25.6090 C.ar    1  UNL1       -0.0042
      4 C           1.7059    1.0006   24.8574 C.ar    1  UNL1       -0.0166
      5 C           1.9698   -0.0313   23.8014 C.ar    1  UNL1       -0.0042
      6 C           3.3777   -0.4497   23.4969 C.ar    1  UNL1       -0.0030
      7 C           3.6417   -1.4818   22.4407 C.ar    1  UNL1       -0.0003
      8 C           4.2798   -2.7878   22.8112 C.ar    1  UNL1       -0.0001
      9 C           4.5438   -3.8198   21.7552 C.ar    1  UNL1        0.0039
     10 C           4.1697   -3.5458   20.3286 C.ar    1  UNL1        0.0714
     11 C           3.5316   -2.2398   19.9581 C.ar    1  UNL1        0.0039
     12 C           3.2676   -1.2078   21.0142 C.ar    1  UNL1       -0.0001
     13 C           4.4337   -4.5778   19.2726 C.3     1  UNL1        0.4186
     14 F           4.6977   -5.6099   18.2166 F       1  UNL1       -0.1659
     15 F           5.8835   -4.5998   19.6566 F       1  UNL1       -0.1659
     16 F           2.9838   -4.5559   18.8887 F       1  UNL1       -0.1659
     17 C           5.9296   -0.2545   23.9438 C.3     1  UNL1        0.0801
     18 N           6.4962   -1.4936   24.5713 N.3     1  UNL1       -0.2703
     19 C           7.6507   -2.2007   23.9256 C.3     1  UNL1        0.0726
     20 C           8.2172   -3.4397   24.5531 C.3     1  UNL1        0.0259
     21 C           7.6293   -3.9717   25.8264 C.3     1  UNL1        0.0979
     22 C           6.4747   -3.2646   26.4722 C.3     1  UNL1        0.0259
     23 C           5.9081   -2.0255   25.8447 C.3     1  UNL1        0.0726
     24 C           8.1958   -5.2107   26.4539 C.3     1  UNL1        0.3976
     25 F           8.7624   -6.4498   27.0814 F       1  UNL1       -0.1701
     26 F           7.0866   -6.0222   25.8530 F       1  UNL1       -0.1701
     27 F           9.3051   -4.3992   27.0547 F       1  UNL1       -0.1701
     28 C           6.7710    0.5661   23.0118 C.3     1  UNL1        0.0205
     29 C           5.7443    2.1750   22.0858 C.3     1  UNL1        0.0001
     30 C           6.2863    0.8555   21.6220 C.3     1  UNL1        0.0016
     31 C           6.8283   -0.4640   21.1583 C.3     1  UNL1        0.0001
     32 C           5.8016    1.1449   20.2323 C.3     1  UNL1        0.0001
     33 C           0.2980    1.4191   25.1620 C.3     1  UNL1        0.0679
     34 C          -0.0963    1.7566   26.5693 C.2     1  UNL1        0.0547
     35 O          -0.5734    0.6764   27.4941 O.co2   1  UNL1       -0.5488
     36 O          -0.0136    3.1746   27.0518 O.co2   1  UNL1       -0.5488
@<TRIPOS>UNITY_ATOM_ATTR
35 1
charge -1
@<TRIPOS>BOND
     1    29    30    1
     2    30    31    1
     3    30    32    1
     4    30    28    1
     5    28    17    1
     6    17     1    1
     7     1     2   ar
     8     2     3   ar
     9     3     4   ar
    10     4    33    1
    11    33    34    1
    12    34    35   ar
    13    34    36   ar
    14     4     5   ar
    15     5     6   ar
    16     6     7    1
    17     7     8   ar
    18     8     9   ar
    19     9    10   ar
    20    10    13    1
    21    13    14    1
    22    13    15    1
    23    13    16    1
    24    10    11   ar
    25    11    12   ar
    26    17    18    1
    27    18    19    1
    28    19    20    1
    29    20    21    1
    30    21    24    1
    31    24    25    1
    32    24    26    1
    33    24    27    1
    34    21    22    1
    35    22    23    1
    36     6     1   ar
    37    12     7   ar
    38    23    18    1
@<TRIPOS>MOLECULE
*****
 36 38 0 0 0
SMALL
GASTEIGER

@<TRIPOS>ATOM
      1 C           0.1393    3.0790   23.3854 C.ar    1  UNL1       -0.0078
      2 C          -0.5243    3.8990   24.4518 C.ar    1  UNL1       -0.0033
      3 C          -0.8203    3.2905   25.7904 C.ar    1  UNL1       -0.0042
      4 C          -0.4527    1.8619   26.0627 C.ar    1  UNL1       -0.0166
      5 C           0.2109    1.0419   24.9963 C.ar    1  UNL1       -0.0042
      6 C           0.5069    1.6504   23.6577 C.ar    1  UNL1       -0.0030
      7 C           1.1705    0.8304   22.5913 C.ar    1  UNL1       -0.0003
      8 C           2.5755    0.3424   22.7859 C.ar    1  UNL1       -0.0001
      9 C           3.2392   -0.4776   21.7195 C.ar    1  UNL1        0.0039
     10 C           2.4978   -0.8096   20.4585 C.ar    1  UNL1        0.0714
     11 C           1.0928   -0.3216   20.2638 C.ar    1  UNL1        0.0039
     12 C           0.4292    0.4984   21.3303 C.ar    1  UNL1       -0.0001
     13 C           3.1615   -1.6296   19.3921 C.3     1  UNL1        0.4186
     14 F           3.8251   -2.4496   18.3258 F       1  UNL1       -0.1659
     15 F           2.8100   -0.5876   18.3721 F       1  UNL1       -0.1659
     16 F           3.5130   -2.6716   20.4122 F       1  UNL1       -0.1659
     17 C           0.4354    3.6875   22.0467 C.3     1  UNL1        0.0801
     18 N          -0.6458    3.7851   21.0116 N.3     1  UNL1       -0.2703
     19 C          -2.0377    3.3293   21.3356 C.3     1  UNL1        0.0726
     20 C          -3.1189    3.4269   20.3005 C.3     1  UNL1        0.0259
     21 C          -2.8083    3.9804   18.9414 C.3     1  UNL1        0.0979
     22 C          -1.4164    4.4362   18.6173 C.3     1  UNL1        0.0259
     23 C          -0.3352    4.3386   19.6524 C.3     1  UNL1        0.0726
     24 C          -3.8895    4.0780   17.9063 C.3     1  UNL1        0.3976
     25 F          -4.9708    4.1756   16.8712 F       1  UNL1       -0.1701
     26 F          -2.9747    4.8769   17.0261 F       1  UNL1       -0.1701
     27 F          -4.8044    3.2791   18.7866 F       1  UNL1       -0.1701
     28 C           1.8126    4.1983   21.7431 C.3     1  UNL1        0.0205
     29 C           3.4500    3.9819   23.0744 C.3     1  UNL1        0.0001
     30 C           2.5115    5.0970   22.7199 C.3     1  UNL1        0.0016
     31 C           1.5730    6.2121   22.3653 C.3     1  UNL1        0.0001
     32 C           3.2103    5.9957   23.6966 C.3     1  UNL1        0.0001
     33 C          -0.7488    1.2534   27.4014 C.3     1  UNL1        0.0679
     34 C           0.3746    0.9105   28.3343 C.2     1  UNL1        0.0547
     35 O           0.1626   -0.0971   29.4251 O.co2   1  UNL1       -0.5488
     36 O           1.7100    1.5752   28.1765 O.co2   1  UNL1       -0.5488
@<TRIPOS>UNITY_ATOM_ATTR
35 1
charge -1
@<TRIPOS>BOND
     1    29    30    1
     2    30    31    1
     3    30    32    1
     4    30    28    1
     5    28    17    1
     6    17     1    1
     7     1     2   ar
     8     2     3   ar
     9     3     4   ar
    10     4    33    1
    11    33    34    1
    12    34    35   ar
    13    34    36   ar
    14     4     5   ar
    15     5     6   ar
    16     6     7    1
    17     7     8   ar
    18     8     9   ar
    19     9    10   ar
    20    10    13    1
    21    13    14    1
    22    13    15    1
    23    13    16    1
    24    10    11   ar
    25    11    12   ar
    26    17    18    1
    27    18    19    1
    28    19    20    1
    29    20    21    1
    30    21    24    1
    31    24    25    1
    32    24    26    1
    33    24    27    1
    34    21    22    1
    35    22    23    1
    36     6     1   ar
    37    12     7   ar
    38    23    18    1
@<TRIPOS>MOLECULE
*****
 36 38 0 0 0
SMALL
GASTEIGER

@<TRIPOS>ATOM
      1 C           4.3079    0.7953   23.9724 C.ar    1  UNL1       -0.0078
      2 C           4.1792    1.7191   25.1472 C.ar    1  UNL1       -0.0033
      3 C           3.7441    1.1829   26.4787 C.ar    1  UNL1       -0.0042
      4 C           3.4377   -0.2771   26.6356 C.ar    1  UNL1       -0.0166
      5 C           3.5664   -1.2009   25.4609 C.ar    1  UNL1       -0.0042
      6 C           4.0015   -0.6647   24.1293 C.ar    1  UNL1       -0.0030
      7 C           4.1302   -1.5884   22.9545 C.ar    1  UNL1       -0.0003
      8 C           3.2584   -1.3951   21.7493 C.ar    1  UNL1       -0.0001
      9 C           3.3870   -2.3188   20.5745 C.ar    1  UNL1        0.0039
     10 C           4.3877   -3.4359   20.6049 C.ar    1  UNL1        0.0714
     11 C           5.2596   -3.6293   21.8100 C.ar    1  UNL1        0.0039
     12 C           5.1308   -2.7055   22.9849 C.ar    1  UNL1       -0.0001
     13 C           4.5164   -4.3596   19.4301 C.3     1  UNL1        0.4186
     14 F           4.6451   -5.2834   18.2553 F       1  UNL1       -0.1659
     15 F           5.9781   -4.5270   19.7218 F       1  UNL1       -0.1659
     16 F           3.0546   -4.1923   19.1384 F       1  UNL1       -0.1659
     17 C           4.7430    1.3315   22.6408 C.3     1  UNL1        0.0801
     18 N           3.7205    1.6536   21.5916 N.3     1  UNL1       -0.2703
     19 C           4.0937    1.6016   20.1397 C.3     1  UNL1        0.0726
     20 C           3.0713    1.9236   19.0905 C.3     1  UNL1        0.0259
     21 C           1.6756    2.2977   19.4931 C.3     1  UNL1        0.0979
     22 C           1.3023    2.3497   20.9451 C.3     1  UNL1        0.0259
     23 C           2.3248    2.0277   21.9943 C.3     1  UNL1        0.0726
     24 C           0.6531    2.6198   18.4439 C.3     1  UNL1        0.3976
     25 F          -0.3693    2.9418   17.3947 F       1  UNL1       -0.1701
     26 F           0.5523    4.0201   18.9721 F       1  UNL1       -0.1701
     27 F           0.7540    1.2194   17.9158 F       1  UNL1       -0.1701
     28 C           6.2005    1.5456   22.3584 C.3     1  UNL1        0.0205
     29 C           7.5063    0.9382   23.9160 C.3     1  UNL1        0.0001
     30 C           7.1744    0.4205   22.5479 C.3     1  UNL1        0.0016
     31 C           6.8424   -0.0971   21.1797 C.3     1  UNL1        0.0001
     32 C           8.1482   -0.7045   22.7373 C.3     1  UNL1        0.0001
     33 C           3.0026   -0.8133   27.9673 C.3     1  UNL1        0.0679
     34 C           1.7581   -0.2860   28.6178 C.2     1  UNL1        0.0547
     35 O           1.5564   -0.4508   30.0950 O.co2   1  UNL1       -0.5488
     36 O           0.7152    0.4062   27.7911 O.co2   1  UNL1       -0.5488
@<TRIPOS>UNITY_ATOM_ATTR
35 1
charge -1
@<TRIPOS>BOND
     1    29    30    1
     2    30    31    1
     3    30    32    1
     4    30    28    1
     5    28    17    1
     6    17     1    1
     7     1     2   ar
     8     2     3   ar
     9     3     4   ar
    10     4    33    1
    11    33    34    1
    12    34    35   ar
    13    34    36   ar
    14     4     5   ar
    15     5     6   ar
    16     6     7    1
    17     7     8   ar
    18     8     9   ar
    19     9    10   ar
    20    10    13    1
    21    13    14    1
    22    13    15    1
    23    13    16    1
    24    10    11   ar
    25    11    12   ar
    26    17    18    1
    27    18    19    1
    28    19    20    1
    29    20    21    1
    30    21    24    1
    31    24    25    1
    32    24    26    1
    33    24    27    1
    34    21    22    1
    35    22    23    1
    36     6     1   ar
    37    12     7   ar
    38    23    18    1
@<TRIPOS>MOLECULE
*****
 36 38 0 0 0
SMALL
GASTEIGER

@<TRIPOS>ATOM
      1 C           3.5174   -0.2012   23.0469 C.ar    1  UNL1       -0.0078
      2 C           4.3832   -1.2381   23.6992 C.ar    1  UNL1       -0.0033
      3 C           4.7497   -2.4865   22.9529 C.ar    1  UNL1       -0.0042
      4 C           4.2504   -2.6981   21.5543 C.ar    1  UNL1       -0.0166
      5 C           3.3847   -1.6613   20.9021 C.ar    1  UNL1       -0.0042
      6 C           3.0182   -0.4129   21.6484 C.ar    1  UNL1       -0.0030
      7 C           2.1525    0.6240   20.9961 C.ar    1  UNL1       -0.0003
      8 C           0.6693    0.6115   21.2201 C.ar    1  UNL1       -0.0001
      9 C          -0.1964    1.6483   20.5679 C.ar    1  UNL1        0.0039
     10 C           0.4209    2.6977   19.6916 C.ar    1  UNL1        0.0714
     11 C           1.9041    2.7102   19.4676 C.ar    1  UNL1        0.0039
     12 C           2.7698    1.6733   20.1199 C.ar    1  UNL1       -0.0001
     13 C          -0.4448    3.7345   19.0394 C.3     1  UNL1        0.4186
     14 F          -1.3106    4.7713   18.3872 F       1  UNL1       -0.1659
     15 F          -0.4470    2.9345   17.7706 F       1  UNL1       -0.1659
     16 F          -0.4426    4.5345   20.3082 F       1  UNL1       -0.1659
     17 C           3.1509    1.0473   23.7932 C.3     1  UNL1        0.0801
     18 N           2.1170    0.9959   24.8787 N.3     1  UNL1       -0.2703
     19 C           2.5114    0.6055   26.2723 C.3     1  UNL1        0.0726
     20 C           1.4774    0.5541   27.3578 C.3     1  UNL1        0.0259
     21 C           0.0491    0.8933   27.0498 C.3     1  UNL1        0.0979
     22 C          -0.3453    1.2837   25.6562 C.3     1  UNL1        0.0259
     23 C           0.6886    1.3351   24.5707 C.3     1  UNL1        0.0726
     24 C          -0.9848    0.8419   28.1353 C.3     1  UNL1        0.3976
     25 F          -2.0187    0.7906   29.2209 F       1  UNL1       -0.1701
     26 F          -1.6722    2.0333   27.5370 F       1  UNL1       -0.1701
     27 F          -0.2974   -0.3495   28.7337 F       1  UNL1       -0.1701
     28 C           3.8183    2.3471   23.4540 C.3     1  UNL1        0.0205
     29 C           5.3726    2.5192   22.0206 C.3     1  UNL1        0.0001
     30 C           5.3125    2.4622   23.5183 C.3     1  UNL1        0.0016
     31 C           5.2524    2.4051   25.0159 C.3     1  UNL1        0.0001
     32 C           6.8067    2.5773   23.5826 C.3     1  UNL1        0.0001
     33 C           4.6170   -3.9467   20.8080 C.3     1  UNL1        0.0679
     34 C           4.2540   -4.0886   19.3596 C.2     1  UNL1        0.0547
     35 O           5.2231   -3.6600   18.2980 O.co2   1  UNL1       -0.5488
     36 O           2.9217   -4.6590   18.9727 O.co2   1  UNL1       -0.5488
@<TRIPOS>UNITY_ATOM_ATTR
35 1
charge -1
@<TRIPOS>BOND
     1    29    30    1
     2    30    31    1
     3    30    32    1
     4    30    28    1
     5    28    17    1
     6    17     1    1
     7     1     2   ar
     8     2     3   ar
     9     3     4   ar
    10     4    33    1
    11    33    34    1
    12    34    35   ar
    13    34    36   ar
    14     4     5   ar
    15     5     6   ar
    16     6     7    1
    17     7     8   ar
    18     8     9   ar
    19     9    10   ar
    20    10    13    1
    21    13    14    1
    22    13    15    1
    23    13    16    1
    24    10    11   ar
    25    11    12   ar
    26    17    18    1
    27    18    19    1
    28    19    20    1
    29    20    21    1
    30    21    24    1
    31    24    25    1
    32    24    26    1
    33    24    27    1
    34    21    22    1
    35    22    23    1
    36     6     1   ar
    37    12     7   ar
    38    23    18    1
