@<TRIPOS>MOLECULE
*****
 27 29 0 0 0
SMALL
GASTEIGER

@<TRIPOS>ATOM
      1 N          -8.3830  -17.0646   22.7324 N.pl3   1  UNL1       -0.3037
      2 C          -9.7968  -17.3935   23.1105 C.ar    1  UNL1        0.0490
      3 C         -10.0740  -18.4934   24.0921 C.ar    1  UNL1        0.0153
      4 C         -11.4878  -18.8224   24.4702 C.ar    1  UNL1        0.0124
      5 C         -12.6243  -18.0515   23.8667 C.ar    1  UNL1        0.0791
      6 C         -12.3470  -16.9517   22.8852 C.ar    1  UNL1        0.0685
      7 CL        -13.4835  -16.1808   22.2817 Cl      1  UNL1       -0.0815
      8 C         -10.9332  -16.6227   22.5071 C.ar    1  UNL1        0.0266
      9 C         -14.0381  -18.3805   24.2448 C.1     1  UNL1        0.1013
     10 N         -15.4519  -18.7095   24.6228 N.1     1  UNL1       -0.1908
     11 C          -7.5875  -18.0234   21.8969 C.3     1  UNL1        0.0922
     12 C          -8.1428  -18.9830   20.8865 C.3     1  UNL1        0.0403
     13 C          -6.9957  -19.7436   20.2903 C.3     1  UNL1        0.0972
     14 N          -5.7314  -19.2541   20.9322 N.3     1  UNL1       -0.1576
     15 C          -6.0972  -18.1909   21.9252 C.3     1  UNL1        0.1151
     16 S          -4.3448  -19.7420   20.6335 S.O2    1  UNL1        0.0457
     17 C          -2.9582  -20.2300   20.3349 C.3     1  UNL1        0.1960
     18 O          -3.7785  -18.4599   21.1678 O.2     1  UNL1       -0.1572
     19 O          -4.9110  -21.0242   20.0993 O.2     1  UNL1       -0.1572
     20 C          -7.7646  -15.7768   23.1898 C.3     1  UNL1        0.1174
     21 C          -4.8964  -15.5029   24.0256 C.3     1  UNL1        0.0308
     22 C          -5.9862  -15.4456   25.0547 C.ar    1  UNL1       -0.0242
     23 C          -5.6419  -15.2512   26.5016 C.ar    1  UNL1       -0.0045
     24 C          -6.7318  -15.1938   27.5307 C.ar    1  UNL1       -0.0003
     25 C          -8.1658  -15.3308   27.1129 C.ar    1  UNL1       -0.0003
     26 C          -8.5101  -15.5251   25.6659 C.ar    1  UNL1       -0.0029
     27 C          -7.4202  -15.5825   24.6368 C.ar    1  UNL1       -0.0064
@<TRIPOS>BOND
     1    21    22    1
     2    22    23   ar
     3    23    24   ar
     4    24    25   ar
     5    25    26   ar
     6    26    27   ar
     7    27    20    1
     8    20     1    1
     9     1     2    1
    10     2     3   ar
    11     3     4   ar
    12     4     5   ar
    13     5     9    1
    14     9    10    3
    15     5     6   ar
    16     6     7    1
    17     6     8   ar
    18    11     1    1
    19    11    12    1
    20    12    13    1
    21    13    14    1
    22    14    16    1
    23    16    17    1
    24    16    18    2
    25    16    19    2
    26    14    15    1
    27    27    22   ar
    28     8     2   ar
    29    15    11    1
@<TRIPOS>MOLECULE
*****
 27 29 0 0 0
SMALL
GASTEIGER

@<TRIPOS>ATOM
      1 N          -7.8020  -18.7985   21.3773 N.pl3   1  UNL1       -0.3037
      2 C          -7.9650  -18.0118   22.6441 C.ar    1  UNL1        0.0490
      3 C          -9.0121  -18.4071   23.6428 C.ar    1  UNL1        0.0153
      4 C          -9.1751  -17.6205   24.9096 C.ar    1  UNL1        0.0124
      5 C          -8.2911  -16.4386   25.1776 C.ar    1  UNL1        0.0791
      6 C          -7.2441  -16.0434   24.1788 C.ar    1  UNL1        0.0685
      7 CL         -6.3600  -14.8616   24.4468 Cl      1  UNL1       -0.0815
      8 C          -7.0810  -16.8301   22.9121 C.ar    1  UNL1        0.0266
      9 C          -8.4541  -15.6520   26.4443 C.1     1  UNL1        0.1013
     10 N          -8.6172  -14.8654   27.7111 N.1     1  UNL1       -0.1908
     11 C          -6.4455  -19.2940   20.9715 C.3     1  UNL1        0.0922
     12 C          -6.1256  -20.6665   20.4579 C.3     1  UNL1        0.0403
     13 C          -4.6533  -20.7248   20.1771 C.3     1  UNL1        0.0972
     14 N          -4.0632  -19.3883   20.5172 N.3     1  UNL1       -0.1576
     15 C          -5.1710  -18.5040   21.0083 C.3     1  UNL1        0.1151
     16 S          -2.6191  -19.0037   20.3889 S.O2    1  UNL1        0.0457
     17 C          -1.1750  -18.6190   20.2606 C.3     1  UNL1        0.1960
     18 O          -2.2274  -20.2042   21.1983 O.2     1  UNL1       -0.1572
     19 O          -3.0108  -17.8031   19.5794 O.2     1  UNL1       -0.1572
     20 C          -8.9953  -19.0895   20.5164 C.3     1  UNL1        0.1174
     21 C         -11.3564  -20.2711   21.9409 C.3     1  UNL1        0.0308
     22 C         -11.4322  -18.8772   21.3918 C.ar    1  UNL1       -0.0242
     23 C         -12.6885  -18.0742   21.5550 C.ar    1  UNL1       -0.0045
     24 C         -12.7644  -16.6803   21.0060 C.ar    1  UNL1       -0.0003
     25 C         -11.5839  -16.0895   20.2937 C.ar    1  UNL1       -0.0003
     26 C         -10.3275  -16.8926   20.1305 C.ar    1  UNL1       -0.0029
     27 C         -10.2517  -18.2864   20.6796 C.ar    1  UNL1       -0.0064
@<TRIPOS>BOND
     1    21    22    1
     2    22    23   ar
     3    23    24   ar
     4    24    25   ar
     5    25    26   ar
     6    26    27   ar
     7    27    20    1
     8    20     1    1
     9     1     2    1
    10     2     3   ar
    11     3     4   ar
    12     4     5   ar
    13     5     9    1
    14     9    10    3
    15     5     6   ar
    16     6     7    1
    17     6     8   ar
    18    11     1    1
    19    11    12    1
    20    12    13    1
    21    13    14    1
    22    14    16    1
    23    16    17    1
    24    16    18    2
    25    16    19    2
    26    14    15    1
    27    27    22   ar
    28     8     2   ar
    29    15    11    1
@<TRIPOS>MOLECULE
*****
 27 29 0 0 0
SMALL
GASTEIGER

@<TRIPOS>ATOM
      1 N          -8.3792  -17.3104   22.7049 N.pl3   1  UNL1       -0.3037
      2 C          -9.7936  -17.5733   23.1296 C.ar    1  UNL1        0.0490
      3 C         -10.0915  -18.6728   24.1057 C.ar    1  UNL1        0.0153
      4 C         -11.5059  -18.9357   24.5304 C.ar    1  UNL1        0.0124
      5 C         -12.6223  -18.0991   23.9791 C.ar    1  UNL1        0.0791
      6 C         -12.3244  -16.9998   23.0031 C.ar    1  UNL1        0.0685
      7 CL        -13.4409  -16.1633   22.4518 Cl      1  UNL1       -0.0815
      8 C         -10.9100  -16.7369   22.5784 C.ar    1  UNL1        0.0266
      9 C         -14.0367  -18.3621   24.4039 C.1     1  UNL1        0.1013
     10 N         -15.4511  -18.6250   24.8286 N.1     1  UNL1       -0.1908
     11 C          -7.6451  -18.3215   21.8749 C.3     1  UNL1        0.0922
     12 C          -6.1699  -18.5900   21.9132 C.3     1  UNL1        0.0403
     13 C          -5.8704  -19.6760   20.9229 C.3     1  UNL1        0.0972
     14 N          -7.1607  -20.0788   20.2724 N.3     1  UNL1       -0.1576
     15 C          -8.2576  -19.2416   20.8608 C.3     1  UNL1        0.1151
     16 S          -7.3252  -21.1335   19.2186 S.O2    1  UNL1        0.0457
     17 C          -7.4897  -22.1882   18.1648 C.3     1  UNL1        0.1960
     18 O          -6.1116  -21.8441   19.7403 O.2     1  UNL1       -0.1572
     19 O          -8.5388  -20.4229   18.6968 O.2     1  UNL1       -0.1572
     20 C          -7.6989  -16.0365   23.1101 C.3     1  UNL1        0.1174
     21 C          -4.8506  -15.7882   24.0185 C.3     1  UNL1        0.0308
     22 C          -5.9684  -15.6526   25.0095 C.ar    1  UNL1       -0.0242
     23 C          -5.6620  -15.3928   26.4547 C.ar    1  UNL1       -0.0045
     24 C          -6.7799  -15.2572   27.4457 C.ar    1  UNL1       -0.0003
     25 C          -8.2040  -15.3813   26.9916 C.ar    1  UNL1       -0.0003
     26 C          -8.5103  -15.6411   25.5464 C.ar    1  UNL1       -0.0029
     27 C          -7.3925  -15.7767   24.5554 C.ar    1  UNL1       -0.0064
@<TRIPOS>BOND
     1    21    22    1
     2    22    23   ar
     3    23    24   ar
     4    24    25   ar
     5    25    26   ar
     6    26    27   ar
     7    27    20    1
     8    20     1    1
     9     1     2    1
    10     2     3   ar
    11     3     4   ar
    12     4     5   ar
    13     5     9    1
    14     9    10    3
    15     5     6   ar
    16     6     7    1
    17     6     8   ar
    18    11     1    1
    19    11    12    1
    20    12    13    1
    21    13    14    1
    22    14    16    1
    23    16    17    1
    24    16    18    2
    25    16    19    2
    26    14    15    1
    27    27    22   ar
    28     8     2   ar
    29    15    11    1
@<TRIPOS>MOLECULE
*****
 27 29 0 0 0
SMALL
GASTEIGER

@<TRIPOS>ATOM
      1 N          -8.5747  -16.9855   22.2622 N.pl3   1  UNL1       -0.3037
      2 C          -9.9694  -17.2979   22.7175 C.ar    1  UNL1        0.0490
      3 C         -11.1351  -16.5687   22.1178 C.ar    1  UNL1        0.0153
      4 C         -12.5298  -16.8812   22.5731 C.ar    1  UNL1        0.0124
      5 C         -12.7588  -17.9228   23.6279 C.ar    1  UNL1        0.0791
      6 C         -11.5931  -18.6519   24.2275 C.ar    1  UNL1        0.0685
      7 CL        -11.8221  -19.6935   25.2824 Cl      1  UNL1       -0.0815
      8 C         -10.1984  -18.3395   23.7723 C.ar    1  UNL1        0.0266
      9 C         -14.1535  -18.2352   24.0832 C.1     1  UNL1        0.1013
     10 N         -15.5482  -18.5477   24.5384 N.1     1  UNL1       -0.1908
     11 C          -7.8139  -17.9816   21.4383 C.3     1  UNL1        0.0922
     12 C          -8.3895  -18.8697   20.3753 C.3     1  UNL1        0.0403
     13 C          -7.2752  -19.7015   19.8127 C.3     1  UNL1        0.0972
     14 N          -6.0109  -19.3275   20.5281 N.3     1  UNL1       -0.1576
     15 C          -6.3438  -18.2645   21.5328 C.3     1  UNL1        0.1151
     16 S          -4.6522  -19.9136   20.2820 S.O2    1  UNL1        0.0457
     17 C          -3.2936  -20.4996   20.0359 C.3     1  UNL1        0.1960
     18 O          -4.0350  -18.5584   20.4623 O.2     1  UNL1       -0.1572
     19 O          -5.2694  -21.2687   20.1017 O.2     1  UNL1       -0.1572
     20 C          -7.9409  -15.6769   22.6309 C.3     1  UNL1        0.1174
     21 C          -9.2934  -15.2976   25.2818 C.3     1  UNL1        0.0308
     22 C          -7.7974  -15.3772   25.2077 C.ar    1  UNL1       -0.0242
     23 C          -6.9776  -15.2671   26.4590 C.ar    1  UNL1       -0.0045
     24 C          -5.4815  -15.3467   26.3849 C.ar    1  UNL1       -0.0003
     25 C          -4.8053  -15.5364   25.0595 C.ar    1  UNL1       -0.0003
     26 C          -5.6251  -15.6464   23.8082 C.ar    1  UNL1       -0.0029
     27 C          -7.1211  -15.5669   23.8823 C.ar    1  UNL1       -0.0064
@<TRIPOS>BOND
     1    21    22    1
     2    22    23   ar
     3    23    24   ar
     4    24    25   ar
     5    25    26   ar
     6    26    27   ar
     7    27    20    1
     8    20     1    1
     9     1     2    1
    10     2     3   ar
    11     3     4   ar
    12     4     5   ar
    13     5     9    1
    14     9    10    3
    15     5     6   ar
    16     6     7    1
    17     6     8   ar
    18    11     1    1
    19    11    12    1
    20    12    13    1
    21    13    14    1
    22    14    16    1
    23    16    17    1
    24    16    18    2
    25    16    19    2
    26    14    15    1
    27    27    22   ar
    28     8     2   ar
    29    15    11    1
@<TRIPOS>MOLECULE
*****
 27 29 0 0 0
SMALL
GASTEIGER

@<TRIPOS>ATOM
      1 N          -8.0929  -18.3920   21.5603 N.pl3   1  UNL1       -0.3037
      2 C          -8.1499  -17.6149   22.8420 C.ar    1  UNL1        0.0490
      3 C          -7.5430  -16.2451   22.9162 C.ar    1  UNL1        0.0153
      4 C          -7.6000  -15.4679   24.1979 C.ar    1  UNL1        0.0124
      5 C          -8.2641  -16.0605   25.4054 C.ar    1  UNL1        0.0791
      6 C          -8.8710  -17.4302   25.3311 C.ar    1  UNL1        0.0685
      7 CL         -9.5350  -18.0228   26.5386 Cl      1  UNL1       -0.0815
      8 C          -8.8139  -18.2074   24.0494 C.ar    1  UNL1        0.0266
      9 C          -8.3211  -15.2834   26.6871 C.1     1  UNL1        0.1013
     10 N          -8.3782  -14.5062   27.9688 N.1     1  UNL1       -0.1908
     11 C          -6.7999  -19.0070   21.1130 C.3     1  UNL1        0.0922
     12 C          -6.6166  -20.4098   20.6147 C.3     1  UNL1        0.0403
     13 C          -5.1666  -20.5968   20.2792 C.3     1  UNL1        0.0972
     14 N          -4.4537  -19.3095   20.5702 N.3     1  UNL1       -0.1576
     15 C          -5.4632  -18.3269   21.0855 C.3     1  UNL1        0.1151
     16 S          -2.9886  -19.0503   20.3794 S.O2    1  UNL1        0.0457
     17 C          -1.5236  -18.7911   20.1886 C.3     1  UNL1        0.1960
     18 O          -2.6668  -20.2127   21.2711 O.2     1  UNL1       -0.1572
     19 O          -3.3104  -17.8879   19.4876 O.2     1  UNL1       -0.1572
     20 C          -9.3288  -18.5543   20.7259 C.3     1  UNL1        0.1174
     21 C         -10.6095  -15.9713   19.8964 C.3     1  UNL1        0.0308
     22 C         -11.3067  -16.8758   20.8689 C.ar    1  UNL1       -0.0242
     23 C         -12.6443  -16.4889   21.4266 C.ar    1  UNL1       -0.0045
     24 C         -13.3416  -17.3934   22.3990 C.ar    1  UNL1       -0.0003
     25 C         -12.7013  -18.6849   22.8138 C.ar    1  UNL1       -0.0003
     26 C         -11.3637  -19.0718   22.2561 C.ar    1  UNL1       -0.0029
     27 C         -10.6664  -18.1673   21.2836 C.ar    1  UNL1       -0.0064
@<TRIPOS>BOND
     1    21    22    1
     2    22    23   ar
     3    23    24   ar
     4    24    25   ar
     5    25    26   ar
     6    26    27   ar
     7    27    20    1
     8    20     1    1
     9     1     2    1
    10     2     3   ar
    11     3     4   ar
    12     4     5   ar
    13     5     9    1
    14     9    10    3
    15     5     6   ar
    16     6     7    1
    17     6     8   ar
    18    11     1    1
    19    11    12    1
    20    12    13    1
    21    13    14    1
    22    14    16    1
    23    16    17    1
    24    16    18    2
    25    16    19    2
    26    14    15    1
    27    27    22   ar
    28     8     2   ar
    29    15    11    1
@<TRIPOS>MOLECULE
*****
 27 29 0 0 0
SMALL
GASTEIGER

@<TRIPOS>ATOM
      1 N          -6.4138  -17.0566   22.9229 N.pl3   1  UNL1       -0.3037
      2 C          -7.8732  -17.2584   22.6410 C.ar    1  UNL1        0.0490
      3 C          -8.6436  -16.2129   21.8902 C.ar    1  UNL1        0.0153
      4 C         -10.1030  -16.4146   21.6083 C.ar    1  UNL1        0.0124
      5 C         -10.7920  -17.6618   22.0773 C.ar    1  UNL1        0.0791
      6 C         -10.0216  -18.7072   22.8281 C.ar    1  UNL1        0.0685
      7 CL        -10.7107  -19.9544   23.2970 Cl      1  UNL1       -0.0815
      8 C          -8.5622  -18.5055   23.1099 C.ar    1  UNL1        0.0266
      9 C         -12.2514  -17.8636   21.7954 C.1     1  UNL1        0.1013
     10 N         -13.7108  -18.0653   21.5135 N.1     1  UNL1       -0.1908
     11 C          -5.3938  -17.9357   22.2619 C.3     1  UNL1        0.0922
     12 C          -5.5868  -19.3712   21.8722 C.3     1  UNL1        0.0403
     13 C          -4.3140  -19.8562   21.2440 C.3     1  UNL1        0.0972
     14 N          -3.3342  -18.7204   21.2456 N.3     1  UNL1       -0.1576
     15 C          -4.0016  -17.5334   21.8747 C.3     1  UNL1        0.1151
     16 S          -1.9331  -18.7639   20.7117 S.O2    1  UNL1        0.0457
     17 C          -0.5320  -18.8075   20.1779 C.3     1  UNL1        0.1960
     18 O          -2.1249  -17.4089   20.0978 O.2     1  UNL1       -0.1572
     19 O          -1.7412  -20.1190   21.3257 O.2     1  UNL1       -0.1572
     20 C          -5.9744  -15.9759   23.8657 C.3     1  UNL1        0.1174
     21 C          -4.6267  -16.3320   26.5222 C.3     1  UNL1        0.0308
     22 C          -6.0643  -15.9082   26.4614 C.ar    1  UNL1       -0.0242
     23 C          -6.8280  -15.6624   27.7288 C.ar    1  UNL1       -0.0045
     24 C          -8.2656  -15.2386   27.6679 C.ar    1  UNL1       -0.0003
     25 C          -8.9395  -15.0605   26.3397 C.ar    1  UNL1       -0.0003
     26 C          -8.1757  -15.3063   25.0724 C.ar    1  UNL1       -0.0029
     27 C          -6.7382  -15.7301   25.1332 C.ar    1  UNL1       -0.0064
@<TRIPOS>BOND
     1    21    22    1
     2    22    23   ar
     3    23    24   ar
     4    24    25   ar
     5    25    26   ar
     6    26    27   ar
     7    27    20    1
     8    20     1    1
     9     1     2    1
    10     2     3   ar
    11     3     4   ar
    12     4     5   ar
    13     5     9    1
    14     9    10    3
    15     5     6   ar
    16     6     7    1
    17     6     8   ar
    18    11     1    1
    19    11    12    1
    20    12    13    1
    21    13    14    1
    22    14    16    1
    23    16    17    1
    24    16    18    2
    25    16    19    2
    26    14    15    1
    27    27    22   ar
    28     8     2   ar
    29    15    11    1
@<TRIPOS>MOLECULE
*****
 27 29 0 0 0
SMALL
GASTEIGER

@<TRIPOS>ATOM
      1 N          -7.9848  -18.6526   22.5071 N.pl3   1  UNL1       -0.3037
      2 C          -7.8159  -17.7158   23.6663 C.ar    1  UNL1        0.0490
      3 C          -8.8343  -17.6940   24.7675 C.ar    1  UNL1        0.0153
      4 C          -8.6654  -16.7571   25.9267 C.ar    1  UNL1        0.0124
      5 C          -7.4782  -15.8421   25.9847 C.ar    1  UNL1        0.0791
      6 C          -6.4599  -15.8639   24.8836 C.ar    1  UNL1        0.0685
      7 CL         -5.2727  -14.9489   24.9416 Cl      1  UNL1       -0.0815
      8 C          -6.6288  -16.8008   23.7244 C.ar    1  UNL1        0.0266
      9 C          -7.3093  -14.9052   27.1440 C.1     1  UNL1        0.1013
     10 N          -7.1405  -13.9684   28.3032 N.1     1  UNL1       -0.1908
     11 C          -9.0254  -18.3741   21.4631 C.3     1  UNL1        0.0922
     12 C          -9.3836  -19.2697   20.3144 C.3     1  UNL1        0.0403
     13 C         -10.4700  -18.6003   19.5260 C.3     1  UNL1        0.0972
     14 N         -10.7832  -17.2909   20.1875 N.3     1  UNL1       -0.1576
     15 C          -9.8903  -17.1511   21.3848 C.3     1  UNL1        0.1151
     16 S         -11.8091  -16.2960   19.7318 S.O2    1  UNL1        0.0457
     17 C         -12.8350  -15.3011   19.2761 C.3     1  UNL1        0.1960
     18 O         -10.7469  -15.5409   18.9892 O.2     1  UNL1       -0.1572
     19 O         -12.8713  -17.0511   20.4744 O.2     1  UNL1       -0.1572
     20 C          -7.1132  -19.8679   22.3917 C.3     1  UNL1        0.1174
     21 C          -6.4412  -21.2843   19.8339 C.3     1  UNL1        0.0308
     22 C          -5.4000  -20.4587   20.5300 C.ar    1  UNL1       -0.0242
     23 C          -4.0229  -20.3414   19.9472 C.ar    1  UNL1       -0.0045
     24 C          -2.9817  -19.5159   20.6432 C.ar    1  UNL1       -0.0003
     25 C          -3.3177  -18.8077   21.9221 C.ar    1  UNL1       -0.0003
     26 C          -4.6948  -18.9250   22.5049 C.ar    1  UNL1       -0.0029
     27 C          -5.7360  -19.7506   21.8089 C.ar    1  UNL1       -0.0064
@<TRIPOS>BOND
     1    21    22    1
     2    22    23   ar
     3    23    24   ar
     4    24    25   ar
     5    25    26   ar
     6    26    27   ar
     7    27    20    1
     8    20     1    1
     9     1     2    1
    10     2     3   ar
    11     3     4   ar
    12     4     5   ar
    13     5     9    1
    14     9    10    3
    15     5     6   ar
    16     6     7    1
    17     6     8   ar
    18    11     1    1
    19    11    12    1
    20    12    13    1
    21    13    14    1
    22    14    16    1
    23    16    17    1
    24    16    18    2
    25    16    19    2
    26    14    15    1
    27    27    22   ar
    28     8     2   ar
    29    15    11    1
@<TRIPOS>MOLECULE
*****
 27 29 0 0 0
SMALL
GASTEIGER

@<TRIPOS>ATOM
      1 N          -8.4956  -17.5049   22.2752 N.pl3   1  UNL1       -0.3037
      2 C          -9.7942  -17.7675   22.9786 C.ar    1  UNL1        0.0490
      3 C          -9.8503  -18.7566   24.1050 C.ar    1  UNL1        0.0153
      4 C         -11.1489  -19.0192   24.8084 C.ar    1  UNL1        0.0124
      5 C         -12.3913  -18.2928   24.3854 C.ar    1  UNL1        0.0791
      6 C         -12.3351  -17.3038   23.2590 C.ar    1  UNL1        0.0685
      7 CL        -13.5775  -16.5774   22.8360 Cl      1  UNL1       -0.0815
      8 C         -11.0365  -17.0412   22.5556 C.ar    1  UNL1        0.0266
      9 C         -13.6898  -18.5554   25.0888 C.1     1  UNL1        0.1013
     10 N         -14.9884  -18.8180   25.7922 N.1     1  UNL1       -0.1908
     11 C          -7.9384  -18.5227   21.3245 C.3     1  UNL1        0.0922
     12 C          -6.4874  -18.8545   21.1389 C.3     1  UNL1        0.0403
     13 C          -6.3867  -19.9242   20.0922 C.3     1  UNL1        0.0972
     14 N          -7.7755  -20.2535   19.6308 N.3     1  UNL1       -0.1576
     15 C          -8.7346  -19.3873   20.3925 C.3     1  UNL1        0.1151
     16 S          -8.1411  -21.2705   18.5906 S.O2    1  UNL1        0.0457
     17 C          -8.5066  -22.2874   17.5503 C.3     1  UNL1        0.1960
     18 O          -6.9355  -22.0826   18.9608 O.2     1  UNL1       -0.1572
     19 O          -9.3466  -20.4584   18.2203 O.2     1  UNL1       -0.1572
     20 C          -7.7543  -16.2246   22.5224 C.3     1  UNL1        0.1174
     21 C          -9.0133  -15.2206   25.0536 C.3     1  UNL1        0.0308
     22 C          -7.5534  -15.5640   25.0271 C.ar    1  UNL1       -0.0242
     23 C          -6.7230  -15.4055   26.2661 C.ar    1  UNL1       -0.0045
     24 C          -5.2631  -15.7489   26.2396 C.ar    1  UNL1       -0.0003
     25 C          -4.6336  -16.2508   24.9741 C.ar    1  UNL1       -0.0003
     26 C          -5.4640  -16.4094   23.7350 C.ar    1  UNL1       -0.0029
     27 C          -6.9239  -16.0660   23.7615 C.ar    1  UNL1       -0.0064
@<TRIPOS>BOND
     1    21    22    1
     2    22    23   ar
     3    23    24   ar
     4    24    25   ar
     5    25    26   ar
     6    26    27   ar
     7    27    20    1
     8    20     1    1
     9     1     2    1
    10     2     3   ar
    11     3     4   ar
    12     4     5   ar
    13     5     9    1
    14     9    10    3
    15     5     6   ar
    16     6     7    1
    17     6     8   ar
    18    11     1    1
    19    11    12    1
    20    12    13    1
    21    13    14    1
    22    14    16    1
    23    16    17    1
    24    16    18    2
    25    16    19    2
    26    14    15    1
    27    27    22   ar
    28     8     2   ar
    29    15    11    1
@<TRIPOS>MOLECULE
*****
 27 29 0 0 0
SMALL
GASTEIGER

@<TRIPOS>ATOM
      1 N           3.8445    0.9153   32.7876 N.pl3   1  UNL1       -0.3037
      2 C           4.5552   -0.3759   32.5086 C.ar    1  UNL1        0.0490
      3 C           4.2760   -1.5835   33.3535 C.ar    1  UNL1        0.0153
      4 C           4.9867   -2.8746   33.0746 C.ar    1  UNL1        0.0124
      5 C           5.9766   -2.9582   31.9507 C.ar    1  UNL1        0.0791
      6 C           6.2558   -1.7506   31.1058 C.ar    1  UNL1        0.0685
      7 CL          7.2458   -1.8342   29.9819 Cl      1  UNL1       -0.0815
      8 C           5.5451   -0.4595   31.3848 C.ar    1  UNL1        0.0266
      9 C           6.6874   -4.2493   31.6717 C.1     1  UNL1        0.1013
     10 N           7.3981   -5.5405   31.3927 N.1     1  UNL1       -0.1908
     11 C           2.5676    1.2388   32.0698 C.3     1  UNL1        0.0922
     12 C           1.4937    2.1663   32.5559 C.3     1  UNL1        0.0403
     13 C           0.4029    2.1923   31.5265 C.3     1  UNL1        0.0972
     14 N           0.8028    1.2808   30.4043 N.3     1  UNL1       -0.1576
     15 C           2.1407    0.6915   30.7401 C.3     1  UNL1        0.1151
     16 S           0.0048    1.0068   29.1640 S.O2    1  UNL1        0.0457
     17 C          -0.7931    0.7328   27.9238 C.3     1  UNL1        0.1960
     18 O           1.1109    1.5768   28.3265 O.2     1  UNL1       -0.1572
     19 O          -1.1013    0.4368   30.0016 O.2     1  UNL1       -0.1572
     20 C           4.4106    1.8829   33.7842 C.3     1  UNL1        0.1174
     21 C           6.5298    0.4705   35.3698 C.3     1  UNL1        0.0308
     22 C           5.2758    0.9405   36.0455 C.ar    1  UNL1       -0.0242
     23 C           5.0814    0.7044   37.5139 C.ar    1  UNL1       -0.0045
     24 C           3.8274    1.1745   38.1896 C.ar    1  UNL1       -0.0003
     25 C           2.7678    1.8807   37.3968 C.ar    1  UNL1       -0.0003
     26 C           2.9622    2.1168   35.9284 C.ar    1  UNL1       -0.0029
     27 C           4.2162    1.6467   35.2527 C.ar    1  UNL1       -0.0064
@<TRIPOS>BOND
     1    21    22    1
     2    22    23   ar
     3    23    24   ar
     4    24    25   ar
     5    25    26   ar
     6    26    27   ar
     7    27    20    1
     8    20     1    1
     9     1     2    1
    10     2     3   ar
    11     3     4   ar
    12     4     5   ar
    13     5     9    1
    14     9    10    3
    15     5     6   ar
    16     6     7    1
    17     6     8   ar
    18    11     1    1
    19    11    12    1
    20    12    13    1
    21    13    14    1
    22    14    16    1
    23    16    17    1
    24    16    18    2
    25    16    19    2
    26    14    15    1
    27    27    22   ar
    28     8     2   ar
    29    15    11    1
