@<TRIPOS>MOLECULE
*****
 35 38 0 0 0
SMALL
GASTEIGER

@<TRIPOS>ATOM
      1 C          -7.1767  -19.8683   21.0343 C.ar    1  UNL1       -0.0059
      2 C          -7.8846  -18.7745   21.7777 C.ar    1  UNL1        0.0002
      3 C          -9.1597  -18.2015   21.2338 C.ar    1  UNL1        0.0366
      4 C          -9.7269  -18.7223   19.9466 C.ar    1  UNL1        0.1385
      5 C          -9.0191  -19.8161   19.2032 C.ar    1  UNL1        0.0366
      6 C          -7.7439  -20.3891   19.7471 C.ar    1  UNL1        0.0002
      7 C          -5.9016  -20.4412   21.5782 C.3     1  UNL1        0.0991
      8 C          -1.9494  -18.6123   20.4445 C.3     1  UNL1        0.0790
      9 C          -2.2709  -18.8688   21.8870 C.3     1  UNL1        0.0264
     10 C          -3.5883  -19.4784   22.2649 C.3     1  UNL1        0.0729
     11 N          -4.5842  -19.8316   21.2003 N.3     1  UNL1       -0.2689
     12 C          -4.2627  -19.5751   19.7578 C.3     1  UNL1        0.0729
     13 C          -2.9453  -18.9655   19.3799 C.3     1  UNL1        0.0264
     14 N          -0.4771  -16.5111   20.0359 N.am    1  UNL1       -0.3288
     15 C          -0.6320  -18.0027   20.0667 C.2     1  UNL1        0.2190
     16 O           0.5306  -18.8847   19.7196 O.2     1  UNL1       -0.2753
     17 H           0.3876  -16.1110   19.7878 H       1  UNL1        0.1449
     18 H          -1.2401  -15.9322   20.2637 H       1  UNL1        0.1449
     19 O         -11.0021  -18.1493   19.4027 O.3     1  UNL1       -0.4754
     20 C         -11.5898  -16.9127   20.0152 C.3     1  UNL1        0.2068
     21 C         -12.7677  -17.0198   20.9377 C.3     1  UNL1        0.0646
     22 C         -12.6663  -17.8365   22.1918 C.3     1  UNL1        0.0759
     23 N         -11.5722  -17.5606   23.1801 N.3     1  UNL1       -0.2726
     24 C         -11.1491  -18.6261   24.1474 C.3     1  UNL1        0.0721
     25 C         -10.0550  -18.3502   25.1358 C.3     1  UNL1        0.0178
     26 C          -9.3839  -17.0089   25.1568 C.3     1  UNL1        0.0087
     27 C          -9.8071  -15.9434   24.1894 C.3     1  UNL1        0.0178
     28 C         -10.9012  -16.2193   23.2011 C.3     1  UNL1        0.0721
     29 C          -8.2898  -16.7330   26.1451 C.3     1  UNL1        0.0453
     30 C          -7.0407  -16.0292   25.7041 C.ar    1  UNL1        0.0541
     31 C          -6.1669  -15.1632   26.5622 C.ar    1  UNL1        0.1131
     32 N          -5.0323  -14.6666   25.7160 N.ar    1  UNL1       -0.2229
     33 C          -5.2049  -15.2257   24.3348 C.ar    1  UNL1        0.1748
     34 N          -6.4462  -16.0679   24.3275 N.ar    1  UNL1       -0.3382
     35 H          -6.8073  -16.5597   23.5548 H       1  UNL1        0.1672
@<TRIPOS>BOND
     1    14    15   am
     2    15    16    2
     3    15     8    1
     4     8     9    1
     5     9    10    1
     6    10    11    1
     7    11     7    1
     8     7     1    1
     9     1     2   ar
    10     2     3   ar
    11     3     4   ar
    12     4    19    1
    13    19    20    1
    14    20    21    1
    15    21    22    1
    16    22    23    1
    17    23    24    1
    18    24    25    1
    19    25    26    1
    20    26    29    1
    21    29    30    1
    22    30    31   ar
    23    31    32   ar
    24    32    33   ar
    25    33    34   ar
    26    26    27    1
    27    27    28    1
    28     4     5   ar
    29     5     6   ar
    30    11    12    1
    31    12    13    1
    32    13     8    1
    33     6     1   ar
    34    28    23    1
    35    34    30   ar
    36    14    17    1
    37    14    18    1
    38    34    35    1
@<TRIPOS>MOLECULE
*****
 35 38 0 0 0
SMALL
GASTEIGER

@<TRIPOS>ATOM
      1 C          -6.6803  -15.9249   24.2937 C.ar    1  UNL1       -0.0059
      2 C          -7.7120  -15.6036   25.3341 C.ar    1  UNL1        0.0002
      3 C          -9.1695  -15.6417   24.9818 C.ar    1  UNL1        0.0366
      4 C          -9.5955  -16.0010   23.5892 C.ar    1  UNL1        0.1385
      5 C          -8.5638  -16.3222   22.5488 C.ar    1  UNL1        0.0366
      6 C          -7.1062  -16.2842   22.9010 C.ar    1  UNL1        0.0002
      7 C          -5.2228  -15.8869   24.6459 C.3     1  UNL1        0.0991
      8 C          -2.1550  -17.3363   21.6899 C.3     1  UNL1        0.0790
      9 C          -2.7897  -18.3018   22.6464 C.3     1  UNL1        0.0264
     10 C          -3.8123  -17.8187   23.6317 C.3     1  UNL1        0.0729
     11 N          -4.2002  -16.3700   23.6606 N.3     1  UNL1       -0.2689
     12 C          -3.5655  -15.4045   22.7041 C.3     1  UNL1        0.0729
     13 C          -2.5429  -15.8876   21.7187 C.3     1  UNL1        0.0264
     14 N          -0.2752  -16.8327   19.9686 N.am    1  UNL1       -0.3288
     15 C          -1.1324  -17.8194   20.7046 C.2     1  UNL1        0.2190
     16 O          -0.9670  -19.2892   20.4552 O.2     1  UNL1       -0.2753
     17 H           0.3959  -17.1498   19.3219 H       1  UNL1        0.1449
     18 H          -0.3838  -15.8680   20.1323 H       1  UNL1        0.1449
     19 O         -11.0531  -16.0390   23.2370 O.3     1  UNL1       -0.4754
     20 C         -11.4768  -16.0571   21.7982 C.3     1  UNL1        0.2068
     21 C         -12.4881  -17.0594   21.3267 C.3     1  UNL1        0.0646
     22 C         -12.1546  -18.5219   21.3345 C.3     1  UNL1        0.0759
     23 N         -10.7270  -18.9650   21.4585 N.3     1  UNL1       -0.2726
     24 C         -10.1945  -19.4168   22.7859 C.3     1  UNL1        0.0721
     25 C          -8.7668  -19.8599   22.9099 C.3     1  UNL1        0.0178
     26 C          -7.8715  -19.8511   21.7064 C.3     1  UNL1        0.0087
     27 C          -8.4041  -19.3992   20.3789 C.3     1  UNL1        0.0178
     28 C          -9.8317  -18.9561   20.2549 C.3     1  UNL1        0.0721
     29 C          -6.4439  -20.2941   21.8304 C.3     1  UNL1        0.0453
     30 C          -5.4410  -19.8929   20.7896 C.ar    1  UNL1        0.0541
     31 C          -4.3489  -20.7600   20.2368 C.ar    1  UNL1        0.1131
     32 N          -3.5871  -19.9570   19.2244 N.ar    1  UNL1       -0.2229
     33 C          -4.2083  -18.5936   19.1515 C.ar    1  UNL1        0.1748
     34 N          -5.3541  -18.5539   20.1189 N.ar    1  UNL1       -0.3382
     35 H          -5.9453  -17.7843   20.2845 H       1  UNL1        0.1672
@<TRIPOS>BOND
     1    14    15   am
     2    15    16    2
     3    15     8    1
     4     8     9    1
     5     9    10    1
     6    10    11    1
     7    11     7    1
     8     7     1    1
     9     1     2   ar
    10     2     3   ar
    11     3     4   ar
    12     4    19    1
    13    19    20    1
    14    20    21    1
    15    21    22    1
    16    22    23    1
    17    23    24    1
    18    24    25    1
    19    25    26    1
    20    26    29    1
    21    29    30    1
    22    30    31   ar
    23    31    32   ar
    24    32    33   ar
    25    33    34   ar
    26    26    27    1
    27    27    28    1
    28     4     5   ar
    29     5     6   ar
    30    11    12    1
    31    12    13    1
    32    13     8    1
    33     6     1   ar
    34    28    23    1
    35    34    30   ar
    36    14    17    1
    37    14    18    1
    38    34    35    1
@<TRIPOS>MOLECULE
*****
 35 38 0 0 0
SMALL
GASTEIGER

@<TRIPOS>ATOM
      1 C          -7.2402  -19.9241   21.8527 C.ar    1  UNL1       -0.0059
      2 C          -7.5364  -19.5156   20.4401 C.ar    1  UNL1        0.0002
      3 C          -8.9468  -19.2169   20.0258 C.ar    1  UNL1        0.0366
      4 C         -10.0609  -19.3267   21.0241 C.ar    1  UNL1        0.1385
      5 C          -9.7647  -19.7351   22.4367 C.ar    1  UNL1        0.0366
      6 C          -8.3543  -20.0338   22.8510 C.ar    1  UNL1        0.0002
      7 C          -5.8298  -20.2228   22.2670 C.3     1  UNL1        0.0991
      8 C          -2.3925  -18.2571   20.1290 C.3     1  UNL1        0.0790
      9 C          -3.1767  -19.3407   19.4504 C.3     1  UNL1        0.0264
     10 C          -4.3225  -19.9960   20.1630 C.3     1  UNL1        0.0729
     11 N          -4.6840  -19.5675   21.5543 N.3     1  UNL1       -0.2689
     12 C          -3.8998  -18.4839   22.2329 C.3     1  UNL1        0.0729
     13 C          -2.7540  -17.8287   21.5203 C.3     1  UNL1        0.0264
     14 N          -1.0659  -17.8053   17.9413 N.am    1  UNL1       -0.3288
     15 C          -1.2467  -17.6019   19.4164 C.2     1  UNL1        0.2190
     16 O          -0.2817  -16.7432   20.1788 O.2     1  UNL1       -0.2753
     17 H          -0.3139  -17.3753   17.4736 H       1  UNL1        0.1449
     18 H          -1.6993  -18.3689   17.4409 H       1  UNL1        0.1449
     19 O         -11.4713  -19.0279   20.6098 O.3     1  UNL1       -0.4754
     20 C         -12.5235  -18.7856   21.6509 C.3     1  UNL1        0.2068
     21 C         -13.3266  -17.5190   21.6250 C.3     1  UNL1        0.0646
     22 C         -12.7030  -16.2265   22.0615 C.3     1  UNL1        0.0759
     23 N         -11.2258  -16.1530   22.3109 N.3     1  UNL1       -0.2726
     24 C         -10.6735  -16.5163   23.6573 C.3     1  UNL1        0.0721
     25 C          -9.1962  -16.4429   23.9068 C.3     1  UNL1        0.0178
     26 C          -8.2712  -16.0061   22.8098 C.3     1  UNL1        0.0087
     27 C          -8.8234  -15.6428   21.4632 C.3     1  UNL1        0.0178
     28 C         -10.3007  -15.7162   21.2138 C.3     1  UNL1        0.0721
     29 C          -6.7939  -15.9327   23.0592 C.3     1  UNL1        0.0453
     30 C          -6.2775  -15.7367   24.4539 C.ar    1  UNL1        0.0541
     31 C          -4.9854  -16.2692   24.9986 C.ar    1  UNL1        0.1131
     32 N          -4.8720  -15.8355   26.4300 N.ar    1  UNL1       -0.2229
     33 C          -6.0941  -15.0349   26.7700 C.ar    1  UNL1        0.1748
     34 N          -6.9628  -14.9739   25.5486 N.ar    1  UNL1       -0.3382
     35 H          -7.8304  -14.5139   25.4779 H       1  UNL1        0.1672
@<TRIPOS>BOND
     1    14    15   am
     2    15    16    2
     3    15     8    1
     4     8     9    1
     5     9    10    1
     6    10    11    1
     7    11     7    1
     8     7     1    1
     9     1     2   ar
    10     2     3   ar
    11     3     4   ar
    12     4    19    1
    13    19    20    1
    14    20    21    1
    15    21    22    1
    16    22    23    1
    17    23    24    1
    18    24    25    1
    19    25    26    1
    20    26    29    1
    21    29    30    1
    22    30    31   ar
    23    31    32   ar
    24    32    33   ar
    25    33    34   ar
    26    26    27    1
    27    27    28    1
    28     4     5   ar
    29     5     6   ar
    30    11    12    1
    31    12    13    1
    32    13     8    1
    33     6     1   ar
    34    28    23    1
    35    34    30   ar
    36    14    17    1
    37    14    18    1
    38    34    35    1
@<TRIPOS>MOLECULE
*****
 35 38 0 0 0
SMALL
GASTEIGER

@<TRIPOS>ATOM
      1 C         -14.2054   -4.4905   18.7589 C.ar    1  UNL1       -0.0059
      2 C         -14.7881   -3.4081   19.6185 C.ar    1  UNL1        0.0002
      3 C         -15.1607   -2.0877   19.0122 C.ar    1  UNL1        0.0366
      4 C         -14.9507   -1.8497   17.5462 C.ar    1  UNL1        0.1385
      5 C         -14.3680   -2.9320   16.6865 C.ar    1  UNL1        0.0366
      6 C         -13.9953   -4.2525   17.2928 C.ar    1  UNL1        0.0002
      7 C         -13.8328   -5.8109   19.3652 C.3     1  UNL1        0.0991
      8 C         -16.4535   -9.4092   18.7063 C.3     1  UNL1        0.0790
      9 C         -17.0186   -8.1773   19.3491 C.3     1  UNL1        0.0264
     10 C         -16.1450   -6.9779   19.5687 C.3     1  UNL1        0.0729
     11 N         -14.7064   -7.0103   19.1456 N.3     1  UNL1       -0.2689
     12 C         -14.1413   -8.2422   18.5028 C.3     1  UNL1        0.0729
     13 C         -15.0149   -9.4416   18.2832 C.3     1  UNL1        0.0264
     14 N         -16.9133  -11.9464   19.0242 N.am    1  UNL1       -0.3288
     15 C         -17.3271  -10.6086   18.4867 C.2     1  UNL1        0.2190
     16 O         -18.6146  -10.4702   17.7297 O.2     1  UNL1       -0.2753
     17 H         -17.4866  -12.7336   18.8800 H       1  UNL1        0.1449
     18 H         -16.0682  -12.0372   19.5211 H       1  UNL1        0.1449
     19 O         -15.3233   -0.5292   16.9398 O.3     1  UNL1       -0.4754
     20 C         -14.2911    0.2798   16.2118 C.3     1  UNL1        0.2068
     21 C         -13.0406    0.7111   16.9188 C.3     1  UNL1        0.0646
     22 C         -11.7174    0.1217   16.5292 C.3     1  UNL1        0.0759
     23 N         -11.2387   -1.1424   17.1796 N.3     1  UNL1       -0.2726
     24 C         -10.3940   -2.1106   16.4057 C.3     1  UNL1        0.0721
     25 C          -9.9153   -3.3747   17.0560 C.3     1  UNL1        0.0178
     26 C         -10.2814   -3.6706   18.4803 C.3     1  UNL1        0.0087
     27 C         -11.1261   -2.7023   19.2542 C.3     1  UNL1        0.0178
     28 C         -11.6048   -1.4382   18.6038 C.3     1  UNL1        0.0721
     29 C          -9.8028   -4.9346   19.1306 C.3     1  UNL1        0.0453
     30 C         -10.0184   -6.2552   18.4525 C.ar    1  UNL1        0.0541
     31 C          -9.3241   -7.5420   18.7872 C.ar    1  UNL1        0.1131
     32 N          -9.8429   -8.6028   17.8623 N.ar    1  UNL1       -0.2229
     33 C         -10.8578   -7.9716   16.9559 C.ar    1  UNL1        0.1748
     34 N         -10.9663   -6.5206   17.3207 N.ar    1  UNL1       -0.3382
     35 H         -11.5561   -5.8587   16.8925 H       1  UNL1        0.1672
@<TRIPOS>BOND
     1    14    15   am
     2    15    16    2
     3    15     8    1
     4     8     9    1
     5     9    10    1
     6    10    11    1
     7    11     7    1
     8     7     1    1
     9     1     2   ar
    10     2     3   ar
    11     3     4   ar
    12     4    19    1
    13    19    20    1
    14    20    21    1
    15    21    22    1
    16    22    23    1
    17    23    24    1
    18    24    25    1
    19    25    26    1
    20    26    29    1
    21    29    30    1
    22    30    31   ar
    23    31    32   ar
    24    32    33   ar
    25    33    34   ar
    26    26    27    1
    27    27    28    1
    28     4     5   ar
    29     5     6   ar
    30    11    12    1
    31    12    13    1
    32    13     8    1
    33     6     1   ar
    34    28    23    1
    35    34    30   ar
    36    14    17    1
    37    14    18    1
    38    34    35    1
@<TRIPOS>MOLECULE
*****
 35 38 0 0 0
SMALL
GASTEIGER

@<TRIPOS>ATOM
      1 C          -6.1874  -16.4405   24.0216 C.ar    1  UNL1       -0.0059
      2 C          -6.7596  -17.2803   22.9182 C.ar    1  UNL1        0.0002
      3 C          -8.2285  -17.2268   22.6196 C.ar    1  UNL1        0.0366
      4 C          -9.1254  -16.3334   23.4243 C.ar    1  UNL1        0.1385
      5 C          -8.5533  -15.4936   24.5276 C.ar    1  UNL1        0.0366
      6 C          -7.0842  -15.5471   24.8263 C.ar    1  UNL1        0.0002
      7 C          -4.7184  -16.4940   24.3202 C.3     1  UNL1        0.0991
      8 C          -1.8008  -17.5888   21.0738 C.3     1  UNL1        0.0790
      9 C          -2.2936  -16.1772   21.1945 C.3     1  UNL1        0.0264
     10 C          -3.2662  -15.8123   22.2766 C.3     1  UNL1        0.0729
     11 N          -3.7459  -16.8589   23.2381 N.3     1  UNL1       -0.2689
     12 C          -3.2531  -18.2705   23.1173 C.3     1  UNL1        0.0729
     13 C          -2.2806  -18.6354   22.0352 C.3     1  UNL1        0.0264
     14 N          -1.2464  -17.8841   18.5528 N.am    1  UNL1       -0.3288
     15 C          -0.8283  -17.9537   19.9916 C.2     1  UNL1        0.2190
     16 O           0.5623  -18.3883   20.3483 O.2     1  UNL1       -0.2753
     17 H          -0.6081  -18.1236   17.8426 H       1  UNL1        0.1449
     18 H          -2.1591  -17.5988   18.3187 H       1  UNL1        0.1449
     19 O         -10.5944  -16.2799   23.1256 O.3     1  UNL1       -0.4754
     20 C         -11.5516  -17.1223   23.9156 C.3     1  UNL1        0.2068
     21 C         -12.9320  -17.3824   23.3897 C.3     1  UNL1        0.0646
     22 C         -13.1210  -17.8443   21.9751 C.3     1  UNL1        0.0759
     23 N         -11.9670  -18.4302   21.2170 N.3     1  UNL1       -0.2726
     24 C         -11.3726  -19.7380   21.6486 C.3     1  UNL1        0.0721
     25 C         -10.2185  -20.3240   20.8905 C.3     1  UNL1        0.0178
     26 C          -9.6589  -19.6021   19.7006 C.3     1  UNL1        0.0087
     27 C         -10.2533  -18.2943   19.2689 C.3     1  UNL1        0.0178
     28 C         -11.4074  -17.7084   20.0271 C.3     1  UNL1        0.0721
     29 C          -8.5048  -20.1880   18.9424 C.3     1  UNL1        0.0453
     30 C          -7.1076  -20.0334   19.4659 C.ar    1  UNL1        0.0541
     31 C          -6.2354  -21.1355   19.9901 C.ar    1  UNL1        0.1131
     32 N          -4.9261  -20.5328   20.4051 N.ar    1  UNL1       -0.2229
     33 C          -4.9890  -19.0581   20.1375 C.ar    1  UNL1        0.1748
     34 N          -6.3373  -18.7495   19.5570 N.ar    1  UNL1       -0.3382
     35 H          -6.6600  -17.8605   19.2837 H       1  UNL1        0.1672
@<TRIPOS>BOND
     1    14    15   am
     2    15    16    2
     3    15     8    1
     4     8     9    1
     5     9    10    1
     6    10    11    1
     7    11     7    1
     8     7     1    1
     9     1     2   ar
    10     2     3   ar
    11     3     4   ar
    12     4    19    1
    13    19    20    1
    14    20    21    1
    15    21    22    1
    16    22    23    1
    17    23    24    1
    18    24    25    1
    19    25    26    1
    20    26    29    1
    21    29    30    1
    22    30    31   ar
    23    31    32   ar
    24    32    33   ar
    25    33    34   ar
    26    26    27    1
    27    27    28    1
    28     4     5   ar
    29     5     6   ar
    30    11    12    1
    31    12    13    1
    32    13     8    1
    33     6     1   ar
    34    28    23    1
    35    34    30   ar
    36    14    17    1
    37    14    18    1
    38    34    35    1
@<TRIPOS>MOLECULE
*****
 35 38 0 0 0
SMALL
GASTEIGER

@<TRIPOS>ATOM
      1 C         -13.1067   -7.6450   17.7281 C.ar    1  UNL1       -0.0059
      2 C         -12.2765   -7.4521   16.4937 C.ar    1  UNL1        0.0002
      3 C         -11.0939   -6.5298   16.5218 C.ar    1  UNL1        0.0366
      4 C         -10.7414   -5.8004   17.7842 C.ar    1  UNL1        0.1385
      5 C         -11.5716   -5.9932   19.0185 C.ar    1  UNL1        0.0366
      6 C         -12.7542   -6.9156   18.9905 C.ar    1  UNL1        0.0002
      7 C         -14.2893   -8.5673   17.7000 C.3     1  UNL1        0.0991
      8 C         -18.1995   -7.2679   19.5088 C.3     1  UNL1        0.0790
      9 C         -17.4511   -8.4285   20.0944 C.3     1  UNL1        0.0264
     10 C         -16.1477   -8.8616   19.4915 C.3     1  UNL1        0.0729
     11 N         -15.5927   -8.1342   18.3029 N.3     1  UNL1       -0.2689
     12 C         -16.3410   -6.9736   17.7173 C.3     1  UNL1        0.0729
     13 C         -17.6445   -6.5405   18.3202 C.3     1  UNL1        0.0264
     14 N         -20.3167   -7.8052   20.9155 N.am    1  UNL1       -0.3288
     15 C         -19.5029   -6.8348   20.1117 C.2     1  UNL1        0.2190
     16 O         -19.9926   -5.4313   19.9109 O.2     1  UNL1       -0.2753
     17 H         -21.1722   -7.5209   21.3112 H       1  UNL1        0.1449
     18 H         -19.9953   -8.7264   21.0473 H       1  UNL1        0.1449
     19 O          -9.5588   -4.8781   17.8123 O.3     1  UNL1       -0.4754
     20 C          -9.1174   -4.1861   16.5568 C.3     1  UNL1        0.2068
     21 C          -9.9397   -3.0680   15.9880 C.3     1  UNL1        0.0646
     22 C         -10.6514   -2.1184   16.9055 C.3     1  UNL1        0.0759
     23 N         -11.8963   -2.5560   17.6188 N.3     1  UNL1       -0.2726
     24 C         -12.9912   -3.2467   16.8613 C.3     1  UNL1        0.0721
     25 C         -14.2361   -3.6843   17.5746 C.3     1  UNL1        0.0178
     26 C         -14.3860   -3.4312   19.0454 C.3     1  UNL1        0.0087
     27 C         -13.2910   -2.7404   19.8030 C.3     1  UNL1        0.0178
     28 C         -12.0462   -2.3028   19.0897 C.3     1  UNL1        0.0721
     29 C         -15.6309   -3.8687   19.7587 C.3     1  UNL1        0.0453
     30 C         -16.7922   -2.9278   19.8865 C.ar    1  UNL1        0.0541
     31 C         -16.8259   -1.5011   19.4246 C.ar    1  UNL1        0.1131
     32 N         -18.1781   -0.9400   19.7512 N.ar    1  UNL1       -0.2229
     33 C         -18.9802   -2.0200   20.4150 C.ar    1  UNL1        0.1748
     34 N         -18.1235   -3.2486   20.4985 N.ar    1  UNL1       -0.3382
     35 H         -18.3885   -4.1136   20.8869 H       1  UNL1        0.1672
@<TRIPOS>BOND
     1    14    15   am
     2    15    16    2
     3    15     8    1
     4     8     9    1
     5     9    10    1
     6    10    11    1
     7    11     7    1
     8     7     1    1
     9     1     2   ar
    10     2     3   ar
    11     3     4   ar
    12     4    19    1
    13    19    20    1
    14    20    21    1
    15    21    22    1
    16    22    23    1
    17    23    24    1
    18    24    25    1
    19    25    26    1
    20    26    29    1
    21    29    30    1
    22    30    31   ar
    23    31    32   ar
    24    32    33   ar
    25    33    34   ar
    26    26    27    1
    27    27    28    1
    28     4     5   ar
    29     5     6   ar
    30    11    12    1
    31    12    13    1
    32    13     8    1
    33     6     1   ar
    34    28    23    1
    35    34    30   ar
    36    14    17    1
    37    14    18    1
    38    34    35    1
@<TRIPOS>MOLECULE
*****
 35 38 0 0 0
SMALL
GASTEIGER

@<TRIPOS>ATOM
      1 C          -7.8323  -15.8546   23.8208 C.ar    1  UNL1       -0.0059
      2 C          -7.9269  -15.6636   22.3360 C.ar    1  UNL1        0.0002
      3 C          -9.2561  -15.7707   21.6492 C.ar    1  UNL1        0.0366
      4 C         -10.4907  -16.0687   22.4472 C.ar    1  UNL1        0.1385
      5 C         -10.3962  -16.2597   23.9319 C.ar    1  UNL1        0.0366
      6 C          -9.0670  -16.1527   24.6188 C.ar    1  UNL1        0.0002
      7 C          -6.5031  -15.7476   24.5076 C.3     1  UNL1        0.0991
      8 C          -2.7720  -17.1507   22.4195 C.3     1  UNL1        0.0790
      9 C          -3.1544  -15.7008   22.3783 C.3     1  UNL1        0.0264
     10 C          -4.3981  -15.2331   23.0744 C.3     1  UNL1        0.0729
     11 N          -5.2594  -16.2153   23.8116 N.3     1  UNL1       -0.2689
     12 C          -4.8770  -17.6651   23.8528 C.3     1  UNL1        0.0729
     13 C          -3.6333  -18.1328   23.1567 C.3     1  UNL1        0.0264
     14 N          -0.7693  -16.6800   20.8328 N.am    1  UNL1       -0.3288
     15 C          -1.5283  -17.6184   21.7235 C.2     1  UNL1        0.2190
     16 O          -1.0436  -19.0245   21.9181 O.2     1  UNL1       -0.2753
     17 H           0.0469  -16.9870   20.3760 H       1  UNL1        0.1449
     18 H          -1.0874  -15.7571   20.7051 H       1  UNL1        0.1449
     19 O         -11.8200  -16.1758   21.7603 O.3     1  UNL1       -0.4754
     20 C         -12.4631  -17.5183   21.5763 C.3     1  UNL1        0.2068
     21 C         -11.6308  -18.7643   21.6443 C.3     1  UNL1        0.0646
     22 C         -10.9343  -19.2691   20.4154 C.3     1  UNL1        0.0759
     23 N          -9.4541  -19.5109   20.4381 N.3     1  UNL1       -0.2726
     24 C          -8.6947  -19.3935   21.7264 C.3     1  UNL1        0.0721
     25 C          -7.2145  -19.6354   21.7492 C.3     1  UNL1        0.0178
     26 C          -6.4937  -19.9945   20.4837 C.3     1  UNL1        0.0087
     27 C          -7.2531  -20.1119   19.1954 C.3     1  UNL1        0.0178
     28 C          -8.7333  -19.8701   19.1727 C.3     1  UNL1        0.0721
     29 C          -5.0135  -20.2364   20.5064 C.3     1  UNL1        0.0453
     30 C          -4.0963  -19.3485   19.7186 C.ar    1  UNL1        0.0541
     31 C          -2.7195  -19.7046   19.2414 C.ar    1  UNL1        0.1131
     32 N          -2.1672  -18.5249   18.4976 N.ar    1  UNL1       -0.2229
     33 C          -3.2027  -17.4397   18.5151 C.ar    1  UNL1        0.1748
     34 N          -4.3949  -17.9488   19.2698 N.ar    1  UNL1       -0.3382
     35 H          -5.2273  -17.4515   19.4405 H       1  UNL1        0.1672
@<TRIPOS>BOND
     1    14    15   am
     2    15    16    2
     3    15     8    1
     4     8     9    1
     5     9    10    1
     6    10    11    1
     7    11     7    1
     8     7     1    1
     9     1     2   ar
    10     2     3   ar
    11     3     4   ar
    12     4    19    1
    13    19    20    1
    14    20    21    1
    15    21    22    1
    16    22    23    1
    17    23    24    1
    18    24    25    1
    19    25    26    1
    20    26    29    1
    21    29    30    1
    22    30    31   ar
    23    31    32   ar
    24    32    33   ar
    25    33    34   ar
    26    26    27    1
    27    27    28    1
    28     4     5   ar
    29     5     6   ar
    30    11    12    1
    31    12    13    1
    32    13     8    1
    33     6     1   ar
    34    28    23    1
    35    34    30   ar
    36    14    17    1
    37    14    18    1
    38    34    35    1
@<TRIPOS>MOLECULE
*****
 35 38 0 0 0
SMALL
GASTEIGER

@<TRIPOS>ATOM
      1 C           7.6738   -3.2988   20.4299 C.ar    1  UNL1       -0.0059
      2 C           6.2719   -3.8096   20.5844 C.ar    1  UNL1        0.0002
      3 C           5.2199   -3.4267   19.5862 C.ar    1  UNL1        0.0366
      4 C           5.5697   -2.5331   18.4333 C.ar    1  UNL1        0.1385
      5 C           6.9715   -2.0223   18.2788 C.ar    1  UNL1        0.0366
      6 C           8.0236   -2.4052   19.2771 C.ar    1  UNL1        0.0002
      7 C           8.7258   -3.6817   21.4282 C.3     1  UNL1        0.0991
      8 C           7.6398   -6.2256   24.9778 C.3     1  UNL1        0.0790
      9 C           7.2686   -4.7724   24.9548 C.3     1  UNL1        0.0264
     10 C           7.6306   -3.9245   23.7716 C.3     1  UNL1        0.0729
     11 N           8.3638   -4.5296   22.6114 N.3     1  UNL1       -0.2689
     12 C           8.7350   -5.9828   22.6344 C.3     1  UNL1        0.0729
     13 C           8.3730   -6.8307   23.8176 C.3     1  UNL1        0.0264
     14 N           6.3552   -6.5363   27.2145 N.am    1  UNL1       -0.3288
     15 C           7.2778   -7.0735   26.1610 C.2     1  UNL1        0.2190
     16 O           7.8384   -8.4587   26.2906 O.2     1  UNL1       -0.2753
     17 H           6.1176   -7.0928   27.9911 H       1  UNL1        0.1449
     18 H           5.9872   -5.6271   27.1295 H       1  UNL1        0.1449
     19 O           4.5176   -2.1502   17.4350 O.3     1  UNL1       -0.4754
     20 C           4.3718   -0.7189   17.0106 C.3     1  UNL1        0.2068
     21 C           3.5330    0.2225   17.8230 C.3     1  UNL1        0.0646
     22 C           4.1225    0.9118   19.0178 C.3     1  UNL1        0.0759
     23 N           4.2263    0.1865   20.3266 N.3     1  UNL1       -0.2726
     24 C           5.5373    0.1353   21.0537 C.3     1  UNL1        0.0721
     25 C           5.6412   -0.5901   22.3626 C.3     1  UNL1        0.0178
     26 C           4.4341   -1.2642   22.9444 C.3     1  UNL1        0.0087
     27 C           3.1230   -1.2129   22.2172 C.3     1  UNL1        0.0178
     28 C           3.0192   -0.4876   20.9084 C.3     1  UNL1        0.0721
     29 C           4.5379   -1.9894   24.2532 C.3     1  UNL1        0.0453
     30 C           4.1602   -1.2946   25.5278 C.ar    1  UNL1        0.0541
     31 C           4.3032    0.1720   25.8083 C.ar    1  UNL1        0.1131
     32 N           3.8046    0.4287   27.1995 N.ar    1  UNL1       -0.2229
     33 C           3.3534   -0.8793   27.7789 C.ar    1  UNL1        0.1748
     34 N           3.5732   -1.9444   26.7457 N.ar    1  UNL1       -0.3382
     35 H           3.3683   -2.9018   26.8488 H       1  UNL1        0.1672
@<TRIPOS>BOND
     1    14    15   am
     2    15    16    2
     3    15     8    1
     4     8     9    1
     5     9    10    1
     6    10    11    1
     7    11     7    1
     8     7     1    1
     9     1     2   ar
    10     2     3   ar
    11     3     4   ar
    12     4    19    1
    13    19    20    1
    14    20    21    1
    15    21    22    1
    16    22    23    1
    17    23    24    1
    18    24    25    1
    19    25    26    1
    20    26    29    1
    21    29    30    1
    22    30    31   ar
    23    31    32   ar
    24    32    33   ar
    25    33    34   ar
    26    26    27    1
    27    27    28    1
    28     4     5   ar
    29     5     6   ar
    30    11    12    1
    31    12    13    1
    32    13     8    1
    33     6     1   ar
    34    28    23    1
    35    34    30   ar
    36    14    17    1
    37    14    18    1
    38    34    35    1
@<TRIPOS>MOLECULE
*****
 35 38 0 0 0
SMALL
GASTEIGER

@<TRIPOS>ATOM
      1 C           2.4719   -0.1911   18.7102 C.ar    1  UNL1       -0.0059
      2 C           2.1946    1.2495   18.3975 C.ar    1  UNL1        0.0002
      3 C           1.1041    1.9785   19.1251 C.ar    1  UNL1        0.0366
      4 C           0.2908    1.2668   20.1653 C.ar    1  UNL1        0.1385
      5 C           0.5680   -0.1738   20.4780 C.ar    1  UNL1        0.0366
      6 C           1.6586   -0.9028   19.7504 C.ar    1  UNL1        0.0002
      7 C           3.5624   -0.9200   17.9826 C.3     1  UNL1        0.0991
      8 C           6.5723   -3.3462   20.2858 C.3     1  UNL1        0.0790
      9 C           6.7819   -1.8728   20.0985 C.3     1  UNL1        0.0264
     10 C           5.7786   -1.0641   19.3308 C.3     1  UNL1        0.0729
     11 N           4.5657   -1.7288   18.7503 N.3     1  UNL1       -0.2689
     12 C           4.3561   -3.2021   18.9376 C.3     1  UNL1        0.0729
     13 C           5.3594   -4.0108   19.7053 C.3     1  UNL1        0.0264
     14 N           9.0069   -4.1944   20.6067 N.am    1  UNL1       -0.3288
     15 C           7.5756   -4.1549   21.0535 C.2     1  UNL1        0.2190
     16 O           7.1475   -4.9240   22.2681 O.2     1  UNL1       -0.2753
     17 H           9.6654   -4.7252   21.1106 H       1  UNL1        0.1449
     18 H           9.2879   -3.6896   19.8095 H       1  UNL1        0.1449
     19 O          -0.7998    1.9958   20.8929 O.3     1  UNL1       -0.4754
     20 C          -0.5595    3.3837   21.4086 C.3     1  UNL1        0.2068
     21 C           0.1671    3.5867   22.7050 C.3     1  UNL1        0.0646
     22 C           1.6620    3.4715   22.7529 C.3     1  UNL1        0.0759
     23 N           2.3085    2.1193   22.8115 N.3     1  UNL1       -0.2726
     24 C           1.7407    1.0545   23.7024 C.3     1  UNL1        0.0721
     25 C           2.3873   -0.2978   23.7609 C.3     1  UNL1        0.0178
     26 C           3.6016   -0.5852   22.9286 C.3     1  UNL1        0.0087
     27 C           4.1694    0.4797   22.0376 C.3     1  UNL1        0.0178
     28 C           3.5229    1.8319   21.9791 C.3     1  UNL1        0.0721
     29 C           4.2481   -1.9375   22.9871 C.3     1  UNL1        0.0453
     30 C           5.1385   -2.2938   24.1405 C.ar    1  UNL1        0.0541
     31 C           5.5457   -1.3773   25.2560 C.ar    1  UNL1        0.1131
     32 N           6.4368   -2.1463   26.1858 N.ar    1  UNL1       -0.2229
     33 C           6.5803   -3.5381   25.6450 C.ar    1  UNL1        0.1748
     34 N           5.7779   -3.6293   24.3809 N.ar    1  UNL1       -0.3382
     35 H           5.6868   -4.4257   23.8094 H       1  UNL1        0.1672
@<TRIPOS>BOND
     1    14    15   am
     2    15    16    2
     3    15     8    1
     4     8     9    1
     5     9    10    1
     6    10    11    1
     7    11     7    1
     8     7     1    1
     9     1     2   ar
    10     2     3   ar
    11     3     4   ar
    12     4    19    1
    13    19    20    1
    14    20    21    1
    15    21    22    1
    16    22    23    1
    17    23    24    1
    18    24    25    1
    19    25    26    1
    20    26    29    1
    21    29    30    1
    22    30    31   ar
    23    31    32   ar
    24    32    33   ar
    25    33    34   ar
    26    26    27    1
    27    27    28    1
    28     4     5   ar
    29     5     6   ar
    30    11    12    1
    31    12    13    1
    32    13     8    1
    33     6     1   ar
    34    28    23    1
    35    34    30   ar
    36    14    17    1
    37    14    18    1
    38    34    35    1
