@<TRIPOS>MOLECULE
*****
 25 27 0 0 0
SMALL
GASTEIGER

@<TRIPOS>ATOM
      1 N          -6.8544  -18.4102   22.4632 N.3     1  UNL1       -0.2700
      2 C          -5.5727  -18.8654   21.8307 C.3     1  UNL1        0.0628
      3 C          -4.3225  -18.9607   22.6541 C.3     1  UNL1        0.0481
      4 C          -3.0408  -19.4159   22.0216 C.3     1  UNL1        0.1435
      5 O          -3.0094  -19.7758   20.5657 O.3     1  UNL1       -0.3537
      6 C          -4.2596  -19.6805   19.7424 C.3     1  UNL1        0.1435
      7 C          -5.5412  -19.2253   20.3749 C.3     1  UNL1        0.0481
      8 C          -6.9827  -17.0042   22.9701 C.3     1  UNL1        0.0748
      9 C          -6.2019  -16.3994   24.0991 C.3     1  UNL1        0.0344
     10 C          -6.6509  -14.9776   24.2638 C.3     1  UNL1        0.0700
     11 N          -7.7091  -14.7038   23.2366 N.3     1  UNL1       -0.2963
     12 C          -7.9142  -15.9563   22.4371 C.3     1  UNL1        0.0847
     13 H          -7.4081  -13.9468   22.6229 H       1  UNL1        0.1233
     14 C          -8.0078  -19.3608   22.5888 C.3     1  UNL1        0.0988
     15 C         -10.2098  -18.3825   24.3761 C.3     1  UNL1        0.0307
     16 C         -10.4437  -18.5124   22.9001 C.ar    1  UNL1       -0.0206
     17 C          -9.3427  -19.0016   22.0065 C.ar    1  UNL1       -0.0101
     18 C          -9.5766  -19.1315   20.5305 C.ar    1  UNL1       -0.0032
     19 C         -10.9114  -18.7722   19.9482 C.ar    1  UNL1       -0.0004
     20 C         -12.0124  -18.2831   20.8418 C.ar    1  UNL1        0.0035
     21 C         -11.7785  -18.1532   22.3178 C.ar    1  UNL1        0.0672
     22 C         -12.8796  -17.6640   23.2114 C.3     1  UNL1        0.4183
     23 F         -13.9805  -17.1749   24.1050 F       1  UNL1       -0.1659
     24 F         -12.7470  -16.2907   22.6230 F       1  UNL1       -0.1659
     25 F         -13.0121  -19.0374   23.7998 F       1  UNL1       -0.1659
@<TRIPOS>BOND
     1    15    16    1
     2    16    17   ar
     3    17    14    1
     4    14     1    1
     5     1     2    1
     6     2     3    1
     7     3     4    1
     8     4     5    1
     9     5     6    1
    10     6     7    1
    11     8     1    1
    12     8     9    1
    13     9    10    1
    14    10    11    1
    15    11    12    1
    16    17    18   ar
    17    18    19   ar
    18    19    20   ar
    19    20    21   ar
    20    21    22    1
    21    22    23    1
    22    22    24    1
    23    22    25    1
    24    21    16   ar
    25     7     2    1
    26    12     8    1
    27    11    13    1
@<TRIPOS>MOLECULE
*****
 25 27 0 0 0
SMALL
GASTEIGER

@<TRIPOS>ATOM
      1 N          -8.3247  -17.0944   21.7174 N.3     1  UNL1       -0.2700
      2 C          -9.7950  -17.2547   21.4671 C.3     1  UNL1        0.0628
      3 C         -10.4681  -18.5619   21.7639 C.3     1  UNL1        0.0481
      4 C         -11.9383  -18.7222   21.5136 C.3     1  UNL1        0.1435
      5 O         -12.7354  -17.5753   20.9665 O.3     1  UNL1       -0.3537
      6 C         -12.0623  -16.2681   20.6697 C.3     1  UNL1        0.1435
      7 C         -10.5921  -16.1078   20.9200 C.3     1  UNL1        0.0481
      8 C          -7.3900  -18.2376   21.4539 C.3     1  UNL1        0.0748
      9 C          -6.4228  -18.8300   22.4355 C.3     1  UNL1        0.0344
     10 C          -5.6934  -19.9477   21.7508 C.3     1  UNL1        0.0700
     11 N          -6.2098  -20.0460   20.3459 N.3     1  UNL1       -0.2963
     12 C          -7.2583  -18.9891   20.1624 C.3     1  UNL1        0.0847
     13 H          -6.6170  -20.9682   20.1905 H       1  UNL1        0.1233
     14 C          -7.7891  -15.7909   22.2312 C.3     1  UNL1        0.0988
     15 C          -9.5385  -16.1367   24.6437 C.3     1  UNL1        0.0307
     16 C          -8.0691  -15.8870   24.8124 C.ar    1  UNL1       -0.0206
     17 C          -7.1944  -15.7141   23.6062 C.ar    1  UNL1       -0.0101
     18 C          -5.7250  -15.4644   23.7749 C.ar    1  UNL1       -0.0032
     19 C          -5.1302  -15.3877   25.1497 C.ar    1  UNL1       -0.0004
     20 C          -6.0049  -15.5606   26.3559 C.ar    1  UNL1        0.0035
     21 C          -7.4744  -15.8103   26.1873 C.ar    1  UNL1        0.0672
     22 C          -8.3491  -15.9832   27.3936 C.3     1  UNL1        0.4183
     23 F          -9.2237  -16.1560   28.5998 F       1  UNL1       -0.1659
     24 F          -8.4103  -17.4599   27.1375 F       1  UNL1       -0.1659
     25 F          -8.2878  -14.5065   27.6496 F       1  UNL1       -0.1659
@<TRIPOS>BOND
     1    15    16    1
     2    16    17   ar
     3    17    14    1
     4    14     1    1
     5     1     2    1
     6     2     3    1
     7     3     4    1
     8     4     5    1
     9     5     6    1
    10     6     7    1
    11     8     1    1
    12     8     9    1
    13     9    10    1
    14    10    11    1
    15    11    12    1
    16    17    18   ar
    17    18    19   ar
    18    19    20   ar
    19    20    21   ar
    20    21    22    1
    21    22    23    1
    22    22    24    1
    23    22    25    1
    24    21    16   ar
    25     7     2    1
    26    12     8    1
    27    11    13    1
@<TRIPOS>MOLECULE
*****
 25 27 0 0 0
SMALL
GASTEIGER

@<TRIPOS>ATOM
      1 N          -6.3110  -17.5822   22.4260 N.3     1  UNL1       -0.2700
      2 C          -5.1148  -18.3982   22.0346 C.3     1  UNL1        0.0628
      3 C          -5.2626  -19.5229   21.0532 C.3     1  UNL1        0.0481
      4 C          -4.0664  -20.3388   20.6619 C.3     1  UNL1        0.1435
      5 O          -2.7223  -20.0301   21.2519 O.3     1  UNL1       -0.3537
      6 C          -2.5744  -18.9054   22.2332 C.3     1  UNL1        0.1435
      7 C          -3.7707  -18.0894   22.6246 C.3     1  UNL1        0.0481
      8 C          -6.1801  -16.5116   23.4684 C.3     1  UNL1        0.0748
      9 C          -5.0987  -16.4164   24.5035 C.3     1  UNL1        0.0344
     10 C          -5.3578  -15.1941   25.3336 C.3     1  UNL1        0.0700
     11 N          -6.5994  -14.5339   24.8115 N.3     1  UNL1       -0.2963
     12 C          -7.1076  -15.3482   23.6588 C.3     1  UNL1        0.0847
     13 H          -6.3827  -13.5878   24.4981 H       1  UNL1        0.1233
     14 C          -7.6382  -17.8368   21.7750 C.3     1  UNL1        0.0988
     15 C         -10.4085  -16.7118   22.0196 C.3     1  UNL1        0.0307
     16 C         -10.0829  -18.0427   22.6299 C.ar    1  UNL1       -0.0206
     17 C          -8.6978  -18.6053   22.5077 C.ar    1  UNL1       -0.0101
     18 C          -8.3723  -19.9362   23.1181 C.ar    1  UNL1       -0.0032
     19 C          -9.4319  -20.7046   23.8507 C.ar    1  UNL1       -0.0004
     20 C         -10.8170  -20.1421   23.9730 C.ar    1  UNL1        0.0035
     21 C         -11.1425  -18.8111   23.3626 C.ar    1  UNL1        0.0672
     22 C         -12.5277  -18.2486   23.4849 C.3     1  UNL1        0.4183
     23 F         -13.9128  -17.6861   23.6071 F       1  UNL1       -0.1659
     24 F         -12.4105  -18.2849   24.9798 F       1  UNL1       -0.1659
     25 F         -12.6449  -18.2123   21.9899 F       1  UNL1       -0.1659
@<TRIPOS>BOND
     1    15    16    1
     2    16    17   ar
     3    17    14    1
     4    14     1    1
     5     1     2    1
     6     2     3    1
     7     3     4    1
     8     4     5    1
     9     5     6    1
    10     6     7    1
    11     8     1    1
    12     8     9    1
    13     9    10    1
    14    10    11    1
    15    11    12    1
    16    17    18   ar
    17    18    19   ar
    18    19    20   ar
    19    20    21   ar
    20    21    22    1
    21    22    23    1
    22    22    24    1
    23    22    25    1
    24    21    16   ar
    25     7     2    1
    26    12     8    1
    27    11    13    1
@<TRIPOS>MOLECULE
*****
 25 27 0 0 0
SMALL
GASTEIGER

@<TRIPOS>ATOM
      1 N          -8.3440  -17.8632   22.6332 N.3     1  UNL1       -0.2700
      2 C          -9.4085  -17.8538   21.5764 C.3     1  UNL1        0.0628
      3 C          -9.6788  -19.0914   20.7732 C.3     1  UNL1        0.0481
      4 C         -10.7432  -19.0820   19.7164 C.3     1  UNL1        0.1435
      5 O         -11.5373  -17.8350   19.4628 O.3     1  UNL1       -0.3537
      6 C         -11.2670  -16.5973   20.2660 C.3     1  UNL1        0.1435
      7 C         -10.2025  -16.6068   21.3228 C.3     1  UNL1        0.0481
      8 C          -8.1004  -16.6378   23.4633 C.3     1  UNL1        0.0748
      9 C          -8.5128  -16.4446   24.8925 C.3     1  UNL1        0.0344
     10 C          -8.0690  -15.0778   25.3224 C.3     1  UNL1        0.0700
     11 N          -7.3822  -14.4262   24.1588 N.3     1  UNL1       -0.2963
     12 C          -7.4017  -15.3903   23.0099 C.3     1  UNL1        0.0847
     13 H          -6.4184  -14.2025   24.4067 H       1  UNL1        0.1233
     14 C          -7.5231  -19.0980   22.8600 C.3     1  UNL1        0.0988
     15 C          -4.7550  -17.9865   23.1799 C.3     1  UNL1        0.0307
     16 C          -5.0629  -18.9171   22.0445 C.ar    1  UNL1       -0.0206
     17 C          -6.4469  -19.4728   21.8845 C.ar    1  UNL1       -0.0101
     18 C          -6.7549  -20.4034   20.7491 C.ar    1  UNL1       -0.0032
     19 C          -5.6788  -20.7783   19.7737 C.ar    1  UNL1       -0.0004
     20 C          -4.2948  -20.2225   19.9337 C.ar    1  UNL1        0.0035
     21 C          -3.9869  -19.2919   21.0691 C.ar    1  UNL1        0.0672
     22 C          -2.6028  -18.7362   21.2291 C.3     1  UNL1        0.4183
     23 F          -1.2188  -18.1804   21.3890 F       1  UNL1       -0.1659
     24 F          -2.2296  -19.9113   22.0832 F       1  UNL1       -0.1659
     25 F          -2.9760  -17.5610   20.3749 F       1  UNL1       -0.1659
@<TRIPOS>BOND
     1    15    16    1
     2    16    17   ar
     3    17    14    1
     4    14     1    1
     5     1     2    1
     6     2     3    1
     7     3     4    1
     8     4     5    1
     9     5     6    1
    10     6     7    1
    11     8     1    1
    12     8     9    1
    13     9    10    1
    14    10    11    1
    15    11    12    1
    16    17    18   ar
    17    18    19   ar
    18    19    20   ar
    19    20    21   ar
    20    21    22    1
    21    22    23    1
    22    22    24    1
    23    22    25    1
    24    21    16   ar
    25     7     2    1
    26    12     8    1
    27    11    13    1
@<TRIPOS>MOLECULE
*****
 25 27 0 0 0
SMALL
GASTEIGER

@<TRIPOS>ATOM
      1 N          -8.2243  -16.3243   24.2335 N.3     1  UNL1       -0.2700
      2 C          -9.5259  -17.0459   24.0457 C.3     1  UNL1        0.0628
      3 C         -10.5642  -16.4904   23.1167 C.3     1  UNL1        0.0481
      4 C         -11.8657  -17.2120   22.9289 C.3     1  UNL1        0.1435
      5 O         -12.1288  -18.4893   23.6701 O.3     1  UNL1       -0.3537
      6 C         -11.0904  -19.0449   24.5991 C.3     1  UNL1        0.1435
      7 C          -9.7890  -18.3232   24.7869 C.3     1  UNL1        0.0481
      8 C          -7.8756  -15.7424   25.5714 C.3     1  UNL1        0.0748
      9 C          -6.4913  -15.5558   26.1180 C.3     1  UNL1        0.0344
     10 C          -6.6102  -14.9431   27.4820 C.3     1  UNL1        0.0700
     11 N          -8.0680  -14.7510   27.7784 N.3     1  UNL1       -0.2963
     12 C          -8.8501  -15.2450   26.5976 C.3     1  UNL1        0.0847
     13 H          -8.2624  -13.7617   27.9330 H       1  UNL1        0.1233
     14 C          -7.2715  -16.1845   23.0835 C.3     1  UNL1        0.0988
     15 C          -7.8477  -18.5894   21.3852 C.3     1  UNL1        0.0307
     16 C          -6.4955  -18.4205   22.0121 C.ar    1  UNL1       -0.0206
     17 C          -6.2074  -17.2181   22.8612 C.ar    1  UNL1       -0.0101
     18 C          -4.8552  -17.0492   23.4881 C.ar    1  UNL1       -0.0032
     19 C          -3.7911  -18.0828   23.2659 C.ar    1  UNL1       -0.0004
     20 C          -4.0792  -19.2852   22.4167 C.ar    1  UNL1        0.0035
     21 C          -5.4314  -19.4541   21.7898 C.ar    1  UNL1        0.0672
     22 C          -5.7195  -20.6566   20.9407 C.3     1  UNL1        0.4183
     23 F          -6.0076  -21.8591   20.0916 F       1  UNL1       -0.1659
     24 F          -4.9934  -20.0201   19.7928 F       1  UNL1       -0.1659
     25 F          -6.4456  -21.2931   22.0885 F       1  UNL1       -0.1659
@<TRIPOS>BOND
     1    15    16    1
     2    16    17   ar
     3    17    14    1
     4    14     1    1
     5     1     2    1
     6     2     3    1
     7     3     4    1
     8     4     5    1
     9     5     6    1
    10     6     7    1
    11     8     1    1
    12     8     9    1
    13     9    10    1
    14    10    11    1
    15    11    12    1
    16    17    18   ar
    17    18    19   ar
    18    19    20   ar
    19    20    21   ar
    20    21    22    1
    21    22    23    1
    22    22    24    1
    23    22    25    1
    24    21    16   ar
    25     7     2    1
    26    12     8    1
    27    11    13    1
@<TRIPOS>MOLECULE
*****
 25 27 0 0 0
SMALL
GASTEIGER

@<TRIPOS>ATOM
      1 N          -8.7111  -16.9128   23.9037 N.3     1  UNL1       -0.2700
      2 C          -7.9375  -16.2848   25.0249 C.3     1  UNL1        0.0628
      3 C          -6.5535  -15.7610   24.7800 C.3     1  UNL1        0.0481
      4 C          -5.7799  -15.1331   25.9012 C.3     1  UNL1        0.1435
      5 O          -6.3904  -15.0289   27.2674 O.3     1  UNL1       -0.3537
      6 C          -7.7744  -15.5526   27.5124 C.3     1  UNL1        0.1435
      7 C          -8.5480  -16.1806   26.3911 C.3     1  UNL1        0.0481
      8 C          -9.8796  -17.8037   24.2055 C.3     1  UNL1        0.0748
      9 C         -11.2942  -17.5846   23.7574 C.3     1  UNL1        0.0344
     10 C         -12.1275  -18.7156   24.2834 C.3     1  UNL1        0.0700
     11 N         -11.2278  -19.6336   25.0565 N.3     1  UNL1       -0.2963
     12 C          -9.8386  -19.0700   25.0084 C.3     1  UNL1        0.0847
     13 H         -11.2389  -20.5633   24.6371 H       1  UNL1        0.1233
     14 C          -8.3163  -16.6499   22.4807 C.3     1  UNL1        0.0988
     15 C          -5.7472  -18.1794   22.2345 C.3     1  UNL1        0.0307
     16 C          -6.9265  -18.5526   21.3860 C.ar    1  UNL1       -0.0206
     17 C          -8.2110  -17.7880   21.5091 C.ar    1  UNL1       -0.0101
     18 C          -9.3903  -18.1612   20.6606 C.ar    1  UNL1       -0.0032
     19 C          -9.2850  -19.2991   19.6890 C.ar    1  UNL1       -0.0004
     20 C          -8.0005  -20.0638   19.5659 C.ar    1  UNL1        0.0035
     21 C          -6.8212  -19.6905   20.4145 C.ar    1  UNL1        0.0672
     22 C          -5.5366  -20.4553   20.2914 C.3     1  UNL1        0.4183
     23 F          -4.2521  -21.2199   20.1683 F       1  UNL1       -0.1659
     24 F          -6.1367  -21.5887   21.0693 F       1  UNL1       -0.1659
     25 F          -4.9365  -19.3219   19.5134 F       1  UNL1       -0.1659
@<TRIPOS>BOND
     1    15    16    1
     2    16    17   ar
     3    17    14    1
     4    14     1    1
     5     1     2    1
     6     2     3    1
     7     3     4    1
     8     4     5    1
     9     5     6    1
    10     6     7    1
    11     8     1    1
    12     8     9    1
    13     9    10    1
    14    10    11    1
    15    11    12    1
    16    17    18   ar
    17    18    19   ar
    18    19    20   ar
    19    20    21   ar
    20    21    22    1
    21    22    23    1
    22    22    24    1
    23    22    25    1
    24    21    16   ar
    25     7     2    1
    26    12     8    1
    27    11    13    1
@<TRIPOS>MOLECULE
*****
 25 27 0 0 0
SMALL
GASTEIGER

@<TRIPOS>ATOM
      1 N          -9.1457  -17.6060   23.7657 N.3     1  UNL1       -0.2700
      2 C         -10.6220  -17.4393   23.5590 C.3     1  UNL1        0.0628
      3 C         -11.1394  -16.3024   22.7285 C.3     1  UNL1        0.0481
      4 C         -12.6157  -16.1357   22.5219 C.3     1  UNL1        0.1435
      5 O         -13.5746  -17.1060   23.1458 O.3     1  UNL1       -0.3537
      6 C         -13.0572  -18.2428   23.9763 C.3     1  UNL1        0.1435
      7 C         -11.5809  -18.4095   24.1829 C.3     1  UNL1        0.0481
      8 C          -8.3380  -16.4829   24.3454 C.3     1  UNL1        0.0748
      9 C          -8.1820  -16.1704   25.8042 C.3     1  UNL1        0.0344
     10 C          -7.2921  -14.9694   25.9285 C.3     1  UNL1        0.0700
     11 N          -6.8980  -14.5395   24.5466 N.3     1  UNL1       -0.2963
     12 C          -7.5444  -15.4749   23.5682 C.3     1  UNL1        0.0847
     13 H          -5.8837  -14.5813   24.4471 H       1  UNL1        0.1233
     14 C          -8.4771  -18.8959   23.3926 C.3     1  UNL1        0.0988
     15 C          -5.6335  -19.3126   22.5322 C.3     1  UNL1        0.0307
     16 C          -6.7419  -19.3983   21.5253 C.ar    1  UNL1       -0.0206
     17 C          -8.1637  -19.1900   21.9554 C.ar    1  UNL1       -0.0101
     18 C          -9.2722  -19.2757   20.9485 C.ar    1  UNL1       -0.0032
     19 C          -8.9589  -19.5698   19.5114 C.ar    1  UNL1       -0.0004
     20 C          -7.5371  -19.7781   19.0812 C.ar    1  UNL1        0.0035
     21 C          -6.4286  -19.6924   20.0882 C.ar    1  UNL1        0.0672
     22 C          -5.0068  -19.9007   19.6579 C.3     1  UNL1        0.4183
     23 F          -3.5850  -20.1091   19.2277 F       1  UNL1       -0.1659
     24 F          -4.9069  -18.4511   19.2859 F       1  UNL1       -0.1659
     25 F          -5.1067  -21.3504   20.0300 F       1  UNL1       -0.1659
@<TRIPOS>BOND
     1    15    16    1
     2    16    17   ar
     3    17    14    1
     4    14     1    1
     5     1     2    1
     6     2     3    1
     7     3     4    1
     8     4     5    1
     9     5     6    1
    10     6     7    1
    11     8     1    1
    12     8     9    1
    13     9    10    1
    14    10    11    1
    15    11    12    1
    16    17    18   ar
    17    18    19   ar
    18    19    20   ar
    19    20    21   ar
    20    21    22    1
    21    22    23    1
    22    22    24    1
    23    22    25    1
    24    21    16   ar
    25     7     2    1
    26    12     8    1
    27    11    13    1
@<TRIPOS>MOLECULE
*****
 25 27 0 0 0
SMALL
GASTEIGER

@<TRIPOS>ATOM
      1 N          -6.9258  -18.2741   22.5865 N.3     1  UNL1       -0.2700
      2 C          -5.5773  -18.6130   22.0238 C.3     1  UNL1        0.0628
      3 C          -4.3361  -18.2740   22.7949 C.3     1  UNL1        0.0481
      4 C          -2.9876  -18.6129   22.2323 C.3     1  UNL1        0.1435
      5 O          -2.8803  -19.2907   20.8985 O.3     1  UNL1       -0.3537
      6 C          -4.1214  -19.6297   20.1274 C.3     1  UNL1        0.1435
      7 C          -5.4699  -19.2908   20.6901 C.3     1  UNL1        0.0481
      8 C          -7.1805  -16.9088   23.1532 C.3     1  UNL1        0.0748
      9 C          -7.2664  -16.5607   24.6097 C.3     1  UNL1        0.0344
     10 C          -7.5330  -15.0887   24.7196 C.3     1  UNL1        0.0700
     11 N          -7.6119  -14.5270   23.3310 N.3     1  UNL1       -0.2963
     12 C          -7.3941  -15.6519   22.3629 C.3     1  UNL1        0.0847
     13 H          -6.8914  -13.8163   23.2036 H       1  UNL1        0.1233
     14 C          -8.0197  -19.3005   22.5825 C.3     1  UNL1        0.0988
     15 C          -9.7809  -17.7036   20.7526 C.3     1  UNL1        0.0307
     16 C         -10.2855  -18.1237   22.1013 C.ar    1  UNL1       -0.0206
     17 C          -9.4049  -18.9221   23.0163 C.ar    1  UNL1       -0.0101
     18 C          -9.9094  -19.3421   24.3650 C.ar    1  UNL1       -0.0032
     19 C         -11.2945  -18.9637   24.7988 C.ar    1  UNL1       -0.0004
     20 C         -12.1751  -18.1653   23.8838 C.ar    1  UNL1        0.0035
     21 C         -11.6706  -17.7453   22.5351 C.ar    1  UNL1        0.0672
     22 C         -12.5512  -16.9469   21.6202 C.3     1  UNL1        0.4183
     23 F         -13.4318  -16.1485   20.7053 F       1  UNL1       -0.1659
     24 F         -13.1284  -18.2164   21.0678 F       1  UNL1       -0.1659
     25 F         -11.9741  -15.6774   22.1726 F       1  UNL1       -0.1659
@<TRIPOS>BOND
     1    15    16    1
     2    16    17   ar
     3    17    14    1
     4    14     1    1
     5     1     2    1
     6     2     3    1
     7     3     4    1
     8     4     5    1
     9     5     6    1
    10     6     7    1
    11     8     1    1
    12     8     9    1
    13     9    10    1
    14    10    11    1
    15    11    12    1
    16    17    18   ar
    17    18    19   ar
    18    19    20   ar
    19    20    21   ar
    20    21    22    1
    21    22    23    1
    22    22    24    1
    23    22    25    1
    24    21    16   ar
    25     7     2    1
    26    12     8    1
    27    11    13    1
@<TRIPOS>MOLECULE
*****
 25 27 0 0 0
SMALL
GASTEIGER

@<TRIPOS>ATOM
      1 N          -8.8798  -17.5271   21.5340 N.3     1  UNL1       -0.2700
      2 C         -10.3097  -17.2374   21.1851 C.3     1  UNL1        0.0628
      3 C         -11.4118  -18.0392   21.8115 C.3     1  UNL1        0.0481
      4 C         -12.8416  -17.7495   21.4626 C.3     1  UNL1        0.1435
      5 O         -13.1692  -16.6579   20.4873 O.3     1  UNL1       -0.3537
      6 C         -12.0671  -15.8561   19.8609 C.3     1  UNL1        0.1435
      7 C         -10.6373  -16.1458   20.2099 C.3     1  UNL1        0.0481
      8 C          -8.1743  -18.6899   20.9015 C.3     1  UNL1        0.0748
      9 C          -6.8939  -19.3095   21.3777 C.3     1  UNL1        0.0344
     10 C          -6.5535  -20.4398   20.4522 C.3     1  UNL1        0.0700
     11 N          -7.6235  -20.5187   19.4039 N.3     1  UNL1       -0.2963
     12 C          -8.6252  -19.4373   19.6816 C.3     1  UNL1        0.0847
     13 H          -8.0790  -21.4306   19.4423 H       1  UNL1        0.1233
     14 C          -8.1556  -16.6541   22.5155 C.3     1  UNL1        0.0988
     15 C          -6.8214  -14.8112   24.4709 C.3     1  UNL1        0.0307
     16 C          -7.7270  -15.9003   24.9646 C.ar    1  UNL1       -0.0206
     17 C          -8.3941  -16.8217   23.9869 C.ar    1  UNL1       -0.0101
     18 C          -9.2998  -17.9107   24.4806 C.ar    1  UNL1       -0.0032
     19 C          -9.5384  -18.0784   25.9520 C.ar    1  UNL1       -0.0004
     20 C          -8.8712  -17.1570   26.9296 C.ar    1  UNL1        0.0035
     21 C          -7.9656  -16.0679   26.4360 C.ar    1  UNL1        0.0672
     22 C          -7.2984  -15.1465   27.4137 C.3     1  UNL1        0.4183
     23 F          -6.6313  -14.2251   28.3915 F       1  UNL1       -0.1659
     24 F          -8.6230  -14.5130   27.7205 F       1  UNL1       -0.1659
     25 F          -5.9739  -15.7800   27.1070 F       1  UNL1       -0.1659
@<TRIPOS>BOND
     1    15    16    1
     2    16    17   ar
     3    17    14    1
     4    14     1    1
     5     1     2    1
     6     2     3    1
     7     3     4    1
     8     4     5    1
     9     5     6    1
    10     6     7    1
    11     8     1    1
    12     8     9    1
    13     9    10    1
    14    10    11    1
    15    11    12    1
    16    17    18   ar
    17    18    19   ar
    18    19    20   ar
    19    20    21   ar
    20    21    22    1
    21    22    23    1
    22    22    24    1
    23    22    25    1
    24    21    16   ar
    25     7     2    1
    26    12     8    1
    27    11    13    1
