@<TRIPOS>MOLECULE
*****
 29 32 0 0 0
SMALL
GASTEIGER

@<TRIPOS>ATOM
      1 C          -7.6930  -18.1406   22.6451 C.3     1  UNL1        0.2026
      2 C          -8.5708  -18.4501   21.4688 C.ar    1  UNL1        0.0163
      3 C          -8.5134  -19.5312   20.4306 C.ar    1  UNL1        0.0104
      4 C          -9.5523  -19.5894   19.3502 C.ar    1  UNL1        0.0583
      5 CL         -9.4950  -20.6706   18.3120 Cl      1  UNL1       -0.0822
      6 C         -10.6486  -18.5665   19.3081 C.ar    1  UNL1        0.0224
      7 C         -10.7060  -17.4854   20.3463 C.ar    1  UNL1        0.0544
      8 CL        -11.8023  -16.4625   20.3041 Cl      1  UNL1       -0.0826
      9 C          -9.6671  -17.4272   21.4266 C.ar    1  UNL1       -0.0106
     10 C          -9.4668  -16.4855   22.5769 C.3     1  UNL1        0.0470
     11 C          -8.2468  -16.9264   23.3300 C.3     1  UNL1        0.1067
     12 N          -7.6801  -16.2686   24.5531 N.3     1  UNL1       -0.2679
     13 C          -8.4971  -16.1889   25.8086 C.3     1  UNL1        0.0895
     14 C          -7.9303  -15.5311   27.0317 C.3     1  UNL1        0.0862
     15 N          -6.5466  -14.9530   26.9994 N.3     1  UNL1       -0.2951
     16 C          -5.7297  -15.0326   25.7440 C.3     1  UNL1        0.0862
     17 C          -6.2964  -15.6904   24.5209 C.3     1  UNL1        0.0895
     18 H          -6.0128  -15.4259   27.7287 H       1  UNL1        0.1233
     19 O          -6.4752  -18.9101   23.0631 O.3     1  UNL1       -0.4734
     20 C          -2.4914  -18.0212   21.1686 C.ar    1  UNL1        0.1059
     21 C          -3.5192  -18.8140   20.4169 C.ar    1  UNL1        0.0215
     22 C          -4.8472  -19.1103   21.0484 C.ar    1  UNL1        0.0382
     23 C          -5.1473  -18.6139   22.4316 C.ar    1  UNL1        0.1390
     24 C          -4.1195  -17.8211   23.1834 C.ar    1  UNL1        0.0382
     25 C          -2.7915  -17.5248   22.5519 C.ar    1  UNL1        0.0215
     26 C           0.1645  -17.4286   19.9057 C.3     1  UNL1        0.1816
     27 S          -1.1635  -17.7249   20.5372 S.O2    1  UNL1        0.0105
     28 O          -1.0324  -19.1647   20.1370 O.2     1  UNL1       -0.1686
     29 O          -1.2945  -16.2852   20.9372 O.2     1  UNL1       -0.1686
@<TRIPOS>BOND
     1    26    27    1
     2    27    28    2
     3    27    29    2
     4    27    20    1
     5    20    21   ar
     6    21    22   ar
     7    22    23   ar
     8    23    19    1
     9     1    19    1
    10     1     2    1
    11     2     3   ar
    12     3     4   ar
    13     4     5    1
    14     4     6   ar
    15     6     7   ar
    16     7     8    1
    17     7     9   ar
    18     9    10    1
    19    10    11    1
    20    11    12    1
    21    12    13    1
    22    13    14    1
    23    14    15    1
    24    15    16    1
    25    16    17    1
    26    23    24   ar
    27    24    25   ar
    28    25    20   ar
    29    11     1    1
    30    17    12    1
    31     9     2   ar
    32    15    18    1
@<TRIPOS>MOLECULE
*****
 29 32 0 0 0
SMALL
GASTEIGER

@<TRIPOS>ATOM
      1 C         -13.8370   -5.7308   17.6022 C.3     1  UNL1        0.2026
      2 C         -12.3729   -5.4238   17.4906 C.ar    1  UNL1        0.0163
      3 C         -11.6317   -4.2869   16.8519 C.ar    1  UNL1        0.0104
      4 C         -10.1330   -4.2472   16.9006 C.ar    1  UNL1        0.0583
      5 CL         -9.3916   -3.1103   16.2619 Cl      1  UNL1       -0.0822
      6 C          -9.3756   -5.3444   17.5881 C.ar    1  UNL1        0.0224
      7 C         -10.1169   -6.4812   18.2269 C.ar    1  UNL1        0.0544
      8 CL         -9.3596   -7.5784   18.9143 Cl      1  UNL1       -0.0826
      9 C         -11.6156   -6.5209   18.1781 C.ar    1  UNL1       -0.0106
     10 C         -12.6115   -7.5060   18.7145 C.3     1  UNL1        0.0470
     11 C         -13.9844   -7.0177   18.3586 C.3     1  UNL1        0.1067
     12 N         -15.2777   -7.6969   18.6992 N.3     1  UNL1       -0.2679
     13 C         -16.3367   -6.9555   19.4599 C.3     1  UNL1        0.0895
     14 C         -17.6299   -7.6348   19.8005 C.3     1  UNL1        0.0862
     15 N         -17.8642   -9.0555   19.3805 N.3     1  UNL1       -0.2951
     16 C         -16.8052   -9.7970   18.6198 C.3     1  UNL1        0.0862
     17 C         -15.5120   -9.1177   18.2791 C.3     1  UNL1        0.0895
     18 H         -18.7008   -9.0559   18.7969 H       1  UNL1        0.1233
     19 O         -14.9569   -4.8972   17.0536 O.3     1  UNL1       -0.4734
     20 C         -16.4528   -1.3373   19.3642 C.ar    1  UNL1        0.1059
     21 C         -17.1741   -1.7860   18.1279 C.ar    1  UNL1        0.0215
     22 C         -16.6755   -2.9727   17.3577 C.ar    1  UNL1        0.0382
     23 C         -15.4555   -3.7106   17.8237 C.ar    1  UNL1        0.1390
     24 C         -14.7342   -3.2618   19.0600 C.ar    1  UNL1        0.0382
     25 C         -15.2328   -2.0752   19.8303 C.ar    1  UNL1        0.0215
     26 C         -17.4500    1.0360   20.9046 C.3     1  UNL1        0.1816
     27 S         -16.9514   -0.1506   20.1344 S.O2    1  UNL1        0.0105
     28 O         -15.7622    0.6433   19.6812 O.2     1  UNL1       -0.1686
     29 O         -18.1407   -0.9445   20.5876 O.2     1  UNL1       -0.1686
@<TRIPOS>BOND
     1    26    27    1
     2    27    28    2
     3    27    29    2
     4    27    20    1
     5    20    21   ar
     6    21    22   ar
     7    22    23   ar
     8    23    19    1
     9     1    19    1
    10     1     2    1
    11     2     3   ar
    12     3     4   ar
    13     4     5    1
    14     4     6   ar
    15     6     7   ar
    16     7     8    1
    17     7     9   ar
    18     9    10    1
    19    10    11    1
    20    11    12    1
    21    12    13    1
    22    13    14    1
    23    14    15    1
    24    15    16    1
    25    16    17    1
    26    23    24   ar
    27    24    25   ar
    28    25    20   ar
    29    11     1    1
    30    17    12    1
    31     9     2   ar
    32    15    18    1
@<TRIPOS>MOLECULE
*****
 29 32 0 0 0
SMALL
GASTEIGER

@<TRIPOS>ATOM
      1 C         -16.6703   -6.5730   19.3381 C.3     1  UNL1        0.2026
      2 C         -17.1307   -7.9405   18.9283 C.ar    1  UNL1        0.0163
      3 C         -16.5844   -9.3092   19.2079 C.ar    1  UNL1        0.0104
      4 C         -17.2739  -10.5198   18.6521 C.ar    1  UNL1        0.0583
      5 CL        -16.7275  -11.8886   18.9318 Cl      1  UNL1       -0.0822
      6 C         -18.5096  -10.3618   17.8167 C.ar    1  UNL1        0.0224
      7 C         -19.0559   -8.9932   17.5371 C.ar    1  UNL1        0.0544
      8 CL        -20.2917   -8.8351   16.7017 Cl      1  UNL1       -0.0826
      9 C         -18.3665   -7.7825   18.0929 C.ar    1  UNL1       -0.0106
     10 C         -18.6697   -6.3173   17.9864 C.3     1  UNL1        0.0470
     11 C         -17.6214   -5.5698   18.7560 C.3     1  UNL1        0.1067
     12 N         -17.5388   -4.0806   18.9154 N.3     1  UNL1       -0.2679
     13 C         -16.6188   -3.2825   18.0399 C.3     1  UNL1        0.0895
     14 C         -16.5362   -1.7933   18.1994 C.3     1  UNL1        0.0862
     15 N         -17.3735   -1.1022   19.2343 N.3     1  UNL1       -0.2951
     16 C         -18.2935   -1.9003   20.1098 C.3     1  UNL1        0.0862
     17 C         -18.3762   -3.3895   19.9504 C.3     1  UNL1        0.0895
     18 H         -17.9527   -0.4239   18.7395 H       1  UNL1        0.1233
     19 O         -15.4694   -6.2631   20.1819 O.3     1  UNL1       -0.4734
     20 C         -11.5746   -5.1410   18.2271 C.ar    1  UNL1        0.1059
     21 C         -12.2246   -4.2007   19.1984 C.ar    1  UNL1        0.0215
     22 C         -13.5229   -4.5748   19.8500 C.ar    1  UNL1        0.0382
     23 C         -14.1712   -5.8891   19.5304 C.ar    1  UNL1        0.1390
     24 C         -13.5212   -6.8294   18.5590 C.ar    1  UNL1        0.0382
     25 C         -12.2229   -6.4554   17.9074 C.ar    1  UNL1        0.0215
     26 C          -8.9781   -4.3930   16.9239 C.3     1  UNL1        0.1816
     27 S         -10.2764   -4.7670   17.5755 S.O2    1  UNL1        0.0105
     28 O          -9.6493   -4.5894   18.9266 O.2     1  UNL1       -0.1686
     29 O         -10.9033   -4.9445   16.2245 O.2     1  UNL1       -0.1686
@<TRIPOS>BOND
     1    26    27    1
     2    27    28    2
     3    27    29    2
     4    27    20    1
     5    20    21   ar
     6    21    22   ar
     7    22    23   ar
     8    23    19    1
     9     1    19    1
    10     1     2    1
    11     2     3   ar
    12     3     4   ar
    13     4     5    1
    14     4     6   ar
    15     6     7   ar
    16     7     8    1
    17     7     9   ar
    18     9    10    1
    19    10    11    1
    20    11    12    1
    21    12    13    1
    22    13    14    1
    23    14    15    1
    24    15    16    1
    25    16    17    1
    26    23    24   ar
    27    24    25   ar
    28    25    20   ar
    29    11     1    1
    30    17    12    1
    31     9     2   ar
    32    15    18    1
