@<TRIPOS>MOLECULE
*****
 30 33 0 0 0
SMALL
GASTEIGER

@<TRIPOS>ATOM
      1 C           2.9510    1.3418   18.3540 C.ar    1  UNL1        0.1431
      2 C           2.7394    2.8048   18.6085 C.ar    1  UNL1        0.0377
      3 C           3.8632    3.7743   18.3911 C.ar    1  UNL1        0.0134
      4 C           5.1988    3.2807   17.9193 C.ar    1  UNL1        0.0688
      5 C           5.4104    1.8176   17.6648 C.ar    1  UNL1        0.0178
      6 C           4.2866    0.8482   17.8822 C.ar    1  UNL1        0.0881
      7 C           4.4984   -0.6148   17.6277 C.2     1  UNL1        0.2525
      8 O           4.0652   -1.2199   16.3253 O.2     1  UNL1       -0.2698
      9 N           5.1433   -1.4727   18.6755 N.am    1  UNL1       -0.2660
     10 C           5.6258   -1.0110   20.0187 C.3     1  UNL1        0.1236
     11 C           6.1996   -2.1959   20.7374 C.ar    1  UNL1        0.0334
     12 C           6.8525   -2.6429   22.0118 C.ar    1  UNL1        0.0936
     13 N           7.1282   -4.1132   21.9005 N.ar    1  UNL1       -0.2519
     14 N           6.6457   -4.5749   20.5573 N.ar    1  UNL1       -0.1723
     15 C           6.0718   -3.3900   19.8386 C.ar    1  UNL1        0.0977
     16 C           5.4189   -2.9430   18.5642 C.3     1  UNL1        0.1414
     17 C           7.7731   -4.9711   22.9483 C.3     1  UNL1        0.1052
     18 C           7.4869   -4.9300   24.4203 C.3     1  UNL1        0.0244
     19 C           8.3544   -5.9543   25.0899 C.3     1  UNL1        0.0021
     20 C           9.1767   -6.6284   24.0319 C.3     1  UNL1        0.0021
     21 C           8.8175   -6.0208   22.7084 C.3     1  UNL1        0.0244
     22 C           6.3226    4.2501   17.7019 C.1     1  UNL1        0.1004
     23 N           7.4464    5.2195   17.4846 N.1     1  UNL1       -0.1908
     24 O           1.8272    0.3724   18.5714 O.3     1  UNL1       -0.4702
     25 C           0.0394    0.6756   20.4320 C.3     1  UNL1        0.0566
     26 C           1.3379    0.0907   19.9611 C.3     1  UNL1        0.2599
     27 C           2.1472   -0.7759   20.8797 C.3     1  UNL1        0.4340
     28 F           2.9564   -1.6425   21.7985 F       1  UNL1       -0.1664
     29 F           2.0821    0.2851   21.9381 F       1  UNL1       -0.1664
     30 F           2.2124   -1.8370   19.8215 F       1  UNL1       -0.1664
@<TRIPOS>BOND
     1    26    25    1
     2    26    24    1
     3    24     1    1
     4     1     2   ar
     5     2     3   ar
     6     3     4   ar
     7     4    22    1
     8    22    23    3
     9     4     5   ar
    10     5     6   ar
    11     6     7    1
    12     7     8    2
    13     7     9   am
    14     9    10    1
    15    10    11    1
    16    11    12   ar
    17    12    13   ar
    18    13    17    1
    19    17    18    1
    20    18    19    1
    21    19    20    1
    22    20    21    1
    23    13    14   ar
    24    14    15   ar
    25    15    16    1
    26    26    27    1
    27    27    28    1
    28    27    29    1
    29    27    30    1
    30     6     1   ar
    31    16     9    1
    32    15    11   ar
    33    21    17    1
@<TRIPOS>MOLECULE
*****
 30 33 0 0 0
SMALL
GASTEIGER

@<TRIPOS>ATOM
      1 C          -3.7523    3.3785   20.5925 C.ar    1  UNL1        0.1431
      2 C          -4.8463    3.2215   21.6065 C.ar    1  UNL1        0.0377
      3 C          -4.5303    3.3079   23.0703 C.ar    1  UNL1        0.0134
      4 C          -3.1202    3.5513   23.5201 C.ar    1  UNL1        0.0688
      5 C          -2.0261    3.7083   22.5060 C.ar    1  UNL1        0.0178
      6 C          -2.3421    3.6219   21.0422 C.ar    1  UNL1        0.0881
      7 C          -1.2479    3.7789   20.0282 C.2     1  UNL1        0.2525
      8 O          -1.1317    5.0504   19.2410 O.2     1  UNL1       -0.2698
      9 N          -0.2700    2.6643   19.8014 N.am    1  UNL1       -0.2660
     10 C          -0.2605    1.3420   20.5094 C.3     1  UNL1        0.1236
     11 C           0.8855    0.5369   19.9723 C.ar    1  UNL1        0.0334
     12 C           1.5996   -0.7780   20.0779 C.ar    1  UNL1        0.0936
     13 N           2.7398   -0.7659   19.1033 N.ar    1  UNL1       -0.2519
     14 N           2.7303    0.5566   18.3953 N.ar    1  UNL1       -0.1723
     15 C           1.5843    1.3617   18.9324 C.ar    1  UNL1        0.0977
     16 C           0.8701    2.6765   18.8267 C.3     1  UNL1        0.1414
     17 C           3.7177   -1.8803   18.8764 C.3     1  UNL1        0.1052
     18 C           5.0763   -1.7483   18.2544 C.3     1  UNL1        0.0244
     19 C           5.7070   -3.1089   18.2253 C.3     1  UNL1        0.0021
     20 C           4.7383   -4.0819   18.8294 C.3     1  UNL1        0.0021
     21 C           3.5088   -3.3226   19.2318 C.3     1  UNL1        0.0244
     22 C          -2.8042    3.6378   24.9839 C.1     1  UNL1        0.1004
     23 N          -2.4882    3.7242   26.4477 N.1     1  UNL1       -0.1908
     24 O          -4.0682    3.2920   19.1287 O.3     1  UNL1       -0.4702
     25 C          -4.2403    5.4567   17.7023 C.3     1  UNL1        0.0566
     26 C          -4.9015    4.3556   18.4772 C.3     1  UNL1        0.2599
     27 C          -6.3959    4.3181   18.6007 C.3     1  UNL1        0.4340
     28 F          -7.8903    4.2805   18.7241 F       1  UNL1       -0.1664
     29 F          -6.3654    2.8208   18.5151 F       1  UNL1       -0.1664
     30 F          -6.4265    5.8153   18.6862 F       1  UNL1       -0.1664
@<TRIPOS>BOND
     1    26    25    1
     2    26    24    1
     3    24     1    1
     4     1     2   ar
     5     2     3   ar
     6     3     4   ar
     7     4    22    1
     8    22    23    3
     9     4     5   ar
    10     5     6   ar
    11     6     7    1
    12     7     8    2
    13     7     9   am
    14     9    10    1
    15    10    11    1
    16    11    12   ar
    17    12    13   ar
    18    13    17    1
    19    17    18    1
    20    18    19    1
    21    19    20    1
    22    20    21    1
    23    13    14   ar
    24    14    15   ar
    25    15    16    1
    26    26    27    1
    27    27    28    1
    28    27    29    1
    29    27    30    1
    30     6     1   ar
    31    16     9    1
    32    15    11   ar
    33    21    17    1
@<TRIPOS>MOLECULE
*****
 30 33 0 0 0
SMALL
GASTEIGER

@<TRIPOS>ATOM
      1 C           4.0283   -1.1715   18.7229 C.ar    1  UNL1        0.1431
      2 C           5.4002   -1.4479   18.1831 C.ar    1  UNL1        0.0377
      3 C           6.1927   -0.3442   17.5477 C.ar    1  UNL1        0.0134
      4 C           5.6133    1.0360   17.4520 C.ar    1  UNL1        0.0688
      5 C           4.2413    1.3125   17.9918 C.ar    1  UNL1        0.0178
      6 C           3.4488    0.2088   18.6272 C.ar    1  UNL1        0.0881
      7 C           2.0769    0.4854   19.1670 C.2     1  UNL1        0.2525
      8 O           0.9100    0.5922   18.2305 O.2     1  UNL1       -0.2698
      9 N           1.8719    0.6551   20.6432 N.am    1  UNL1       -0.2660
     10 C           2.9372    0.5758   21.6962 C.3     1  UNL1        0.1236
     11 C           2.2892    0.8056   23.0293 C.ar    1  UNL1        0.0334
     12 C           2.5471    0.8986   24.5040 C.ar    1  UNL1        0.0936
     13 N           1.2407    1.1775   25.1865 N.ar    1  UNL1       -0.2519
     14 N           0.1754    1.2568   24.1334 N.ar    1  UNL1       -0.1723
     15 C           0.8234    1.0270   22.8003 C.ar    1  UNL1        0.0977
     16 C           0.5655    0.9340   21.3255 C.3     1  UNL1        0.1414
     17 C           1.0357    1.3472   26.6626 C.3     1  UNL1        0.1052
     18 C           2.0745    1.7839   27.6526 C.3     1  UNL1        0.0244
     19 C           1.4366    1.8166   29.0098 C.3     1  UNL1        0.0021
     20 C           0.0036    1.4001   28.8587 C.3     1  UNL1        0.0021
     21 C          -0.2443    1.1100   27.4080 C.3     1  UNL1        0.0244
     22 C           6.4058    2.1397   16.8166 C.1     1  UNL1        0.1004
     23 N           7.1983    3.2434   16.1811 N.1     1  UNL1       -0.1908
     24 O           3.2358   -2.2751   19.3583 O.3     1  UNL1       -0.4702
     25 C           4.2862   -3.2429   21.5286 C.3     1  UNL1        0.0566
     26 C           3.9410   -3.3876   20.0761 C.3     1  UNL1        0.2599
     27 C           4.3010   -4.6447   19.3412 C.3     1  UNL1        0.4340
     28 F           4.6611   -5.9018   18.6063 F       1  UNL1       -0.1664
     29 F           5.7387   -4.4583   19.7265 F       1  UNL1       -0.1664
     30 F           2.8634   -4.8312   18.9558 F       1  UNL1       -0.1664
@<TRIPOS>BOND
     1    26    25    1
     2    26    24    1
     3    24     1    1
     4     1     2   ar
     5     2     3   ar
     6     3     4   ar
     7     4    22    1
     8    22    23    3
     9     4     5   ar
    10     5     6   ar
    11     6     7    1
    12     7     8    2
    13     7     9   am
    14     9    10    1
    15    10    11    1
    16    11    12   ar
    17    12    13   ar
    18    13    17    1
    19    17    18    1
    20    18    19    1
    21    19    20    1
    22    20    21    1
    23    13    14   ar
    24    14    15   ar
    25    15    16    1
    26    26    27    1
    27    27    28    1
    28    27    29    1
    29    27    30    1
    30     6     1   ar
    31    16     9    1
    32    15    11   ar
    33    21    17    1
@<TRIPOS>MOLECULE
*****
 30 33 0 0 0
SMALL
GASTEIGER

@<TRIPOS>ATOM
      1 C          -2.2458    3.5936   23.5212 C.ar    1  UNL1        0.1431
      2 C          -3.7014    3.4019   23.8285 C.ar    1  UNL1        0.0377
      3 C          -4.6973    3.3032   22.7111 C.ar    1  UNL1        0.0134
      4 C          -4.2376    3.3961   21.2864 C.ar    1  UNL1        0.0688
      5 C          -2.7819    3.5878   20.9790 C.ar    1  UNL1        0.0178
      6 C          -1.7860    3.6865   22.0964 C.ar    1  UNL1        0.0881
      7 C          -0.3304    3.8782   21.7890 C.2     1  UNL1        0.2525
      8 O           0.3051    5.2237   21.9775 O.2     1  UNL1       -0.2698
      9 N           0.4896    2.7242   21.2930 N.am    1  UNL1       -0.2660
     10 C          -0.0051    1.3280   21.0570 C.3     1  UNL1        0.1236
     11 C           1.1480    0.5049   20.5641 C.ar    1  UNL1        0.0334
     12 C           1.5549   -0.8668   20.1136 C.ar    1  UNL1        0.0936
     13 N           3.0137   -0.8271   19.7665 N.ar    1  UNL1       -0.2519
     14 N           3.5083    0.5693   20.0026 N.ar    1  UNL1       -0.1723
     15 C           2.3553    1.3924   20.4955 C.ar    1  UNL1        0.0977
     16 C           1.9484    2.7641   20.9459 C.3     1  UNL1        0.1414
     17 C           3.8337   -1.9809   19.2706 C.3     1  UNL1        0.1052
     18 C           3.4944   -3.4340   19.4235 C.3     1  UNL1        0.0244
     19 C           4.5881   -4.2355   18.7821 C.3     1  UNL1        0.0021
     20 C           5.6034   -3.2777   18.2327 C.3     1  UNL1        0.0021
     21 C           5.1372   -1.8843   18.5346 C.3     1  UNL1        0.0244
     22 C          -5.2334    3.2973   20.1690 C.1     1  UNL1        0.1004
     23 N          -6.2293    3.1986   19.0516 N.1     1  UNL1       -0.1908
     24 O          -1.2500    3.6923   24.6385 O.3     1  UNL1       -0.4702
     25 C           0.2702    1.5871   24.5543 C.3     1  UNL1        0.0566
     26 C          -0.7202    2.4459   25.2833 C.3     1  UNL1        0.2599
     27 C          -1.1808    2.0583   26.6572 C.3     1  UNL1        0.4340
     28 F          -1.6415    1.6707   28.0311 F       1  UNL1       -0.1664
     29 F          -0.3252    0.8277   26.5970 F       1  UNL1       -0.1664
     30 F          -2.0365    3.2888   26.7175 F       1  UNL1       -0.1664
@<TRIPOS>BOND
     1    26    25    1
     2    26    24    1
     3    24     1    1
     4     1     2   ar
     5     2     3   ar
     6     3     4   ar
     7     4    22    1
     8    22    23    3
     9     4     5   ar
    10     5     6   ar
    11     6     7    1
    12     7     8    2
    13     7     9   am
    14     9    10    1
    15    10    11    1
    16    11    12   ar
    17    12    13   ar
    18    13    17    1
    19    17    18    1
    20    18    19    1
    21    19    20    1
    22    20    21    1
    23    13    14   ar
    24    14    15   ar
    25    15    16    1
    26    26    27    1
    27    27    28    1
    28    27    29    1
    29    27    30    1
    30     6     1   ar
    31    16     9    1
    32    15    11   ar
    33    21    17    1
@<TRIPOS>MOLECULE
*****
 30 33 0 0 0
SMALL
GASTEIGER

@<TRIPOS>ATOM
      1 C          -0.5938    1.7529   26.8846 C.ar    1  UNL1        0.1431
      2 C          -1.2705    1.0573   28.0283 C.ar    1  UNL1        0.0377
      3 C          -0.4501    0.3728   29.0812 C.ar    1  UNL1        0.0134
      4 C           1.0471    0.3840   28.9903 C.ar    1  UNL1        0.0688
      5 C           1.7238    1.0796   27.8465 C.ar    1  UNL1        0.0178
      6 C           0.9034    1.7641   26.7937 C.ar    1  UNL1        0.0881
      7 C           1.5803    2.4597   25.6500 C.2     1  UNL1        0.2525
      8 O           1.6522    3.9577   25.6200 O.2     1  UNL1       -0.2698
      9 N           2.1851    1.6573   24.5363 N.am    1  UNL1       -0.2660
     10 C           2.1910    0.1611   24.4299 C.3     1  UNL1        0.1236
     11 C           2.8998   -0.2105   23.1613 C.ar    1  UNL1        0.0334
     12 C           3.3415   -1.3650   22.3115 C.ar    1  UNL1        0.0936
     13 N           4.0468   -0.8120   21.1086 N.ar    1  UNL1       -0.2519
     14 N           4.0410    0.6843   21.2151 N.ar    1  UNL1       -0.1723
     15 C           3.3321    1.0559   22.4837 C.ar    1  UNL1        0.0977
     16 C           2.8904    2.2104   23.3335 C.3     1  UNL1        0.1414
     17 C           4.6517   -1.6143   19.9950 C.3     1  UNL1        0.1052
     18 C           5.6215   -1.1074   18.9690 C.3     1  UNL1        0.0244
     19 C           5.9622   -2.2442   18.0516 C.3     1  UNL1        0.0021
     20 C           5.2030   -3.4537   18.5106 C.3     1  UNL1        0.0021
     21 C           4.3931   -3.0644   19.7116 C.3     1  UNL1        0.0244
     22 C           1.8675   -0.3005   30.0431 C.1     1  UNL1        0.1004
     23 N           2.6878   -0.9850   31.0959 N.1     1  UNL1       -0.1908
     24 O          -1.4142    2.4374   25.8318 O.3     1  UNL1       -0.4702
     25 C          -1.7157    4.7762   26.9222 C.3     1  UNL1        0.0566
     26 C          -2.2940    3.5948   26.2013 C.3     1  UNL1        0.2599
     27 C          -3.7519    3.5707   25.8497 C.3     1  UNL1        0.4340
     28 F          -5.2099    3.5465   25.4980 F       1  UNL1       -0.1664
     29 F          -3.4067    3.1733   24.4450 F       1  UNL1       -0.1664
     30 F          -4.0973    3.9680   27.2543 F       1  UNL1       -0.1664
@<TRIPOS>BOND
     1    26    25    1
     2    26    24    1
     3    24     1    1
     4     1     2   ar
     5     2     3   ar
     6     3     4   ar
     7     4    22    1
     8    22    23    3
     9     4     5   ar
    10     5     6   ar
    11     6     7    1
    12     7     8    2
    13     7     9   am
    14     9    10    1
    15    10    11    1
    16    11    12   ar
    17    12    13   ar
    18    13    17    1
    19    17    18    1
    20    18    19    1
    21    19    20    1
    22    20    21    1
    23    13    14   ar
    24    14    15   ar
    25    15    16    1
    26    26    27    1
    27    27    28    1
    28    27    29    1
    29    27    30    1
    30     6     1   ar
    31    16     9    1
    32    15    11   ar
    33    21    17    1
@<TRIPOS>MOLECULE
*****
 30 33 0 0 0
SMALL
GASTEIGER

@<TRIPOS>ATOM
      1 C           6.2985   -1.9249   18.2032 C.ar    1  UNL1        0.1431
      2 C           7.7256   -2.0673   18.6425 C.ar    1  UNL1        0.0377
      3 C           8.5338   -0.8476   18.9731 C.ar    1  UNL1        0.0134
      4 C           7.9149    0.5144   18.8644 C.ar    1  UNL1        0.0688
      5 C           6.4877    0.6567   18.4250 C.ar    1  UNL1        0.0178
      6 C           5.6795   -0.5629   18.0944 C.ar    1  UNL1        0.0881
      7 C           4.2524   -0.4205   17.6551 C.2     1  UNL1        0.2525
      8 O           3.8278   -0.9282   16.3090 O.2     1  UNL1       -0.2698
      9 N           3.2498    0.2297   18.5619 N.am    1  UNL1       -0.2660
     10 C           3.5255    0.7825   19.9288 C.3     1  UNL1        0.1236
     11 C           2.2416    1.3356   20.4726 C.ar    1  UNL1        0.0334
     12 C           1.6185    2.0191   21.6535 C.ar    1  UNL1        0.0936
     13 N           0.1642    2.2307   21.3525 N.ar    1  UNL1       -0.2519
     14 N          -0.1114    1.6779   19.9856 N.ar    1  UNL1       -0.1723
     15 C           1.1725    1.1247   19.4418 C.ar    1  UNL1        0.0977
     16 C           1.7956    0.4412   18.2609 C.3     1  UNL1        0.1414
     17 C          -0.8383    2.8808   22.2592 C.3     1  UNL1        0.1052
     18 C          -0.6956    3.0691   23.7406 C.3     1  UNL1        0.0244
     19 C          -1.9287    3.7615   24.2407 C.3     1  UNL1        0.0021
     20 C          -2.8335    4.0011   23.0685 C.3     1  UNL1        0.0021
     21 C          -2.1596    3.4569   21.8439 C.3     1  UNL1        0.0244
     22 C           8.7231    1.7340   19.1950 C.1     1  UNL1        0.1004
     23 N           9.5313    2.9536   19.5256 N.1     1  UNL1       -0.1908
     24 O           5.4902   -3.1445   17.8726 O.3     1  UNL1       -0.4702
     25 C           4.5747   -5.3832   18.8213 C.3     1  UNL1        0.0566
     26 C           4.8028   -3.9077   18.9657 C.3     1  UNL1        0.2599
     27 C           4.3434   -3.1953   20.2032 C.3     1  UNL1        0.4340
     28 F           3.8841   -2.4829   21.4407 F       1  UNL1       -0.1664
     29 F           5.6464   -3.5180   20.8727 F       1  UNL1       -0.1664
     30 F           3.0404   -2.8726   19.5338 F       1  UNL1       -0.1664
@<TRIPOS>BOND
     1    26    25    1
     2    26    24    1
     3    24     1    1
     4     1     2   ar
     5     2     3   ar
     6     3     4   ar
     7     4    22    1
     8    22    23    3
     9     4     5   ar
    10     5     6   ar
    11     6     7    1
    12     7     8    2
    13     7     9   am
    14     9    10    1
    15    10    11    1
    16    11    12   ar
    17    12    13   ar
    18    13    17    1
    19    17    18    1
    20    18    19    1
    21    19    20    1
    22    20    21    1
    23    13    14   ar
    24    14    15   ar
    25    15    16    1
    26    26    27    1
    27    27    28    1
    28    27    29    1
    29    27    30    1
    30     6     1   ar
    31    16     9    1
    32    15    11   ar
    33    21    17    1
@<TRIPOS>MOLECULE
*****
 30 33 0 0 0
SMALL
GASTEIGER

@<TRIPOS>ATOM
      1 C           4.7305   -0.0629   17.8121 C.ar    1  UNL1        0.1431
      2 C           5.7261    0.1935   16.7199 C.ar    1  UNL1        0.0377
      3 C           6.4604    1.5004   16.6660 C.ar    1  UNL1        0.0134
      4 C           6.1990    2.5509   17.7043 C.ar    1  UNL1        0.0688
      5 C           5.2033    2.2945   18.7966 C.ar    1  UNL1        0.0178
      6 C           4.4690    0.9876   18.8505 C.ar    1  UNL1        0.0881
      7 C           3.4734    0.7313   19.9427 C.2     1  UNL1        0.2525
      8 O           3.8280   -0.1766   21.0829 O.2     1  UNL1       -0.2698
      9 N           2.1231    1.3828   19.8947 N.am    1  UNL1       -0.2660
     10 C           1.6288    2.3095   18.8238 C.3     1  UNL1        0.1236
     11 C           0.2303    2.7214   19.1765 C.ar    1  UNL1        0.0334
     12 C          -0.9395    3.5487   18.7326 C.ar    1  UNL1        0.0936
     13 N          -2.0327    3.3879   19.7471 N.ar    1  UNL1       -0.2519
     14 N          -1.5384    2.4611   20.8181 N.ar    1  UNL1       -0.1723
     15 C          -0.1398    2.0493   20.4654 C.ar    1  UNL1        0.0977
     16 C           1.0300    1.2219   20.9093 C.3     1  UNL1        0.1414
     17 C          -3.3829    4.0394   19.6991 C.3     1  UNL1        0.1052
     18 C          -4.6608    3.4601   20.2299 C.3     1  UNL1        0.0244
     19 C          -5.7600    4.4472   19.9708 C.3     1  UNL1        0.0021
     20 C          -5.1616    5.6367   19.2800 C.3     1  UNL1        0.0021
     21 C          -3.6925    5.3846   19.1121 C.3     1  UNL1        0.0244
     22 C           6.9333    3.8578   17.6504 C.1     1  UNL1        0.1004
     23 N           7.6676    5.1647   17.5965 N.1     1  UNL1       -0.1908
     24 O           3.9962   -1.3697   17.8660 O.3     1  UNL1       -0.4702
     25 C           6.0410   -2.5210   18.9810 C.3     1  UNL1        0.0566
     26 C           4.5893   -2.5334   18.6036 C.3     1  UNL1        0.2599
     27 C           3.7308   -3.7095   18.9636 C.3     1  UNL1        0.4340
     28 F           2.8721   -4.8855   19.3237 F       1  UNL1       -0.1664
     29 F           2.7496   -2.7898   19.6282 F       1  UNL1       -0.1664
     30 F           4.7118   -4.6293   18.2991 F       1  UNL1       -0.1664
@<TRIPOS>BOND
     1    26    25    1
     2    26    24    1
     3    24     1    1
     4     1     2   ar
     5     2     3   ar
     6     3     4   ar
     7     4    22    1
     8    22    23    3
     9     4     5   ar
    10     5     6   ar
    11     6     7    1
    12     7     8    2
    13     7     9   am
    14     9    10    1
    15    10    11    1
    16    11    12   ar
    17    12    13   ar
    18    13    17    1
    19    17    18    1
    20    18    19    1
    21    19    20    1
    22    20    21    1
    23    13    14   ar
    24    14    15   ar
    25    15    16    1
    26    26    27    1
    27    27    28    1
    28    27    29    1
    29    27    30    1
    30     6     1   ar
    31    16     9    1
    32    15    11   ar
    33    21    17    1
@<TRIPOS>MOLECULE
*****
 30 33 0 0 0
SMALL
GASTEIGER

@<TRIPOS>ATOM
      1 C           3.3330   -1.1160   20.8644 C.ar    1  UNL1        0.1431
      2 C           2.1036   -1.3851   20.0483 C.ar    1  UNL1        0.0377
      3 C           0.9466   -0.4317   20.0982 C.ar    1  UNL1        0.0134
      4 C           1.0191    0.7909   20.9643 C.ar    1  UNL1        0.0688
      5 C           2.2486    1.0600   21.7804 C.ar    1  UNL1        0.0178
      6 C           3.4055    0.1066   21.7305 C.ar    1  UNL1        0.0881
      7 C           4.6349    0.3758   22.5467 C.2     1  UNL1        0.2525
      8 O           5.8609    0.9401   21.8922 O.2     1  UNL1       -0.2698
      9 N           4.6383    0.0807   24.0174 N.am    1  UNL1       -0.2660
     10 C           3.4933   -0.4821   24.8063 C.3     1  UNL1        0.1236
     11 C           3.9347   -0.6141   26.2338 C.ar    1  UNL1        0.0334
     12 C           3.4998   -1.0434   27.6037 C.ar    1  UNL1        0.0936
     13 N           4.6487   -0.8276   28.5437 N.ar    1  UNL1       -0.2519
     14 N           5.7937   -0.2648   27.7547 N.ar    1  UNL1       -0.1723
     15 C           5.3523   -0.1328   26.3271 C.ar    1  UNL1        0.0977
     16 C           5.7872    0.2965   24.9573 C.3     1  UNL1        0.1414
     17 C           4.6521   -1.1227   30.0143 C.3     1  UNL1        0.1052
     18 C           3.5846   -0.7343   30.9940 C.3     1  UNL1        0.0244
     19 C           3.9963   -1.2296   32.3487 C.3     1  UNL1        0.0021
     20 C           5.3183   -1.9240   32.2063 C.3     1  UNL1        0.0021
     21 C           5.7235   -1.8580   30.7636 C.3     1  UNL1        0.0244
     22 C          -0.1379    1.7443   21.0142 C.1     1  UNL1        0.1004
     23 N          -1.2948    2.6977   21.0641 N.1     1  UNL1       -0.1908
     24 O           4.4899   -2.0694   20.8145 O.3     1  UNL1       -0.4702
     25 C           5.2456   -2.8845   18.4662 C.3     1  UNL1        0.0566
     26 C           4.5361   -3.1383   19.7632 C.3     1  UNL1        0.2599
     27 C           3.8728   -4.4610   20.0089 C.3     1  UNL1        0.4340
     28 F           3.2094   -5.7837   20.2546 F       1  UNL1       -0.1664
     29 F           3.4947   -4.5407   18.5595 F       1  UNL1       -0.1664
     30 F           4.2508   -4.3814   21.4583 F       1  UNL1       -0.1664
@<TRIPOS>BOND
     1    26    25    1
     2    26    24    1
     3    24     1    1
     4     1     2   ar
     5     2     3   ar
     6     3     4   ar
     7     4    22    1
     8    22    23    3
     9     4     5   ar
    10     5     6   ar
    11     6     7    1
    12     7     8    2
    13     7     9   am
    14     9    10    1
    15    10    11    1
    16    11    12   ar
    17    12    13   ar
    18    13    17    1
    19    17    18    1
    20    18    19    1
    21    19    20    1
    22    20    21    1
    23    13    14   ar
    24    14    15   ar
    25    15    16    1
    26    26    27    1
    27    27    28    1
    28    27    29    1
    29    27    30    1
    30     6     1   ar
    31    16     9    1
    32    15    11   ar
    33    21    17    1
@<TRIPOS>MOLECULE
*****
 30 33 0 0 0
SMALL
GASTEIGER

@<TRIPOS>ATOM
      1 C          -3.4146    3.3298   22.4238 C.ar    1  UNL1        0.1431
      2 C          -4.0052    3.3985   23.8010 C.ar    1  UNL1        0.0377
      3 C          -3.1669    3.8647   24.9542 C.ar    1  UNL1        0.0134
      4 C          -1.7380    4.2623   24.7302 C.ar    1  UNL1        0.0688
      5 C          -1.1474    4.1936   23.3530 C.ar    1  UNL1        0.0178
      6 C          -1.9857    3.7274   22.1998 C.ar    1  UNL1        0.0881
      7 C          -1.3951    3.6587   20.8227 C.2     1  UNL1        0.2525
      8 O          -1.7762    4.6792   19.7915 O.2     1  UNL1       -0.2698
      9 N          -0.4234    2.5696   20.4768 N.am    1  UNL1       -0.2660
     10 C           0.0499    1.4849   21.3984 C.3     1  UNL1        0.1236
     11 C           1.0114    0.6189   20.6397 C.ar    1  UNL1        0.0334
     12 C           1.8982   -0.5867   20.7404 C.ar    1  UNL1        0.0936
     13 N           2.5672   -0.7823   19.4122 N.ar    1  UNL1       -0.2519
     14 N           2.0939    0.3025   18.4906 N.ar    1  UNL1       -0.1723
     15 C           1.1324    1.1685   19.2493 C.ar    1  UNL1        0.0977
     16 C           0.2456    2.3741   19.1486 C.3     1  UNL1        0.1414
     17 C           3.5389   -1.8713   19.0663 C.3     1  UNL1        0.1052
     18 C           3.4069   -3.3199   19.4329 C.3     1  UNL1        0.0244
     19 C           4.5996   -4.0469   18.8862 C.3     1  UNL1        0.0021
     20 C           5.4687   -3.0478   18.1817 C.3     1  UNL1        0.0021
     21 C           4.8132   -1.7032   18.2930 C.3     1  UNL1        0.0244
     22 C          -0.8997    4.7286   25.8834 C.1     1  UNL1        0.1004
     23 N          -0.0614    5.1948   27.0366 N.1     1  UNL1       -0.1908
     24 O          -4.2529    2.8635   21.2707 O.3     1  UNL1       -0.4702
     25 C          -6.4061    4.2828   21.5860 C.3     1  UNL1        0.0566
     26 C          -5.3122    3.7607   20.7024 C.3     1  UNL1        0.2599
     27 C          -5.2775    4.1358   19.2505 C.3     1  UNL1        0.4340
     28 F          -5.2427    4.5110   17.7986 F       1  UNL1       -0.1664
     29 F          -4.6869    5.4674   19.6085 F       1  UNL1       -0.1664
     30 F          -5.8680    2.8043   18.8923 F       1  UNL1       -0.1664
@<TRIPOS>BOND
     1    26    25    1
     2    26    24    1
     3    24     1    1
     4     1     2   ar
     5     2     3   ar
     6     3     4   ar
     7     4    22    1
     8    22    23    3
     9     4     5   ar
    10     5     6   ar
    11     6     7    1
    12     7     8    2
    13     7     9   am
    14     9    10    1
    15    10    11    1
    16    11    12   ar
    17    12    13   ar
    18    13    17    1
    19    17    18    1
    20    18    19    1
    21    19    20    1
    22    20    21    1
    23    13    14   ar
    24    14    15   ar
    25    15    16    1
    26    26    27    1
    27    27    28    1
    28    27    29    1
    29    27    30    1
    30     6     1   ar
    31    16     9    1
    32    15    11   ar
    33    21    17    1
