@<TRIPOS>MOLECULE
*****
 27 29 0 0 0
SMALL
GASTEIGER

@<TRIPOS>ATOM
      1 N          -8.2449  -17.1982   22.6707 N.pl3   1  UNL1       -0.3035
      2 C          -4.2778  -20.1303   20.7880 C.2     1  UNL1        0.2257
      3 O          -4.0687  -21.1802   19.7373 O.2     1  UNL1       -0.2749
      4 N          -5.6399  -19.5371   20.9950 N.am    1  UNL1       -0.2778
      5 C          -6.8814  -19.8921   20.2317 C.3     1  UNL1        0.0952
      6 C          -8.0084  -19.0592   20.7666 C.3     1  UNL1        0.0430
      7 C          -7.4634  -18.1893   21.8604 C.3     1  UNL1        0.0946
      8 C          -5.9995  -18.4847   22.0015 C.3     1  UNL1        0.1131
      9 C          -2.1012  -18.7379   21.0600 C.3     1  UNL1        0.0101
     10 C          -3.1247  -19.6737   21.6318 C.3     1  UNL1        0.0853
     11 C          -9.6629  -17.4977   23.0578 C.ar    1  UNL1        0.0490
     12 C          -9.9568  -18.5914   24.0414 C.ar    1  UNL1        0.0153
     13 C         -11.3746  -18.8909   24.4284 C.ar    1  UNL1        0.0124
     14 C         -12.4986  -18.0967   23.8320 C.ar    1  UNL1        0.0791
     15 C         -12.2047  -17.0030   22.8484 C.ar    1  UNL1        0.0685
     16 CL        -13.3288  -16.2087   22.2519 Cl      1  UNL1       -0.0815
     17 C         -10.7869  -16.7035   22.4613 C.ar    1  UNL1        0.0266
     18 C         -13.9166  -18.3962   24.2190 C.1     1  UNL1        0.1013
     19 N         -15.3345  -18.6956   24.6061 N.1     1  UNL1       -0.1908
     20 C          -7.6086  -15.9075   23.0941 C.3     1  UNL1        0.1174
     21 C          -7.2848  -15.6695   24.5393 C.ar    1  UNL1       -0.0064
     22 C          -8.3909  -15.5381   25.5439 C.ar    1  UNL1       -0.0029
     23 C          -8.0671  -15.3001   26.9890 C.ar    1  UNL1       -0.0003
     24 C          -6.6372  -15.1935   27.4296 C.ar    1  UNL1       -0.0003
     25 C          -5.5312  -15.3249   26.4250 C.ar    1  UNL1       -0.0045
     26 C          -5.8549  -15.5629   24.9798 C.ar    1  UNL1       -0.0242
     27 C          -4.7488  -15.6943   23.9752 C.3     1  UNL1        0.0308
@<TRIPOS>BOND
     1     9    10    1
     2    10     2    1
     3     2     3    2
     4     2     4   am
     5     4     5    1
     6     5     6    1
     7     6     7    1
     8     7     1    1
     9     1    20    1
    10    20    21    1
    11    21    22   ar
    12    22    23   ar
    13    23    24   ar
    14    24    25   ar
    15    25    26   ar
    16    26    27    1
    17     1    11    1
    18    11    12   ar
    19    12    13   ar
    20    13    14   ar
    21    14    18    1
    22    18    19    3
    23    14    15   ar
    24    15    16    1
    25    15    17   ar
    26     7     8    1
    27     8     4    1
    28    26    21   ar
    29    17    11   ar
@<TRIPOS>MOLECULE
*****
 27 29 0 0 0
SMALL
GASTEIGER

@<TRIPOS>ATOM
      1 N          -7.8061  -18.7232   21.5741 N.pl3   1  UNL1       -0.3035
      2 C          -2.5871  -19.5143   21.4435 C.2     1  UNL1        0.2257
      3 O          -1.6189  -20.4605   20.7977 O.2     1  UNL1       -0.2749
      4 N          -4.0589  -19.6604   21.1932 N.am    1  UNL1       -0.2778
      5 C          -4.7069  -20.6986   20.3258 C.3     1  UNL1        0.0952
      6 C          -6.1895  -20.4739   20.3629 C.3     1  UNL1        0.0430
      7 C          -6.4577  -19.2968   21.2532 C.3     1  UNL1        0.0946
      8 C          -5.1410  -18.7941   21.7664 C.3     1  UNL1        0.1131
      9 C          -2.0585  -17.0036   21.8520 C.3     1  UNL1        0.0101
     10 C          -2.0836  -18.4219   22.3397 C.3     1  UNL1        0.0853
     11 C          -8.0006  -17.9189   22.8252 C.ar    1  UNL1        0.0490
     12 C          -9.0796  -18.2936   23.7975 C.ar    1  UNL1        0.0153
     13 C          -9.2741  -17.4893   25.0486 C.ar    1  UNL1        0.0124
     14 C          -8.3897  -16.3104   25.3274 C.ar    1  UNL1        0.0791
     15 C          -7.3107  -15.9357   24.3551 C.ar    1  UNL1        0.0685
     16 CL         -6.4262  -14.7567   24.6340 Cl      1  UNL1       -0.0815
     17 C          -7.1161  -16.7399   23.1040 C.ar    1  UNL1        0.0266
     18 C          -8.5842  -15.5061   26.5786 C.1     1  UNL1        0.1013
     19 N          -8.7786  -14.7018   27.8296 N.1     1  UNL1       -0.1908
     20 C          -8.9599  -18.9539   20.6438 C.3     1  UNL1        0.1174
     21 C         -10.2422  -18.2000   20.8380 C.ar    1  UNL1       -0.0064
     22 C         -10.3464  -16.7707   20.3953 C.ar    1  UNL1       -0.0029
     23 C         -11.6286  -16.0170   20.5895 C.ar    1  UNL1       -0.0003
     24 C         -12.8066  -16.6926   21.2265 C.ar    1  UNL1       -0.0003
     25 C         -12.7024  -18.1219   21.6692 C.ar    1  UNL1       -0.0045
     26 C         -11.4202  -18.8757   21.4750 C.ar    1  UNL1       -0.0242
     27 C         -11.3160  -20.3051   21.9178 C.3     1  UNL1        0.0308
@<TRIPOS>BOND
     1     9    10    1
     2    10     2    1
     3     2     3    2
     4     2     4   am
     5     4     5    1
     6     5     6    1
     7     6     7    1
     8     7     1    1
     9     1    20    1
    10    20    21    1
    11    21    22   ar
    12    22    23   ar
    13    23    24   ar
    14    24    25   ar
    15    25    26   ar
    16    26    27    1
    17     1    11    1
    18    11    12   ar
    19    12    13   ar
    20    13    14   ar
    21    14    18    1
    22    18    19    3
    23    14    15   ar
    24    15    16    1
    25    15    17   ar
    26     7     8    1
    27     8     4    1
    28    26    21   ar
    29    17    11   ar
@<TRIPOS>MOLECULE
*****
 27 29 0 0 0
SMALL
GASTEIGER

@<TRIPOS>ATOM
      1 N          -8.5500  -16.7443   22.4868 N.pl3   1  UNL1       -0.3035
      2 C         -13.4643  -18.1884   23.7691 C.2     1  UNL1        0.2257
      3 O         -14.8004  -18.3126   23.0988 O.2     1  UNL1       -0.2749
      4 N         -12.2745  -17.7148   22.9880 N.am    1  UNL1       -0.2778
      5 C         -12.2675  -17.3312   21.5379 C.3     1  UNL1        0.0952
      6 C         -10.8715  -16.9210   21.1736 C.3     1  UNL1        0.0430
      7 C         -10.0156  -17.0510   22.3986 C.3     1  UNL1        0.0946
      8 C         -10.8827  -17.5416   23.5199 C.3     1  UNL1        0.1131
      9 C         -14.5153  -18.5077   26.1235 C.3     1  UNL1        0.0101
     10 C         -13.3180  -18.5378   25.2205 C.3     1  UNL1        0.0853
     11 C          -7.5472  -17.7050   21.9194 C.ar    1  UNL1        0.0490
     12 C          -7.8541  -18.4489   20.6536 C.ar    1  UNL1        0.0153
     13 C          -6.8515  -19.4095   20.0863 C.ar    1  UNL1        0.0124
     14 C          -5.5419  -19.6261   20.7848 C.ar    1  UNL1        0.0791
     15 C          -5.2350  -18.8822   22.0506 C.ar    1  UNL1        0.0685
     16 CL         -3.9253  -19.0989   22.7492 Cl      1  UNL1       -0.0815
     17 C          -6.2376  -17.9216   22.6180 C.ar    1  UNL1        0.0266
     18 C          -4.5391  -20.5868   20.2175 C.1     1  UNL1        0.1013
     19 N          -3.5364  -21.5473   19.6502 N.1     1  UNL1       -0.1908
     20 C          -8.0870  -15.4771   23.1422 C.3     1  UNL1        0.1174
     21 C          -7.6689  -15.4872   24.5828 C.ar    1  UNL1       -0.0064
     22 C          -8.6974  -15.6584   25.6611 C.ar    1  UNL1       -0.0029
     23 C          -8.2792  -15.6686   27.1015 C.ar    1  UNL1       -0.0003
     24 C          -6.8326  -15.5074   27.4637 C.ar    1  UNL1       -0.0003
     25 C          -5.8040  -15.3361   26.3854 C.ar    1  UNL1       -0.0045
     26 C          -6.2222  -15.3260   24.9450 C.ar    1  UNL1       -0.0242
     27 C          -5.1936  -15.1547   23.8666 C.3     1  UNL1        0.0308
@<TRIPOS>BOND
     1     9    10    1
     2    10     2    1
     3     2     3    2
     4     2     4   am
     5     4     5    1
     6     5     6    1
     7     6     7    1
     8     7     1    1
     9     1    20    1
    10    20    21    1
    11    21    22   ar
    12    22    23   ar
    13    23    24   ar
    14    24    25   ar
    15    25    26   ar
    16    26    27    1
    17     1    11    1
    18    11    12   ar
    19    12    13   ar
    20    13    14   ar
    21    14    18    1
    22    18    19    3
    23    14    15   ar
    24    15    16    1
    25    15    17   ar
    26     7     8    1
    27     8     4    1
    28    26    21   ar
    29    17    11   ar
@<TRIPOS>MOLECULE
*****
 27 29 0 0 0
SMALL
GASTEIGER

@<TRIPOS>ATOM
      1 N          -8.0746  -18.1621   22.0770 N.pl3   1  UNL1       -0.3035
      2 C          -2.9397  -19.3077   21.6292 C.2     1  UNL1        0.2257
      3 O          -2.0781  -20.3021   20.9089 O.2     1  UNL1       -0.2749
      4 N          -4.4298  -19.3458   21.4612 N.am    1  UNL1       -0.2778
      5 C          -5.1967  -20.3148   20.6110 C.3     1  UNL1        0.0952
      6 C          -6.6554  -19.9894   20.7383 C.3     1  UNL1        0.0430
      7 C          -6.7900  -18.8192   21.6670 C.3     1  UNL1        0.0946
      8 C          -5.4145  -18.4214   22.1138 C.3     1  UNL1        0.1131
      9 C          -2.1129  -16.8754   22.0167 C.3     1  UNL1        0.0101
     10 C          -2.3112  -18.2753   22.5176 C.3     1  UNL1        0.0853
     11 C          -8.1334  -17.3514   23.3378 C.ar    1  UNL1        0.0490
     12 C          -7.6068  -15.9470   23.3515 C.ar    1  UNL1        0.0153
     13 C          -7.6655  -15.1363   24.6121 C.ar    1  UNL1        0.0124
     14 C          -8.2508  -15.7301   25.8590 C.ar    1  UNL1        0.0791
     15 C          -8.7774  -17.1345   25.8453 C.ar    1  UNL1        0.0685
     16 CL         -9.3627  -17.7283   27.0923 Cl      1  UNL1       -0.0815
     17 C          -8.7187  -17.9452   24.5847 C.ar    1  UNL1        0.0266
     18 C          -8.3096  -14.9194   27.1198 C.1     1  UNL1        0.1013
     19 N          -8.3683  -14.1087   28.3805 N.1     1  UNL1       -0.1908
     20 C          -9.3004  -18.3157   21.2263 C.3     1  UNL1        0.1174
     21 C         -10.6418  -17.9138   21.7642 C.ar    1  UNL1       -0.0064
     22 C         -11.4298  -18.8724   22.6069 C.ar    1  UNL1       -0.0029
     23 C         -12.7711  -18.4704   23.1448 C.ar    1  UNL1       -0.0003
     24 C         -13.3244  -17.1100   22.8399 C.ar    1  UNL1       -0.0003
     25 C         -12.5364  -16.1514   21.9972 C.ar    1  UNL1       -0.0045
     26 C         -11.1951  -16.5533   21.4594 C.ar    1  UNL1       -0.0242
     27 C         -10.4071  -15.5948   20.6166 C.3     1  UNL1        0.0308
@<TRIPOS>BOND
     1     9    10    1
     2    10     2    1
     3     2     3    2
     4     2     4   am
     5     4     5    1
     6     5     6    1
     7     6     7    1
     8     7     1    1
     9     1    20    1
    10    20    21    1
    11    21    22   ar
    12    22    23   ar
    13    23    24   ar
    14    24    25   ar
    15    25    26   ar
    16    26    27    1
    17     1    11    1
    18    11    12   ar
    19    12    13   ar
    20    13    14   ar
    21    14    18    1
    22    18    19    3
    23    14    15   ar
    24    15    16    1
    25    15    17   ar
    26     7     8    1
    27     8     4    1
    28    26    21   ar
    29    17    11   ar
@<TRIPOS>MOLECULE
*****
 27 29 0 0 0
SMALL
GASTEIGER

@<TRIPOS>ATOM
      1 N          -7.3184  -16.8115   22.9754 N.pl3   1  UNL1       -0.3035
      2 C         -12.3154  -17.2111   21.3170 C.2     1  UNL1        0.2257
      3 O         -13.4557  -18.1783   21.4366 O.2     1  UNL1       -0.2749
      4 N         -11.0047  -17.5109   21.9820 N.am    1  UNL1       -0.2778
      5 C         -10.6873  -18.7307   22.7953 C.3     1  UNL1        0.0952
      6 C          -9.2677  -18.6171   23.2664 C.3     1  UNL1        0.0430
      7 C          -8.7078  -17.3272   22.7443 C.3     1  UNL1        0.0946
      8 C          -9.7813  -16.6435   21.9505 C.3     1  UNL1        0.1131
      9 C         -11.8082  -15.7882   19.2032 C.3     1  UNL1        0.0101
     10 C         -12.4858  -15.9441   20.5323 C.3     1  UNL1        0.0853
     11 C          -6.1354  -17.6117   22.5167 C.ar    1  UNL1        0.0490
     12 C          -4.7639  -17.2828   23.0273 C.ar    1  UNL1        0.0153
     13 C          -3.5809  -18.0829   22.5687 C.ar    1  UNL1        0.0124
     14 C          -3.7695  -19.2120   21.5994 C.ar    1  UNL1        0.0791
     15 C          -5.1410  -19.5410   21.0888 C.ar    1  UNL1        0.0685
     16 CL         -5.3296  -20.6702   20.1195 Cl      1  UNL1       -0.0815
     17 C          -6.3240  -18.7408   21.5474 C.ar    1  UNL1        0.0266
     18 C          -2.5865  -20.0122   21.1408 C.1     1  UNL1        0.1013
     19 N          -1.4036  -20.8124   20.6821 N.1     1  UNL1       -0.1908
     20 C          -7.1118  -15.4956   23.6651 C.3     1  UNL1        0.1174
     21 C          -7.3755  -15.3705   25.1365 C.ar    1  UNL1       -0.0064
     22 C          -8.7862  -15.3308   25.6448 C.ar    1  UNL1       -0.0029
     23 C          -9.0499  -15.2057   27.1161 C.ar    1  UNL1       -0.0003
     24 C          -7.9029  -15.1204   28.0791 C.ar    1  UNL1       -0.0003
     25 C          -6.4923  -15.1601   27.5707 C.ar    1  UNL1       -0.0045
     26 C          -6.2286  -15.2852   26.0994 C.ar    1  UNL1       -0.0242
     27 C          -4.8179  -15.3250   25.5910 C.3     1  UNL1        0.0308
@<TRIPOS>BOND
     1     9    10    1
     2    10     2    1
     3     2     3    2
     4     2     4   am
     5     4     5    1
     6     5     6    1
     7     6     7    1
     8     7     1    1
     9     1    20    1
    10    20    21    1
    11    21    22   ar
    12    22    23   ar
    13    23    24   ar
    14    24    25   ar
    15    25    26   ar
    16    26    27    1
    17     1    11    1
    18    11    12   ar
    19    12    13   ar
    20    13    14   ar
    21    14    18    1
    22    18    19    3
    23    14    15   ar
    24    15    16    1
    25    15    17   ar
    26     7     8    1
    27     8     4    1
    28    26    21   ar
    29    17    11   ar
