@<TRIPOS>MOLECULE
*****
 39 42 0 0 0
SMALL
GASTEIGER

@<TRIPOS>ATOM
      1 C          -1.4180  -17.8111   18.1302 C.3     1  UNL1        0.1183
      2 N          -2.2502  -17.9981   19.3641 N.am    1  UNL1       -0.2425
      3 C          -3.2965  -19.0721   19.4074 C.3     1  UNL1        0.1183
      4 C          -4.1287  -19.2591   20.6413 C.3     1  UNL1        0.1146
      5 C          -4.7007  -20.3416   19.7747 C.3     1  UNL1        0.0252
      6 C          -3.9147  -18.3721   21.8318 C.3     1  UNL1        0.2040
      7 O          -2.8685  -17.2981   21.7884 O.3     1  UNL1       -0.4351
      8 C          -2.0363  -17.1111   20.5546 C.2     1  UNL1        0.4049
      9 O          -0.9900  -16.0370   20.5113 O.2     1  UNL1       -0.2262
     10 N          -5.1596  -19.8221   21.5741 N.am    1  UNL1       -0.2867
     11 C          -6.6082  -19.4823   21.3844 C.2     1  UNL1        0.3059
     12 O          -7.0260  -18.5795   20.2617 O.2     1  UNL1       -0.2524
     13 N          -7.6391  -20.0454   22.3173 N.am    1  UNL1       -0.2485
     14 H          -4.8854  -20.4146   22.3110 H       1  UNL1        0.1510
     15 H          -7.3649  -20.6380   23.0542 H       1  UNL1        0.1583
     16 C          -9.0877  -19.7056   22.1275 C.ar    1  UNL1        0.1664
     17 N         -10.0384  -19.2665   23.2015 N.ar    1  UNL1       -0.2283
     18 C         -11.3782  -19.0347   22.5683 C.ar    1  UNL1        0.0667
     19 C         -11.2557  -19.3305   21.1027 C.ar    1  UNL1        0.0528
     20 S          -9.8400  -19.7452   20.8304 S.2     1  UNL1       -0.0511
     21 C         -12.6222  -18.5859   23.2761 C.3     1  UNL1        0.0360
     22 C         -11.9356  -18.7666   24.5974 C.3     1  UNL1        0.0059
     23 C         -13.3089  -18.4051   21.9548 C.3     1  UNL1        0.0059
     24 C         -13.8662  -18.1370   23.9839 C.3     1  UNL1        0.0059
     25 C          -4.7470  -18.5591   23.0656 C.3     1  UNL1        0.1181
     26 N          -5.3799  -17.3727   23.7303 N.3     1  UNL1       -0.2696
     27 C          -4.5190  -16.3193   24.3623 C.3     1  UNL1        0.0722
     28 C          -5.1519  -15.1329   25.0270 C.3     1  UNL1        0.0174
     29 C          -6.6456  -14.9998   25.0597 C.3     1  UNL1        0.0031
     30 C          -7.5065  -16.0531   24.4277 C.3     1  UNL1        0.0204
     31 C          -6.8736  -17.2396   23.7630 C.3     1  UNL1        0.0725
     32 C          -9.0002  -15.9200   24.4604 C.3     1  UNL1        0.0277
     33 C          -9.7750  -15.8479   23.1781 C.ar    1  UNL1       -0.0220
     34 C         -11.2530  -15.5936   23.2081 C.ar    1  UNL1       -0.0020
     35 C         -12.0278  -15.5216   21.9258 C.ar    1  UNL1        0.0293
     36 C         -11.3247  -15.7038   20.6134 C.ar    1  UNL1        0.1401
     37 F         -12.0995  -15.6317   19.3310 F       1  UNL1       -0.2042
     38 C          -9.8467  -15.9580   20.5833 C.ar    1  UNL1        0.0293
     39 C          -9.0718  -16.0301   21.8657 C.ar    1  UNL1       -0.0020
@<TRIPOS>BOND
     1     1     2    1
     2     2     3    1
     3     3     4    1
     4     4     5    1
     5     4    10    1
     6    10    11   am
     7    11    12    2
     8    11    13   am
     9    13    16    1
    10    16    17   ar
    11    17    18   ar
    12    18    21    1
    13    21    22    1
    14    21    23    1
    15    21    24    1
    16    18    19   ar
    17    19    20   ar
    18     4     6    1
    19     6    25    1
    20    25    26    1
    21    26    27    1
    22    27    28    1
    23    28    29    1
    24    29    30    1
    25    30    32    1
    26    32    33    1
    27    33    34   ar
    28    34    35   ar
    29    35    36   ar
    30    36    37    1
    31    36    38   ar
    32    38    39   ar
    33    30    31    1
    34     6     7    1
    35     7     8    1
    36     8     9    2
    37     8     2   am
    38    20    16   ar
    39    31    26    1
    40    39    33   ar
    41    10    14    1
    42    13    15    1
@<TRIPOS>MOLECULE
*****
 39 42 0 0 0
SMALL
GASTEIGER

@<TRIPOS>ATOM
      1 C          -4.7119    3.9482   18.0607 C.3     1  UNL1        0.1183
      2 N          -3.5026    3.6847   18.9081 N.am    1  UNL1       -0.2425
      3 C          -2.1298    3.8268   18.3208 C.3     1  UNL1        0.1183
      4 C          -0.9205    3.5632   19.1682 C.3     1  UNL1        0.1146
      5 C          -0.2569    3.9205   17.8713 C.3     1  UNL1        0.0252
      6 C          -1.0840    3.1575   20.6030 C.3     1  UNL1        0.2040
      7 O          -2.4569    3.0154   21.1903 O.3     1  UNL1       -0.4351
      8 C          -3.6662    3.2790   20.3429 C.2     1  UNL1        0.4049
      9 O          -5.0391    3.1368   20.9303 O.2     1  UNL1       -0.2262
     10 N           0.5193    3.4238   19.5651 N.am    1  UNL1       -0.2867
     11 C           1.3202    2.2508   19.0826 C.2     1  UNL1        0.3059
     12 O           0.6812    1.2173   18.2030 O.2     1  UNL1       -0.2524
     13 N           2.7600    2.1115   19.4796 N.am    1  UNL1       -0.2485
     14 H           0.9387    4.1021   20.1424 H       1  UNL1        0.1510
     15 H           3.1794    2.7898   20.0568 H       1  UNL1        0.1583
     16 C           3.5608    0.9385   18.9970 C.ar    1  UNL1        0.1664
     17 N           3.3636   -0.4914   19.4050 N.ar    1  UNL1       -0.2283
     18 C           4.3803   -1.3242   18.6819 C.ar    1  UNL1        0.0667
     19 C           5.2058   -0.4090   17.8269 C.ar    1  UNL1        0.0528
     20 S           4.6993    0.9895   18.0217 S.2     1  UNL1       -0.0511
     21 C           4.5429   -2.8112   18.7941 C.3     1  UNL1        0.0360
     22 C           3.2465   -2.8964   19.5438 C.3     1  UNL1        0.0059
     23 C           5.8393   -2.7259   18.0443 C.3     1  UNL1        0.0059
     24 C           4.7055   -4.2981   18.9062 C.3     1  UNL1        0.0059
     25 C           0.1253    2.8940   21.4504 C.3     1  UNL1        0.1181
     26 N          -0.0377    2.5100   22.8912 N.3     1  UNL1       -0.2696
     27 C           0.6159    1.2652   23.4142 C.3     1  UNL1        0.0722
     28 C           0.4529    0.8812   24.8550 C.3     1  UNL1        0.0174
     29 C          -0.3638    1.7419   25.7728 C.3     1  UNL1        0.0031
     30 C          -1.0174    2.9865   25.2498 C.3     1  UNL1        0.0204
     31 C          -0.8544    3.3706   23.8090 C.3     1  UNL1        0.0725
     32 C          -1.8340    3.8472   26.1676 C.3     1  UNL1        0.0277
     33 C          -3.2648    4.1512   25.8353 C.ar    1  UNL1       -0.0220
     34 C          -3.9072    3.5181   24.6367 C.ar    1  UNL1       -0.0020
     35 C          -5.3379    3.8221   24.3044 C.ar    1  UNL1        0.0293
     36 C          -6.1264    4.7591   25.1706 C.ar    1  UNL1        0.1401
     37 F          -7.5571    5.0631   24.8383 F       1  UNL1       -0.2042
     38 C          -5.4840    5.3921   26.3691 C.ar    1  UNL1        0.0293
     39 C          -4.0532    5.0882   26.7015 C.ar    1  UNL1       -0.0020
@<TRIPOS>BOND
     1     1     2    1
     2     2     3    1
     3     3     4    1
     4     4     5    1
     5     4    10    1
     6    10    11   am
     7    11    12    2
     8    11    13   am
     9    13    16    1
    10    16    17   ar
    11    17    18   ar
    12    18    21    1
    13    21    22    1
    14    21    23    1
    15    21    24    1
    16    18    19   ar
    17    19    20   ar
    18     4     6    1
    19     6    25    1
    20    25    26    1
    21    26    27    1
    22    27    28    1
    23    28    29    1
    24    29    30    1
    25    30    32    1
    26    32    33    1
    27    33    34   ar
    28    34    35   ar
    29    35    36   ar
    30    36    37    1
    31    36    38   ar
    32    38    39   ar
    33    30    31    1
    34     6     7    1
    35     7     8    1
    36     8     9    2
    37     8     2   am
    38    20    16   ar
    39    31    26    1
    40    39    33   ar
    41    10    14    1
    42    13    15    1
@<TRIPOS>MOLECULE
*****
 39 42 0 0 0
SMALL
GASTEIGER

@<TRIPOS>ATOM
      1 C          -4.6028    4.3620   17.7918 C.3     1  UNL1        0.1183
      2 N          -3.5318    3.8905   18.7303 N.am    1  UNL1       -0.2425
      3 C          -2.0909    3.9596   18.3194 C.3     1  UNL1        0.1183
      4 C          -1.0199    3.4880   19.2579 C.3     1  UNL1        0.1146
      5 C          -0.1762    3.9166   18.0941 C.3     1  UNL1        0.0252
      6 C          -1.3900    2.9474   20.6073 C.3     1  UNL1        0.2040
      7 O          -2.8309    2.8784   21.0181 O.3     1  UNL1       -0.4351
      8 C          -3.9018    3.3499   20.0796 C.2     1  UNL1        0.4049
      9 O          -5.3429    3.2808   20.4906 O.2     1  UNL1       -0.2262
     10 N           0.3440    3.1654   19.7922 N.am    1  UNL1       -0.2867
     11 C           1.1412    2.0476   19.1880 C.2     1  UNL1        0.3059
     12 O           0.5742    1.2523   18.0494 O.2     1  UNL1       -0.2524
     13 N           2.5052    1.7250   19.7223 N.am    1  UNL1       -0.2485
     14 H           0.7161    3.6873   20.5394 H       1  UNL1        0.1510
     15 H           2.8773    2.2469   20.4696 H       1  UNL1        0.1583
     16 C           3.3022    0.6072   19.1180 C.ar    1  UNL1        0.1664
     17 N           3.2962   -0.8237   19.5684 N.ar    1  UNL1       -0.2283
     18 C           4.2354   -1.5913   18.6861 C.ar    1  UNL1        0.0667
     19 C           4.8220   -0.6349   17.6903 C.ar    1  UNL1        0.0528
     20 S           4.2452    0.7238   17.9573 S.2     1  UNL1       -0.0511
     21 C           4.5355   -3.0579   18.7825 C.3     1  UNL1        0.0360
     22 C           5.9046   -2.8147   18.2199 C.3     1  UNL1        0.0059
     23 C           3.1664   -3.3010   19.3451 C.3     1  UNL1        0.0059
     24 C           4.8355   -4.5244   18.8789 C.3     1  UNL1        0.0059
     25 C          -0.3190    2.4759   21.5458 C.3     1  UNL1        0.1181
     26 N          -0.0822    3.1998   22.8380 N.3     1  UNL1       -0.2696
     27 C           0.7611    4.4402   22.8593 C.3     1  UNL1        0.0722
     28 C           0.9979    5.1640   24.1515 C.3     1  UNL1        0.0174
     29 C           0.3914    4.6476   25.4225 C.3     1  UNL1        0.0031
     30 C          -0.4519    3.4073   25.4013 C.3     1  UNL1        0.0204
     31 C          -0.6887    2.6834   24.1090 C.3     1  UNL1        0.0725
     32 C          -1.0584    2.8909   26.6723 C.3     1  UNL1        0.0277
     33 C          -0.2968    1.9218   27.5271 C.ar    1  UNL1       -0.0220
     34 C           1.1630    2.1422   27.7926 C.ar    1  UNL1       -0.0020
     35 C           1.9246    1.1731   28.6473 C.ar    1  UNL1        0.0293
     36 C           1.2264   -0.0166   29.2366 C.ar    1  UNL1        0.1401
     37 F           1.9880   -0.9858   30.0913 F       1  UNL1       -0.2042
     38 C          -0.2333   -0.2371   28.9711 C.ar    1  UNL1        0.0293
     39 C          -0.9950    0.7321   28.1163 C.ar    1  UNL1       -0.0020
@<TRIPOS>BOND
     1     1     2    1
     2     2     3    1
     3     3     4    1
     4     4     5    1
     5     4    10    1
     6    10    11   am
     7    11    12    2
     8    11    13   am
     9    13    16    1
    10    16    17   ar
    11    17    18   ar
    12    18    21    1
    13    21    22    1
    14    21    23    1
    15    21    24    1
    16    18    19   ar
    17    19    20   ar
    18     4     6    1
    19     6    25    1
    20    25    26    1
    21    26    27    1
    22    27    28    1
    23    28    29    1
    24    29    30    1
    25    30    32    1
    26    32    33    1
    27    33    34   ar
    28    34    35   ar
    29    35    36   ar
    30    36    37    1
    31    36    38   ar
    32    38    39   ar
    33    30    31    1
    34     6     7    1
    35     7     8    1
    36     8     9    2
    37     8     2   am
    38    20    16   ar
    39    31    26    1
    40    39    33   ar
    41    10    14    1
    42    13    15    1
@<TRIPOS>MOLECULE
*****
 39 42 0 0 0
SMALL
GASTEIGER

@<TRIPOS>ATOM
      1 C           6.2895    0.5834   16.4964 C.3     1  UNL1        0.1183
      2 N           5.2845    0.4423   17.6010 N.am    1  UNL1       -0.2425
      3 C           4.6406    1.6626   18.1894 C.3     1  UNL1        0.1183
      4 C           3.6355    1.5215   19.2939 C.3     1  UNL1        0.1146
      5 C           3.6493    3.0139   19.1432 C.3     1  UNL1        0.0252
      6 C           3.2744    0.1603   19.8100 C.3     1  UNL1        0.2040
      7 O           3.9184   -1.0600   19.2216 O.3     1  UNL1       -0.4351
      8 C           4.9234   -0.9189   18.1171 C.2     1  UNL1        0.4049
      9 O           5.5673   -2.1393   17.5286 O.2     1  UNL1       -0.2262
     10 N           2.6353    1.8989   20.3461 N.am    1  UNL1       -0.2867
     11 C           1.3323    2.5282   19.9511 C.2     1  UNL1        0.3059
     12 O           1.0295    2.7803   18.5037 O.2     1  UNL1       -0.2524
     13 N           0.3320    2.9055   21.0034 N.am    1  UNL1       -0.2485
     14 H           2.8340    1.7334   21.2961 H       1  UNL1        0.1510
     15 H           0.5308    2.7401   21.9533 H       1  UNL1        0.1583
     16 C          -0.9709    3.5348   20.6082 C.ar    1  UNL1        0.1664
     17 N          -2.2543    2.8078   20.3354 N.ar    1  UNL1       -0.2283
     18 C          -3.2959    3.8252   19.9750 C.ar    1  UNL1        0.0667
     19 C          -2.6563    5.1812   20.0252 C.ar    1  UNL1        0.0528
     20 S          -1.2194    5.0016   20.4165 S.2     1  UNL1       -0.0511
     21 C          -4.7260    3.5373   19.6259 C.3     1  UNL1        0.0360
     22 C          -4.4454    3.8811   18.1930 C.3     1  UNL1        0.0059
     23 C          -5.0067    3.1936   21.0587 C.3     1  UNL1        0.0059
     24 C          -6.1562    3.2495   19.2767 C.3     1  UNL1        0.0059
     25 C           2.2694    0.0192   20.9146 C.3     1  UNL1        0.1181
     26 N           2.7278   -0.2689   22.3134 N.3     1  UNL1       -0.2696
     27 C           3.5065   -1.5173   22.6054 C.3     1  UNL1        0.0722
     28 C           3.9649   -1.8054   24.0042 C.3     1  UNL1        0.0174
     29 C           3.6447   -0.8452   25.1112 C.3     1  UNL1        0.0031
     30 C           2.8660    0.4031   24.8193 C.3     1  UNL1        0.0204
     31 C           2.4075    0.6913   23.4204 C.3     1  UNL1        0.0725
     32 C           2.5457    1.3633   25.9263 C.3     1  UNL1        0.0277
     33 C           1.4167    1.0709   26.8696 C.ar    1  UNL1       -0.0220
     34 C           1.6354    0.1608   28.0418 C.ar    1  UNL1       -0.0020
     35 C           0.5065   -0.1316   28.9852 C.ar    1  UNL1        0.0293
     36 C          -0.8412    0.4859   28.7563 C.ar    1  UNL1        0.1401
     37 F          -1.9701    0.1935   29.6997 F       1  UNL1       -0.2042
     38 C          -1.0599    1.3959   27.5842 C.ar    1  UNL1        0.0293
     39 C           0.0690    1.6884   26.6408 C.ar    1  UNL1       -0.0020
@<TRIPOS>BOND
     1     1     2    1
     2     2     3    1
     3     3     4    1
     4     4     5    1
     5     4    10    1
     6    10    11   am
     7    11    12    2
     8    11    13   am
     9    13    16    1
    10    16    17   ar
    11    17    18   ar
    12    18    21    1
    13    21    22    1
    14    21    23    1
    15    21    24    1
    16    18    19   ar
    17    19    20   ar
    18     4     6    1
    19     6    25    1
    20    25    26    1
    21    26    27    1
    22    27    28    1
    23    28    29    1
    24    29    30    1
    25    30    32    1
    26    32    33    1
    27    33    34   ar
    28    34    35   ar
    29    35    36   ar
    30    36    37    1
    31    36    38   ar
    32    38    39   ar
    33    30    31    1
    34     6     7    1
    35     7     8    1
    36     8     9    2
    37     8     2   am
    38    20    16   ar
    39    31    26    1
    40    39    33   ar
    41    10    14    1
    42    13    15    1
@<TRIPOS>MOLECULE
*****
 39 42 0 0 0
SMALL
GASTEIGER

@<TRIPOS>ATOM
      1 C          -5.3117    3.5734   20.0567 C.3     1  UNL1        0.1183
      2 N          -4.0529    3.4795   20.8672 N.am    1  UNL1       -0.2425
      3 C          -2.7343    3.2715   20.1832 C.3     1  UNL1        0.1183
      4 C          -1.4756    3.1776   20.9936 C.3     1  UNL1        0.1146
      5 C          -0.9103    3.0107   19.6143 C.3     1  UNL1        0.0252
      6 C          -1.5355    3.2917   22.4881 C.3     1  UNL1        0.2040
      7 O          -2.8542    3.4997   23.1720 O.3     1  UNL1       -0.4351
      8 C          -4.1129    3.5936   22.3616 C.2     1  UNL1        0.4049
      9 O          -5.4316    3.8016   23.0456 O.2     1  UNL1       -0.2262
     10 N          -0.0205    3.0257   21.3250 N.am    1  UNL1       -0.2867
     11 C           0.6266    1.6741   21.2594 C.2     1  UNL1        0.3059
     12 O          -0.1814    0.4742   20.8624 O.2     1  UNL1       -0.2524
     13 N           2.0817    1.5224   21.5907 N.am    1  UNL1       -0.2485
     14 H           0.5097    3.8133   21.5855 H       1  UNL1        0.1510
     15 H           2.6120    2.3099   21.8513 H       1  UNL1        0.1583
     16 C           2.7287    0.1707   21.5251 C.ar    1  UNL1        0.1664
     17 N           3.0259   -0.6048   20.2760 N.ar    1  UNL1       -0.2283
     18 C           3.6730   -1.8976   20.6759 C.ar    1  UNL1        0.0667
     19 C           3.7759   -1.9211   22.1722 C.ar    1  UNL1        0.0528
     20 S           3.1923   -0.6427   22.6971 S.2     1  UNL1       -0.0511
     21 C           4.1361   -2.9773   19.7433 C.3     1  UNL1        0.0360
     22 C           3.9507   -2.0507   18.5784 C.3     1  UNL1        0.0059
     23 C           4.3214   -3.9040   20.9081 C.3     1  UNL1        0.0059
     24 C           4.5991   -4.0571   18.8106 C.3     1  UNL1        0.0059
     25 C          -0.2768    3.1978   23.2985 C.3     1  UNL1        0.1181
     26 N          -0.3182    3.4374   24.7786 N.3     1  UNL1       -0.2696
     27 C          -0.1761    4.8302   25.3172 C.3     1  UNL1        0.0722
     28 C          -0.2174    5.0698   26.7974 C.3     1  UNL1        0.0174
     29 C          -0.4009    3.9166   27.7390 C.3     1  UNL1        0.0031
     30 C          -0.5430    2.5239   27.2004 C.3     1  UNL1        0.0204
     31 C          -0.5016    2.2843   25.7202 C.3     1  UNL1        0.0725
     32 C          -0.7264    1.3708   28.1420 C.3     1  UNL1        0.0277
     33 C           0.3683    1.0023   29.0989 C.ar    1  UNL1       -0.0220
     34 C           0.5777    1.8094   30.3459 C.ar    1  UNL1       -0.0020
     35 C           1.6725    1.4409   31.3028 C.ar    1  UNL1        0.0293
     36 C           2.5580    0.2654   31.0127 C.ar    1  UNL1        0.1401
     37 F           3.6528   -0.1030   31.9696 F       1  UNL1       -0.2042
     38 C           2.3487   -0.5416   29.7658 C.ar    1  UNL1        0.0293
     39 C           1.2538   -0.1732   28.8088 C.ar    1  UNL1       -0.0020
@<TRIPOS>BOND
     1     1     2    1
     2     2     3    1
     3     3     4    1
     4     4     5    1
     5     4    10    1
     6    10    11   am
     7    11    12    2
     8    11    13   am
     9    13    16    1
    10    16    17   ar
    11    17    18   ar
    12    18    21    1
    13    21    22    1
    14    21    23    1
    15    21    24    1
    16    18    19   ar
    17    19    20   ar
    18     4     6    1
    19     6    25    1
    20    25    26    1
    21    26    27    1
    22    27    28    1
    23    28    29    1
    24    29    30    1
    25    30    32    1
    26    32    33    1
    27    33    34   ar
    28    34    35   ar
    29    35    36   ar
    30    36    37    1
    31    36    38   ar
    32    38    39   ar
    33    30    31    1
    34     6     7    1
    35     7     8    1
    36     8     9    2
    37     8     2   am
    38    20    16   ar
    39    31    26    1
    40    39    33   ar
    41    10    14    1
    42    13    15    1
@<TRIPOS>MOLECULE
*****
 39 42 0 0 0
SMALL
GASTEIGER

@<TRIPOS>ATOM
      1 C           4.2761   -1.6768   27.5695 C.3     1  UNL1        0.1183
      2 N           3.7063   -0.7194   26.5651 N.am    1  UNL1       -0.2425
      3 C           2.9157    0.4689   27.0263 C.3     1  UNL1        0.1183
      4 C           2.3458    1.4263   26.0220 C.3     1  UNL1        0.1146
      5 C           1.8697    2.0670   27.2919 C.3     1  UNL1        0.0252
      6 C           2.5665    1.1953   24.5564 C.3     1  UNL1        0.2040
      7 O           3.3571    0.0070   24.0952 O.3     1  UNL1       -0.4351
      8 C           3.9270   -0.9504   25.0996 C.2     1  UNL1        0.4049
      9 O           4.7176   -2.1388   24.6383 O.2     1  UNL1       -0.2262
     10 N           1.6106    2.6062   25.4588 N.am    1  UNL1       -0.2867
     11 C           0.1136    2.6632   25.5347 C.2     1  UNL1        0.3059
     12 O          -0.6483    1.5402   26.1739 O.2     1  UNL1       -0.2524
     13 N          -0.6215    3.8432   24.9714 N.am    1  UNL1       -0.2485
     14 H           2.1106    3.3432   25.0392 H       1  UNL1        0.1510
     15 H          -0.1215    4.5803   24.5519 H       1  UNL1        0.1583
     16 C          -2.1185    3.9001   25.0474 C.ar    1  UNL1        0.1664
     17 N          -3.0603    3.9236   23.8801 N.ar    1  UNL1       -0.2283
     18 C          -4.4604    3.9816   24.4151 C.ar    1  UNL1        0.0667
     19 C          -4.3840    3.9939   25.9132 C.ar    1  UNL1        0.0528
     20 S          -2.9366    3.9436   26.3039 S.2     1  UNL1       -0.0511
     21 C          -5.7164    4.0204   23.5960 C.3     1  UNL1        0.0360
     22 C          -5.0449    3.2092   22.5278 C.3     1  UNL1        0.0059
     23 C          -6.3880    4.8315   24.6642 C.3     1  UNL1        0.0059
     24 C          -6.9725    4.0592   22.7769 C.3     1  UNL1        0.0059
     25 C           1.9966    2.1527   23.5521 C.3     1  UNL1        0.1181
     26 N           1.6642    1.6783   22.1685 N.3     1  UNL1       -0.2696
     27 C           0.2377    1.6583   21.7050 C.3     1  UNL1        0.0722
     28 C          -0.0948    1.1839   20.3214 C.3     1  UNL1        0.0174
     29 C           0.9992    0.7297   19.4012 C.3     1  UNL1        0.0031
     30 C           2.4256    0.7497   19.8646 C.3     1  UNL1        0.0204
     31 C           2.7582    1.2241   21.2482 C.3     1  UNL1        0.0725
     32 C           3.5196    0.2955   18.9443 C.3     1  UNL1        0.0277
     33 C           3.8928   -1.1560   18.8819 C.ar    1  UNL1       -0.0220
     34 C           5.1397   -1.5796   18.1637 C.ar    1  UNL1       -0.0020
     35 C           5.5129   -3.0311   18.1013 C.ar    1  UNL1        0.0293
     36 C           4.6393   -4.0590   18.7572 C.ar    1  UNL1        0.1401
     37 F           5.0125   -5.5104   18.6948 F       1  UNL1       -0.2042
     38 C           3.3925   -3.6354   19.4754 C.ar    1  UNL1        0.0293
     39 C           3.0192   -2.1839   19.5378 C.ar    1  UNL1       -0.0020
@<TRIPOS>BOND
     1     1     2    1
     2     2     3    1
     3     3     4    1
     4     4     5    1
     5     4    10    1
     6    10    11   am
     7    11    12    2
     8    11    13   am
     9    13    16    1
    10    16    17   ar
    11    17    18   ar
    12    18    21    1
    13    21    22    1
    14    21    23    1
    15    21    24    1
    16    18    19   ar
    17    19    20   ar
    18     4     6    1
    19     6    25    1
    20    25    26    1
    21    26    27    1
    22    27    28    1
    23    28    29    1
    24    29    30    1
    25    30    32    1
    26    32    33    1
    27    33    34   ar
    28    34    35   ar
    29    35    36   ar
    30    36    37    1
    31    36    38   ar
    32    38    39   ar
    33    30    31    1
    34     6     7    1
    35     7     8    1
    36     8     9    2
    37     8     2   am
    38    20    16   ar
    39    31    26    1
    40    39    33   ar
    41    10    14    1
    42    13    15    1
@<TRIPOS>MOLECULE
*****
 39 42 0 0 0
SMALL
GASTEIGER

@<TRIPOS>ATOM
      1 C          -2.6345    3.2360   26.5735 C.3     1  UNL1        0.1183
      2 N          -1.2802    2.6072   26.7167 N.am    1  UNL1       -0.2425
      3 C          -1.0904    1.4360   27.6345 C.3     1  UNL1        0.1183
      4 C           0.2639    0.8072   27.7777 C.3     1  UNL1        0.1146
      5 C          -0.5254   -0.0578   28.7151 C.3     1  UNL1        0.0252
      6 C           1.4283    1.3495   27.0032 C.3     1  UNL1        0.2040
      7 O           1.2385    2.5206   26.0854 O.3     1  UNL1       -0.4351
      8 C          -0.1158    3.1494   25.9421 C.2     1  UNL1        0.4049
      9 O          -0.3056    4.3206   25.0243 O.2     1  UNL1       -0.2262
     10 N           1.3440   -0.1221   28.2466 N.am    1  UNL1       -0.2867
     11 C           1.8565   -0.0275   29.6531 C.2     1  UNL1        0.3059
     12 O           1.2889    0.9964   30.5909 O.2     1  UNL1       -0.2524
     13 N           2.9367   -0.9569   30.1218 N.am    1  UNL1       -0.2485
     14 H           1.7166   -0.7941   27.6311 H       1  UNL1        0.1510
     15 H           3.3092   -1.6289   29.5063 H       1  UNL1        0.1583
     16 C           3.4491   -0.8623   31.5284 C.ar    1  UNL1        0.1664
     17 N           3.2425    0.2899   32.4664 N.ar    1  UNL1       -0.2283
     18 C           3.9237   -0.0388   33.7617 C.ar    1  UNL1        0.0667
     19 C           4.5515   -1.3943   33.6242 C.ar    1  UNL1        0.0528
     20 S           4.2581   -1.9032   32.2439 S.2     1  UNL1       -0.0511
     21 C           3.9693    0.8344   34.9804 C.3     1  UNL1        0.0360
     22 C           4.7401   -0.2251   35.7108 C.3     1  UNL1        0.0059
     23 C           3.1986    1.8940   34.2501 C.3     1  UNL1        0.0059
     24 C           4.0149    1.7077   36.1992 C.3     1  UNL1        0.0059
     25 C           2.7826    0.7207   27.1464 C.3     1  UNL1        0.1181
     26 N           3.3217   -0.1559   26.0551 N.3     1  UNL1       -0.2696
     27 C           4.3345   -1.2151   26.3753 C.3     1  UNL1        0.0722
     28 C           4.8736   -2.0916   25.2840 C.3     1  UNL1        0.0174
     29 C           4.4000   -1.9091   23.8725 C.3     1  UNL1        0.0031
     30 C           3.3873   -0.8499   23.5523 C.3     1  UNL1        0.0204
     31 C           2.8481    0.0267   24.6436 C.3     1  UNL1        0.0725
     32 C           2.9137   -0.6674   22.1408 C.3     1  UNL1        0.0277
     33 C           3.7627   -1.1393   20.9978 C.ar    1  UNL1       -0.0220
     34 C           3.3215   -2.3090   20.1687 C.ar    1  UNL1       -0.0020
     35 C           4.1705   -2.7809   19.0258 C.ar    1  UNL1        0.0293
     36 C           5.4608   -2.0833   18.7119 C.ar    1  UNL1        0.1401
     37 F           6.3098   -2.5552   17.5689 F       1  UNL1       -0.2042
     38 C           5.9020   -0.9137   19.5409 C.ar    1  UNL1        0.0293
     39 C           5.0530   -0.4417   20.6839 C.ar    1  UNL1       -0.0020
@<TRIPOS>BOND
     1     1     2    1
     2     2     3    1
     3     3     4    1
     4     4     5    1
     5     4    10    1
     6    10    11   am
     7    11    12    2
     8    11    13   am
     9    13    16    1
    10    16    17   ar
    11    17    18   ar
    12    18    21    1
    13    21    22    1
    14    21    23    1
    15    21    24    1
    16    18    19   ar
    17    19    20   ar
    18     4     6    1
    19     6    25    1
    20    25    26    1
    21    26    27    1
    22    27    28    1
    23    28    29    1
    24    29    30    1
    25    30    32    1
    26    32    33    1
    27    33    34   ar
    28    34    35   ar
    29    35    36   ar
    30    36    37    1
    31    36    38   ar
    32    38    39   ar
    33    30    31    1
    34     6     7    1
    35     7     8    1
    36     8     9    2
    37     8     2   am
    38    20    16   ar
    39    31    26    1
    40    39    33   ar
    41    10    14    1
    42    13    15    1
@<TRIPOS>MOLECULE
*****
 39 42 0 0 0
SMALL
GASTEIGER

@<TRIPOS>ATOM
      1 C           7.7509   -5.6016   28.2371 C.3     1  UNL1        0.1183
      2 N           7.0740   -4.5208   29.0267 N.am    1  UNL1       -0.2425
      3 C           6.5652   -3.2919   28.3332 C.3     1  UNL1        0.1183
      4 C           5.8884   -2.2110   29.1229 C.3     1  UNL1        0.1146
      5 C           5.8122   -1.6159   27.7481 C.3     1  UNL1        0.0252
      6 C           5.7203   -2.3590   30.6061 C.3     1  UNL1        0.2040
      7 O           6.2291   -3.5879   31.2996 O.3     1  UNL1       -0.4351
      8 C           6.9059   -4.6688   30.5099 C.2     1  UNL1        0.4049
      9 O           7.4147   -5.8977   31.2035 O.2     1  UNL1       -0.2262
     10 N           5.1851   -0.9234   29.4350 N.am    1  UNL1       -0.2867
     11 C           3.8290   -0.6498   28.8553 C.2     1  UNL1        0.3059
     12 O           3.1761   -1.6638   27.9633 O.2     1  UNL1       -0.2524
     13 N           3.1258    0.6379   29.1675 N.am    1  UNL1       -0.2485
     14 H           5.6135   -0.2579   30.0205 H       1  UNL1        0.1510
     15 H           3.5542    1.3034   29.7529 H       1  UNL1        0.1583
     16 C           1.7697    0.9115   28.5877 C.ar    1  UNL1        0.1664
     17 N           1.4909    1.5851   27.2767 N.ar    1  UNL1       -0.2283
     18 C           0.0032    1.6495   27.0957 C.ar    1  UNL1        0.0667
     19 C          -0.6374    1.0156   28.2949 C.ar    1  UNL1        0.0528
     20 S           0.4543    0.5595   29.2170 S.2     1  UNL1       -0.0511
     21 C          -0.7173    2.2433   25.9218 C.3     1  UNL1        0.0360
     22 C           0.1910    1.4996   24.9881 C.3     1  UNL1        0.0059
     23 C          -1.6256    2.9871   26.8555 C.3     1  UNL1        0.0059
     24 C          -1.4378    2.8372   24.7479 C.3     1  UNL1        0.0059
     25 C           5.0435   -1.2781   31.3957 C.3     1  UNL1        0.1181
     26 N           5.6966   -0.7298   32.6296 N.3     1  UNL1       -0.2696
     27 C           7.0950   -0.1912   32.5618 C.3     1  UNL1        0.0722
     28 C           7.7482    0.3571   33.7957 C.3     1  UNL1        0.0174
     29 C           7.0031    0.3670   35.0975 C.3     1  UNL1        0.0031
     30 C           5.6047   -0.1715   35.1654 C.3     1  UNL1        0.0204
     31 C           4.9515   -0.7199   33.9314 C.3     1  UNL1        0.0725
     32 C           4.8596   -0.1616   36.4672 C.3     1  UNL1        0.0277
     33 C           3.9058    0.9538   36.7770 C.ar    1  UNL1       -0.0220
     34 C           3.5441    1.9484   35.7139 C.ar    1  UNL1       -0.0020
     35 C           2.5903    3.0638   36.0236 C.ar    1  UNL1        0.0293
     36 C           1.9981    3.1848   37.3965 C.ar    1  UNL1        0.1401
     37 F           1.0443    4.3002   37.7062 F       1  UNL1       -0.2042
     38 C           2.3597    2.1903   38.4595 C.ar    1  UNL1        0.0293
     39 C           3.3136    1.0748   38.1498 C.ar    1  UNL1       -0.0020
@<TRIPOS>BOND
     1     1     2    1
     2     2     3    1
     3     3     4    1
     4     4     5    1
     5     4    10    1
     6    10    11   am
     7    11    12    2
     8    11    13   am
     9    13    16    1
    10    16    17   ar
    11    17    18   ar
    12    18    21    1
    13    21    22    1
    14    21    23    1
    15    21    24    1
    16    18    19   ar
    17    19    20   ar
    18     4     6    1
    19     6    25    1
    20    25    26    1
    21    26    27    1
    22    27    28    1
    23    28    29    1
    24    29    30    1
    25    30    32    1
    26    32    33    1
    27    33    34   ar
    28    34    35   ar
    29    35    36   ar
    30    36    37    1
    31    36    38   ar
    32    38    39   ar
    33    30    31    1
    34     6     7    1
    35     7     8    1
    36     8     9    2
    37     8     2   am
    38    20    16   ar
    39    31    26    1
    40    39    33   ar
    41    10    14    1
    42    13    15    1
@<TRIPOS>MOLECULE
*****
 39 42 0 0 0
SMALL
GASTEIGER

@<TRIPOS>ATOM
      1 C           4.2672    1.2864   25.6092 C.3     1  UNL1        0.1183
      2 N           3.7385    1.0715   26.9964 N.am    1  UNL1       -0.2425
      3 C           2.4885    1.7721   27.4396 C.3     1  UNL1        0.1183
      4 C           1.9598    1.5572   28.8268 C.3     1  UNL1        0.1146
      5 C           0.9307    2.5135   28.3011 C.3     1  UNL1        0.0252
      6 C           2.6813    0.6417   29.7709 C.3     1  UNL1        0.2040
      7 O           3.9313   -0.0589   29.3277 O.3     1  UNL1       -0.4351
      8 C           4.4600    0.1560   27.9405 C.2     1  UNL1        0.4049
      9 O           5.7101   -0.5447   27.4974 O.2     1  UNL1       -0.2262
     10 N           1.0737    1.6745   30.0314 N.am    1  UNL1       -0.2867
     11 C           1.0846    2.9306   30.8512 C.2     1  UNL1        0.3059
     12 O           1.9816    4.0696   30.4663 O.2     1  UNL1       -0.2524
     13 N           0.1984    3.0477   32.0558 N.am    1  UNL1       -0.2485
     14 H           0.4850    0.9269   30.2840 H       1  UNL1        0.1510
     15 H          -0.3904    2.3002   32.3083 H       1  UNL1        0.1583
     16 C           0.2093    4.3039   32.8755 C.ar    1  UNL1        0.1664
     17 N           0.9729    4.5193   34.1485 N.ar    1  UNL1       -0.2283
     18 C           0.6942    5.9137   34.6260 C.ar    1  UNL1        0.0667
     19 C          -0.2417    6.5601   33.6480 C.ar    1  UNL1        0.0528
     20 S          -0.5413    5.5652   32.5661 S.2     1  UNL1       -0.0511
     21 C           1.2531    6.5500   35.8641 C.3     1  UNL1        0.0360
     22 C          -0.0933    6.4583   36.5190 C.3     1  UNL1        0.0059
     23 C           2.5994    6.6416   35.2091 C.3     1  UNL1        0.0059
     24 C           1.8120    7.1862   37.1021 C.3     1  UNL1        0.0059
     25 C           2.1526    0.4268   31.1581 C.3     1  UNL1        0.1181
     26 N           3.1022    0.1809   32.2928 N.3     1  UNL1       -0.2696
     27 C           3.8747   -1.1033   32.3596 C.3     1  UNL1        0.0722
     28 C           4.8243   -1.3491   33.4944 C.3     1  UNL1        0.0174
     29 C           5.0015   -0.3109   34.5624 C.3     1  UNL1        0.0031
     30 C           4.2291    0.9732   34.4957 C.3     1  UNL1        0.0204
     31 C           3.2795    1.2191   33.3609 C.3     1  UNL1        0.0725
     32 C           4.4064    2.0114   35.5637 C.3     1  UNL1        0.0277
     33 C           3.4555    2.0652   36.7225 C.ar    1  UNL1       -0.0220
     34 C           2.5563    3.2526   36.9004 C.ar    1  UNL1       -0.0020
     35 C           1.6054    3.3064   38.0592 C.ar    1  UNL1        0.0293
     36 C           1.5537    2.1729   39.0402 C.ar    1  UNL1        0.1401
     37 F           0.6028    2.2267   40.1990 F       1  UNL1       -0.2042
     38 C           2.4528    0.9855   38.8624 C.ar    1  UNL1        0.0293
     39 C           3.4037    0.9316   37.7035 C.ar    1  UNL1       -0.0020
@<TRIPOS>BOND
     1     1     2    1
     2     2     3    1
     3     3     4    1
     4     4     5    1
     5     4    10    1
     6    10    11   am
     7    11    12    2
     8    11    13   am
     9    13    16    1
    10    16    17   ar
    11    17    18   ar
    12    18    21    1
    13    21    22    1
    14    21    23    1
    15    21    24    1
    16    18    19   ar
    17    19    20   ar
    18     4     6    1
    19     6    25    1
    20    25    26    1
    21    26    27    1
    22    27    28    1
    23    28    29    1
    24    29    30    1
    25    30    32    1
    26    32    33    1
    27    33    34   ar
    28    34    35   ar
    29    35    36   ar
    30    36    37    1
    31    36    38   ar
    32    38    39   ar
    33    30    31    1
    34     6     7    1
    35     7     8    1
    36     8     9    2
    37     8     2   am
    38    20    16   ar
    39    31    26    1
    40    39    33   ar
    41    10    14    1
    42    13    15    1
