@<TRIPOS>MOLECULE
*****
 41 45 0 0 0
SMALL
GASTEIGER

@<TRIPOS>ATOM
      1 C          -3.1626    4.9268   18.4317 C.2     1  UNL1        0.2251
      2 O          -3.1874    5.6032   17.0931 O.2     1  UNL1       -0.2749
      3 N          -2.0053    4.0497   18.8076 N.am    1  UNL1       -0.2795
      4 C          -1.9805    3.3733   20.1461 C.3     1  UNL1        0.0942
      5 C          -0.8232    2.4962   20.5220 C.3     1  UNL1        0.0343
      6 C           0.3095    2.2955   19.5593 C.3     1  UNL1        0.0911
      7 C           0.2847    2.9720   18.2206 C.3     1  UNL1        0.0343
      8 C          -0.8726    3.8490   17.8448 C.3     1  UNL1        0.0942
      9 C          -6.5604    5.5288   21.3200 C.3     1  UNL1        0.0542
     10 C          -5.3198    6.3636   21.4370 C.3     1  UNL1        0.0162
     11 C          -4.1872    6.1629   20.4743 C.3     1  UNL1        0.0104
     12 C          -4.2952    5.1274   19.3945 C.3     1  UNL1        0.0768
     13 C          -5.5359    4.2925   19.2774 C.3     1  UNL1        0.0095
     14 C          -6.4995    3.2639   18.7641 C.3     1  UNL1        0.0005
     15 C          -4.7380    3.7346   18.1364 C.3     1  UNL1        0.0005
     16 C          -6.6685    4.4932   20.2402 C.3     1  UNL1        0.0162
     17 N          -7.6931    5.7295   22.2828 N.3     1  UNL1       -0.2962
     18 H          -7.6888    6.7163   22.5408 H       1  UNL1        0.1235
     19 C          -7.7375    4.9475   23.5620 C.3     1  UNL1        0.0768
     20 C          -9.0554    4.5047   24.1249 C.3     1  UNL1        0.0220
     21 C          -3.9169    3.9303   25.7111 C.ar    1  UNL1        0.1387
     22 C          -4.8668    4.9295   26.3022 C.ar    1  UNL1        0.0366
     23 C          -6.1403    5.2686   25.5859 C.ar    1  UNL1        0.0001
     24 C          -6.4640    4.6085   24.2784 C.ar    1  UNL1       -0.0078
     25 C          -5.5141    3.6093   23.6873 C.ar    1  UNL1        0.0001
     26 C          -4.2406    3.2702   24.4037 C.ar    1  UNL1        0.0366
     27 C          -1.5254    2.9153   25.6906 C.3     1  UNL1        0.2525
     28 O          -2.6434    3.5913   26.4275 O.3     1  UNL1       -0.4714
     29 C           0.7849    1.4471   20.7013 C.2     1  UNL1        0.2286
     30 O           0.5783   -0.0383   20.6688 O.2     1  UNL1       -0.2746
     31 N           1.4668    2.0840   21.8756 N.am    1  UNL1       -0.2793
     32 C           1.9933    1.3683   23.0842 C.3     1  UNL1        0.0935
     33 C           2.5939    2.3904   24.0032 C.3     1  UNL1        0.0233
     34 C           2.4387    3.7378   23.3626 C.3     1  UNL1        0.0233
     35 C           1.7421    3.5485   22.0477 C.3     1  UNL1        0.0935
     36 C           1.6071    1.8002   18.9931 C.ar    1  UNL1       -0.0145
     37 C           1.6860    0.4317   18.3841 C.ar    1  UNL1       -0.0038
     38 C           2.9838   -0.0636   17.8179 C.ar    1  UNL1       -0.0003
     39 C           4.2026    0.8095   17.8608 C.ar    1  UNL1       -0.0000
     40 C           4.1238    2.1780   18.4698 C.ar    1  UNL1       -0.0003
     41 C           2.8261    2.6734   19.0360 C.ar    1  UNL1       -0.0038
@<TRIPOS>BOND
     1    27    28    1
     2    28    21    1
     3    21    22   ar
     4    22    23   ar
     5    23    24   ar
     6    24    19    1
     7    19    20    1
     8    19    17    1
     9     9    17    1
    10     9    10    1
    11    10    11    1
    12    11    12    1
    13    12     1    1
    14     1     2    2
    15     1     3   am
    16     3     4    1
    17     4     5    1
    18     5     6    1
    19     6    29    1
    20    29    30    2
    21    29    31   am
    22    31    32    1
    23    32    33    1
    24    33    34    1
    25    34    35    1
    26     6    36    1
    27    36    37   ar
    28    37    38   ar
    29    38    39   ar
    30    39    40   ar
    31    40    41   ar
    32     6     7    1
    33     7     8    1
    34    12    13    1
    35    13    14    1
    36    13    15    1
    37    13    16    1
    38    24    25   ar
    39    25    26   ar
    40    26    21   ar
    41    16     9    1
    42     8     3    1
    43    35    31    1
    44    41    36   ar
    45    17    18    1
@<TRIPOS>MOLECULE
*****
 41 45 0 0 0
SMALL
GASTEIGER

@<TRIPOS>ATOM
      1 C           4.1067   -1.1546   25.1389 C.2     1  UNL1        0.2251
      2 O           2.9615   -0.4232   25.7743 O.2     1  UNL1       -0.2749
      3 N           5.0628   -1.9358   25.9908 N.am    1  UNL1       -0.2795
      4 C           6.2080   -2.6671   25.3554 C.3     1  UNL1        0.0942
      5 C           7.1641   -3.4484   26.2072 C.3     1  UNL1        0.0343
      6 C           6.9750   -3.4983   27.6944 C.3     1  UNL1        0.0911
      7 C           5.8297   -2.7669   28.3298 C.3     1  UNL1        0.0343
      8 C           4.8737   -1.9857   27.4779 C.3     1  UNL1        0.0942
      9 C           4.6741   -1.0049   20.6774 C.3     1  UNL1        0.0542
     10 C           4.1525   -2.2530   21.3256 C.3     1  UNL1        0.0162
     11 C           3.9634   -2.3029   22.8128 C.3     1  UNL1        0.0104
     12 C           4.2959   -1.1047   23.6517 C.3     1  UNL1        0.0768
     13 C           4.8174    0.1434   23.0035 C.3     1  UNL1        0.0095
     14 C           5.3359    1.5430   22.8536 C.3     1  UNL1        0.0005
     15 C           4.8084    0.5796   24.4386 C.3     1  UNL1        0.0005
     16 C           5.0066    0.1933   21.5163 C.3     1  UNL1        0.0162
     17 N           4.8632   -0.9550   19.1902 N.3     1  UNL1       -0.2962
     18 H           5.6210   -0.2960   19.0116 H       1  UNL1        0.1235
     19 C           3.7227   -0.5543   18.3021 C.3     1  UNL1        0.0768
     20 C           3.7854   -0.8323   16.8295 C.3     1  UNL1        0.0220
     21 C           0.1133    1.4820   20.0559 C.ar    1  UNL1        0.1387
     22 C           0.3732    0.0339   20.3479 C.ar    1  UNL1        0.0366
     23 C           1.5764   -0.6449   19.7632 C.ar    1  UNL1        0.0001
     24 C           2.5196    0.1245   18.8867 C.ar    1  UNL1       -0.0078
     25 C           2.2597    1.5726   18.5948 C.ar    1  UNL1        0.0001
     26 C           1.0565    2.2514   19.1794 C.ar    1  UNL1        0.0366
     27 C          -0.9188    3.3632   21.5208 C.3     1  UNL1        0.2525
     28 O          -1.0898    2.1608   20.6405 O.3     1  UNL1       -0.4714
     29 C           8.2025   -4.3496   27.5592 C.2     1  UNL1        0.2286
     30 O           9.5355   -3.8184   27.9964 O.2     1  UNL1       -0.2746
     31 N           8.0972   -5.7320   26.9868 N.am    1  UNL1       -0.2793
     32 C           9.2312   -6.6942   26.7914 C.3     1  UNL1        0.0935
     33 C           8.6743   -7.9520   26.1932 C.3     1  UNL1        0.0233
     34 C           7.1959   -7.7671   26.0189 C.3     1  UNL1        0.0233
     35 C           6.8392   -6.3952   26.5093 C.3     1  UNL1        0.0935
     36 C           7.2122   -3.8438   29.1346 C.ar    1  UNL1       -0.0145
     37 C           7.7621   -2.8109   30.0730 C.ar    1  UNL1       -0.0038
     38 C           7.9993   -3.1565   31.5133 C.ar    1  UNL1       -0.0003
     39 C           7.6866   -4.5349   32.0152 C.ar    1  UNL1       -0.0000
     40 C           7.1367   -5.5678   31.0768 C.ar    1  UNL1       -0.0003
     41 C           6.8994   -5.2224   29.6365 C.ar    1  UNL1       -0.0038
@<TRIPOS>BOND
     1    27    28    1
     2    28    21    1
     3    21    22   ar
     4    22    23   ar
     5    23    24   ar
     6    24    19    1
     7    19    20    1
     8    19    17    1
     9     9    17    1
    10     9    10    1
    11    10    11    1
    12    11    12    1
    13    12     1    1
    14     1     2    2
    15     1     3   am
    16     3     4    1
    17     4     5    1
    18     5     6    1
    19     6    29    1
    20    29    30    2
    21    29    31   am
    22    31    32    1
    23    32    33    1
    24    33    34    1
    25    34    35    1
    26     6    36    1
    27    36    37   ar
    28    37    38   ar
    29    38    39   ar
    30    39    40   ar
    31    40    41   ar
    32     6     7    1
    33     7     8    1
    34    12    13    1
    35    13    14    1
    36    13    15    1
    37    13    16    1
    38    24    25   ar
    39    25    26   ar
    40    26    21   ar
    41    16     9    1
    42     8     3    1
    43    35    31    1
    44    41    36   ar
    45    17    18    1
@<TRIPOS>MOLECULE
*****
 41 45 0 0 0
SMALL
GASTEIGER

@<TRIPOS>ATOM
      1 C           3.2270    2.5039   29.2935 C.2     1  UNL1        0.2251
      2 O           3.1705    3.9811   29.5480 O.2     1  UNL1       -0.2749
      3 N           3.7386    1.5786   30.3575 N.am    1  UNL1       -0.2795
      4 C           3.7951    0.1015   30.1029 C.3     1  UNL1        0.0942
      5 C           4.3067   -0.8240   31.1669 C.3     1  UNL1        0.0343
      6 C           4.7619   -0.2721   32.4853 C.3     1  UNL1        0.0911
      7 C           4.7054    1.2051   32.7398 C.3     1  UNL1        0.0343
      8 C           4.1938    2.1304   31.6759 C.3     1  UNL1        0.0942
      9 C           1.8615    0.8485   25.3382 C.3     1  UNL1        0.0542
     10 C           3.3255    1.0289   25.6105 C.3     1  UNL1        0.0162
     11 C           3.7806    1.5808   26.9290 C.3     1  UNL1        0.0104
     12 C           2.7719    1.9521   27.9751 C.3     1  UNL1        0.0768
     13 C           1.3078    1.7716   27.7028 C.3     1  UNL1        0.0095
     14 C          -0.1772    1.7843   27.9137 C.3     1  UNL1        0.0005
     15 C           1.2472    2.3279   29.0945 C.3     1  UNL1        0.0005
     16 C           0.8526    1.2198   26.3843 C.3     1  UNL1        0.0162
     17 N           1.4064    0.2967   24.0197 N.3     1  UNL1       -0.2962
     18 H           1.2674   -0.7051   24.1520 H       1  UNL1        0.1235
     19 C           2.2673    0.4574   22.8020 C.3     1  UNL1        0.0768
     20 C           2.4659    1.8159   22.1979 C.3     1  UNL1        0.0220
     21 C           4.2542   -3.1361   20.9609 C.ar    1  UNL1        0.1387
     22 C           4.4137   -2.8596   22.4265 C.ar    1  UNL1        0.0366
     23 C           3.7514   -1.6617   23.0402 C.ar    1  UNL1        0.0001
     24 C           2.9296   -0.7405   22.1883 C.ar    1  UNL1       -0.0078
     25 C           2.7701   -1.0170   20.7227 C.ar    1  UNL1        0.0001
     26 C           3.4324   -2.2148   20.1090 C.ar    1  UNL1        0.0366
     27 C           4.4059   -4.8918   19.0519 C.3     1  UNL1        0.2525
     28 O           4.9165   -4.3339   20.3473 O.3     1  UNL1       -0.4714
     29 C           5.0058   -1.7340   32.7166 C.2     1  UNL1        0.2286
     30 O           4.0540   -2.5289   33.5606 O.2     1  UNL1       -0.2746
     31 N           6.2015   -2.4009   32.1038 N.am    1  UNL1       -0.2793
     32 C           6.5737   -3.8471   32.2459 C.3     1  UNL1        0.0935
     33 C           7.8371   -4.0789   31.4713 C.3     1  UNL1        0.0233
     34 C           8.2458   -2.7759   30.8505 C.3     1  UNL1        0.0233
     35 C           7.2349   -1.7389   31.2414 C.3     1  UNL1        0.0935
     36 C           5.3017   -0.2280   33.8841 C.ar    1  UNL1       -0.0145
     37 C           4.3604   -0.2345   35.0519 C.ar    1  UNL1       -0.0038
     38 C           4.9003   -0.1904   36.4507 C.ar    1  UNL1       -0.0003
     39 C           6.3815   -0.1397   36.6817 C.ar    1  UNL1       -0.0000
     40 C           7.3228   -0.1332   35.5139 C.ar    1  UNL1       -0.0003
     41 C           6.7830   -0.1773   34.1151 C.ar    1  UNL1       -0.0038
@<TRIPOS>BOND
     1    27    28    1
     2    28    21    1
     3    21    22   ar
     4    22    23   ar
     5    23    24   ar
     6    24    19    1
     7    19    20    1
     8    19    17    1
     9     9    17    1
    10     9    10    1
    11    10    11    1
    12    11    12    1
    13    12     1    1
    14     1     2    2
    15     1     3   am
    16     3     4    1
    17     4     5    1
    18     5     6    1
    19     6    29    1
    20    29    30    2
    21    29    31   am
    22    31    32    1
    23    32    33    1
    24    33    34    1
    25    34    35    1
    26     6    36    1
    27    36    37   ar
    28    37    38   ar
    29    38    39   ar
    30    39    40   ar
    31    40    41   ar
    32     6     7    1
    33     7     8    1
    34    12    13    1
    35    13    14    1
    36    13    15    1
    37    13    16    1
    38    24    25   ar
    39    25    26   ar
    40    26    21   ar
    41    16     9    1
    42     8     3    1
    43    35    31    1
    44    41    36   ar
    45    17    18    1
@<TRIPOS>MOLECULE
*****
 41 45 0 0 0
SMALL
GASTEIGER

@<TRIPOS>ATOM
      1 C           0.7018    3.1156   26.4842 C.2     1  UNL1        0.2251
      2 O           0.3435    4.5139   26.8920 O.2     1  UNL1       -0.2749
      3 N           0.6928    2.7316   25.0342 N.am    1  UNL1       -0.2795
      4 C           1.0512    1.3334   24.6264 C.3     1  UNL1        0.0942
      5 C           1.0422    0.9494   23.1763 C.3     1  UNL1        0.0343
      6 C           0.6748    1.9637   22.1342 C.3     1  UNL1        0.0911
      7 C           0.3164    3.3621   22.5420 C.3     1  UNL1        0.0343
      8 C           0.3255    3.7460   23.9920 C.3     1  UNL1        0.0942
      9 C           1.8040    0.0725   29.6107 C.3     1  UNL1        0.0542
     10 C           2.8742    0.8873   28.9470 C.3     1  UNL1        0.0162
     11 C           2.5069    1.9017   27.9048 C.3     1  UNL1        0.0104
     12 C           1.0692    2.1012   27.5263 C.3     1  UNL1        0.0768
     13 C          -0.0011    1.2863   28.1900 C.3     1  UNL1        0.0095
     14 C          -1.3633    0.7603   28.5331 C.3     1  UNL1        0.0005
     15 C          -0.8416    2.1180   27.2670 C.3     1  UNL1        0.0005
     16 C           0.3662    0.2720   29.2322 C.3     1  UNL1        0.0162
     17 N           2.1714   -0.9419   30.6528 N.3     1  UNL1       -0.2962
     18 H           1.3470   -1.0738   31.2389 H       1  UNL1        0.1235
     19 C           3.3234   -0.6832   31.5780 C.3     1  UNL1        0.0768
     20 C           3.2440    0.4284   32.5819 C.3     1  UNL1        0.0220
     21 C           7.0174   -3.2422   31.3416 C.ar    1  UNL1        0.1387
     22 C           6.1224   -3.3262   32.5423 C.ar    1  UNL1        0.0366
     23 C           4.8910   -2.4732   32.6211 C.ar    1  UNL1        0.0001
     24 C           4.5547   -1.5362   31.4992 C.ar    1  UNL1       -0.0078
     25 C           5.4497   -1.4522   30.2984 C.ar    1  UNL1        0.0001
     26 C           6.6811   -2.3052   30.2197 C.ar    1  UNL1        0.0366
     27 C           8.1517   -5.5087   30.7703 C.3     1  UNL1        0.2525
     28 O           8.2487   -4.0952   31.2628 O.3     1  UNL1       -0.4714
     29 C           0.9372    0.7742   21.2588 C.2     1  UNL1        0.2286
     30 O          -0.2053    0.0671   20.5920 O.2     1  UNL1       -0.2746
     31 N           2.3421    0.2918   21.0504 N.am    1  UNL1       -0.2793
     32 C           2.7569   -0.8776   20.2075 C.3     1  UNL1        0.0935
     33 C           4.2501   -0.9981   20.2843 C.3     1  UNL1        0.0233
     34 C           4.7582    0.0970   21.1747 C.3     1  UNL1        0.0233
     35 C           3.5790    0.8942   21.6482 C.3     1  UNL1        0.0935
     36 C           0.3986    2.5650   20.7880 C.ar    1  UNL1       -0.0145
     37 C           1.5251    2.7989   19.8256 C.ar    1  UNL1       -0.0038
     38 C           1.2488    3.4002   18.4794 C.ar    1  UNL1       -0.0003
     39 C          -0.1538    3.7675   18.0957 C.ar    1  UNL1       -0.0000
     40 C          -1.2804    3.5336   19.0581 C.ar    1  UNL1       -0.0003
     41 C          -1.0042    2.9324   20.4042 C.ar    1  UNL1       -0.0038
@<TRIPOS>BOND
     1    27    28    1
     2    28    21    1
     3    21    22   ar
     4    22    23   ar
     5    23    24   ar
     6    24    19    1
     7    19    20    1
     8    19    17    1
     9     9    17    1
    10     9    10    1
    11    10    11    1
    12    11    12    1
    13    12     1    1
    14     1     2    2
    15     1     3   am
    16     3     4    1
    17     4     5    1
    18     5     6    1
    19     6    29    1
    20    29    30    2
    21    29    31   am
    22    31    32    1
    23    32    33    1
    24    33    34    1
    25    34    35    1
    26     6    36    1
    27    36    37   ar
    28    37    38   ar
    29    38    39   ar
    30    39    40   ar
    31    40    41   ar
    32     6     7    1
    33     7     8    1
    34    12    13    1
    35    13    14    1
    36    13    15    1
    37    13    16    1
    38    24    25   ar
    39    25    26   ar
    40    26    21   ar
    41    16     9    1
    42     8     3    1
    43    35    31    1
    44    41    36   ar
    45    17    18    1
@<TRIPOS>MOLECULE
*****
 41 45 0 0 0
SMALL
GASTEIGER

@<TRIPOS>ATOM
      1 C          -0.3154    2.4274   20.6608 C.2     1  UNL1        0.2251
      2 O          -1.1115    3.1033   19.5840 O.2     1  UNL1       -0.2749
      3 N          -0.5983    2.7272   22.1030 N.am    1  UNL1       -0.2795
      4 C           0.1978    2.0513   23.1797 C.3     1  UNL1        0.0942
      5 C          -0.0851    2.3512   24.6220 C.3     1  UNL1        0.0343
      6 C          -1.1642    3.3270   24.9875 C.3     1  UNL1        0.0911
      7 C          -1.9603    4.0029   23.9107 C.3     1  UNL1        0.0343
      8 C          -1.6773    3.7030   22.4685 C.3     1  UNL1        0.0942
      9 C           2.9217   -0.5000   19.5643 C.3     1  UNL1        0.0542
     10 C           1.6024   -0.9976   20.0759 C.3     1  UNL1        0.0162
     11 C           0.5234   -0.0218   20.4414 C.3     1  UNL1        0.0104
     12 C           0.7636    1.4516   20.2953 C.3     1  UNL1        0.0768
     13 C           2.0830    1.9492   19.7837 C.3     1  UNL1        0.0095
     14 C           3.1572    2.9004   19.3462 C.3     1  UNL1        0.0005
     15 C           1.3771    3.2553   19.9972 C.3     1  UNL1        0.0005
     16 C           3.1620    0.9734   19.4182 C.3     1  UNL1        0.0162
     17 N           4.0007   -1.4758   19.1989 N.3     1  UNL1       -0.2962
     18 H           3.9276   -1.6327   18.1937 H       1  UNL1        0.1235
     19 C           4.0397   -2.8281   19.8466 C.3     1  UNL1        0.0768
     20 C           3.4662   -4.0174   19.1348 C.3     1  UNL1        0.0220
     21 C           5.8773   -3.3173   23.9250 C.ar    1  UNL1        0.1387
     22 C           4.6437   -2.4814   23.7536 C.ar    1  UNL1        0.0366
     23 C           4.0312   -2.3183   22.3941 C.ar    1  UNL1        0.0001
     24 C           4.6523   -2.9912   21.2061 C.ar    1  UNL1       -0.0078
     25 C           5.8858   -3.8271   21.3775 C.ar    1  UNL1        0.0001
     26 C           6.4984   -3.9902   22.7370 C.ar    1  UNL1        0.0366
     27 C           6.9563   -4.8314   25.7399 C.3     1  UNL1        0.2525
     28 O           6.4898   -3.4804   25.2845 O.3     1  UNL1       -0.4714
     29 C          -0.6850    2.9437   26.3562 C.2     1  UNL1        0.2286
     30 O          -1.5405    2.0811   27.2361 O.2     1  UNL1       -0.2746
     31 N           0.6496    3.4230   26.8451 N.am    1  UNL1       -0.2793
     32 C           1.2583    3.1228   28.1828 C.3     1  UNL1        0.0935
     33 C           2.5948    3.8009   28.2467 C.3     1  UNL1        0.0233
     34 C           2.8120    4.5202   26.9484 C.3     1  UNL1        0.0233
     35 C           1.6099    4.2867   26.0822 C.3     1  UNL1        0.0935
     36 C          -2.0767    4.1696   25.8283 C.ar    1  UNL1       -0.0145
     37 C          -3.4959    3.7405   26.0560 C.ar    1  UNL1       -0.0038
     38 C          -4.4085    4.5832   26.8969 C.ar    1  UNL1       -0.0003
     39 C          -3.9020    5.8550   27.5100 C.ar    1  UNL1       -0.0000
     40 C          -2.4829    6.2841   27.2822 C.ar    1  UNL1       -0.0003
     41 C          -1.5702    5.4415   26.4414 C.ar    1  UNL1       -0.0038
@<TRIPOS>BOND
     1    27    28    1
     2    28    21    1
     3    21    22   ar
     4    22    23   ar
     5    23    24   ar
     6    24    19    1
     7    19    20    1
     8    19    17    1
     9     9    17    1
    10     9    10    1
    11    10    11    1
    12    11    12    1
    13    12     1    1
    14     1     2    2
    15     1     3   am
    16     3     4    1
    17     4     5    1
    18     5     6    1
    19     6    29    1
    20    29    30    2
    21    29    31   am
    22    31    32    1
    23    32    33    1
    24    33    34    1
    25    34    35    1
    26     6    36    1
    27    36    37   ar
    28    37    38   ar
    29    38    39   ar
    30    39    40   ar
    31    40    41   ar
    32     6     7    1
    33     7     8    1
    34    12    13    1
    35    13    14    1
    36    13    15    1
    37    13    16    1
    38    24    25   ar
    39    25    26   ar
    40    26    21   ar
    41    16     9    1
    42     8     3    1
    43    35    31    1
    44    41    36   ar
    45    17    18    1
@<TRIPOS>MOLECULE
*****
 41 45 0 0 0
SMALL
GASTEIGER

@<TRIPOS>ATOM
      1 C           4.7058    2.1774   32.4206 C.2     1  UNL1        0.2251
      2 O           6.1362    2.3567   32.0059 O.2     1  UNL1       -0.2749
      3 N           4.2488    2.6591   33.7656 N.am    1  UNL1       -0.2795
      4 C           2.8185    2.4798   34.1802 C.3     1  UNL1        0.0942
      5 C           2.3614    2.9615   35.5253 C.3     1  UNL1        0.0343
      6 C           3.3348    3.6225   36.4557 C.3     1  UNL1        0.0911
      7 C           4.7652    3.8018   36.0410 C.3     1  UNL1        0.0343
      8 C           5.2222    3.3201   34.6960 C.3     1  UNL1        0.0942
      9 C           1.7856    0.1945   29.6294 C.3     1  UNL1        0.0542
     10 C           1.8867    1.6905   29.6700 C.3     1  UNL1        0.0162
     11 C           2.8601    2.3514   30.6004 C.3     1  UNL1        0.0104
     12 C           3.7324    1.5164   31.4902 C.3     1  UNL1        0.0768
     13 C           3.6314    0.0203   31.4496 C.3     1  UNL1        0.0095
     14 C           3.9009   -1.4199   31.7708 C.3     1  UNL1        0.0005
     15 C           4.6983    0.1811   32.4915 C.3     1  UNL1        0.0005
     16 C           2.6580   -0.6407   30.5192 C.3     1  UNL1        0.0162
     17 N           0.8123   -0.4665   28.6990 N.3     1  UNL1       -0.2962
     18 H           1.3028   -0.6160   27.8172 H       1  UNL1        0.1235
     19 C          -0.4835    0.2108   28.3642 C.3     1  UNL1        0.0768
     20 C          -1.6891   -0.0070   29.2297 C.3     1  UNL1        0.0220
     21 C          -0.7541    2.8963   24.7635 C.ar    1  UNL1        0.1387
     22 C          -1.6051    3.1690   25.9682 C.ar    1  UNL1        0.0366
     23 C          -1.5149    2.2739   27.1684 C.ar    1  UNL1        0.0001
     24 C          -0.5737    1.1060   27.1640 C.ar    1  UNL1       -0.0078
     25 C           0.2773    0.8332   25.9593 C.ar    1  UNL1        0.0001
     26 C           0.1871    1.7284   24.7591 C.ar    1  UNL1        0.0366
     27 C          -0.9621    3.1967   22.1913 C.3     1  UNL1        0.2525
     28 O          -0.8443    3.7914   23.5633 O.3     1  UNL1       -0.4714
     29 C           2.0927    3.6796   37.2946 C.2     1  UNL1        0.2286
     30 O           1.2083    4.8901   37.2436 O.2     1  UNL1       -0.2746
     31 N           1.7350    2.5264   38.1845 N.am    1  UNL1       -0.2793
     32 C           0.5314    2.4405   39.0756 C.3     1  UNL1        0.0935
     33 C           0.5705    1.1175   39.7814 C.3     1  UNL1        0.0233
     34 C           1.7983    0.3856   39.3264 C.3     1  UNL1        0.0233
     35 C           2.5180    1.2563   38.3395 C.3     1  UNL1        0.0935
     36 C           3.8768    4.3033   37.6774 C.ar    1  UNL1       -0.0145
     37 C           4.7107    3.5328   38.6577 C.ar    1  UNL1       -0.0038
     38 C           5.2527    4.2136   39.8795 C.ar    1  UNL1       -0.0003
     39 C           4.9609    5.6649   40.1210 C.ar    1  UNL1       -0.0000
     40 C           4.1270    6.4354   39.1407 C.ar    1  UNL1       -0.0003
     41 C           3.5849    5.7547   37.9189 C.ar    1  UNL1       -0.0038
@<TRIPOS>BOND
     1    27    28    1
     2    28    21    1
     3    21    22   ar
     4    22    23   ar
     5    23    24   ar
     6    24    19    1
     7    19    20    1
     8    19    17    1
     9     9    17    1
    10     9    10    1
    11    10    11    1
    12    11    12    1
    13    12     1    1
    14     1     2    2
    15     1     3   am
    16     3     4    1
    17     4     5    1
    18     5     6    1
    19     6    29    1
    20    29    30    2
    21    29    31   am
    22    31    32    1
    23    32    33    1
    24    33    34    1
    25    34    35    1
    26     6    36    1
    27    36    37   ar
    28    37    38   ar
    29    38    39   ar
    30    39    40   ar
    31    40    41   ar
    32     6     7    1
    33     7     8    1
    34    12    13    1
    35    13    14    1
    36    13    15    1
    37    13    16    1
    38    24    25   ar
    39    25    26   ar
    40    26    21   ar
    41    16     9    1
    42     8     3    1
    43    35    31    1
    44    41    36   ar
    45    17    18    1
@<TRIPOS>MOLECULE
*****
 41 45 0 0 0
SMALL
GASTEIGER

@<TRIPOS>ATOM
      1 C           3.8737   -2.7111   20.2399 C.2     1  UNL1        0.2251
      2 O           3.4619   -3.6290   19.1273 O.2     1  UNL1       -0.2749
      3 N           3.2133   -1.3729   20.3915 N.am    1  UNL1       -0.2795
      4 C           3.6252   -0.4551   21.5041 C.3     1  UNL1        0.0942
      5 C           2.9648    0.8832   21.6557 C.3     1  UNL1        0.0343
      6 C           1.8926    1.3036   20.6947 C.3     1  UNL1        0.0911
      7 C           1.4807    0.3857   19.5820 C.3     1  UNL1        0.0343
      8 C           2.1411   -0.9525   19.4304 C.3     1  UNL1        0.0942
      9 C           7.0903   -3.9723   23.1231 C.3     1  UNL1        0.0542
     10 C           5.6519   -3.9942   23.5477 C.3     1  UNL1        0.0162
     11 C           4.5797   -3.5738   22.5867 C.3     1  UNL1        0.0104
     12 C           4.9459   -3.1315   21.2010 C.3     1  UNL1        0.0768
     13 C           6.3844   -3.1096   20.7763 C.3     1  UNL1        0.0095
     14 C           7.5968   -2.9186   19.9139 C.3     1  UNL1        0.0005
     15 C           5.7333   -2.6229   19.5158 C.3     1  UNL1        0.0005
     16 C           7.4566   -3.5300   21.7373 C.3     1  UNL1        0.0162
     17 N           8.1625   -4.3927   24.0842 N.3     1  UNL1       -0.2962
     18 H           9.0404   -4.3917   23.5648 H       1  UNL1        0.1235
     19 C           8.0707   -5.7201   24.7766 C.3     1  UNL1        0.0768
     20 C           8.2844   -6.9865   24.0018 C.3     1  UNL1        0.0220
     21 C           7.1537   -5.9030   29.1784 C.ar    1  UNL1        0.1387
     22 C           8.1104   -6.8851   28.5702 C.ar    1  UNL1        0.0366
     23 C           8.4161   -6.8242   27.1029 C.ar    1  UNL1        0.0001
     24 C           7.7650   -5.7811   26.2439 C.ar    1  UNL1       -0.0078
     25 C           6.8083   -4.7989   26.8521 C.ar    1  UNL1        0.0001
     26 C           6.5026   -4.8599   28.3194 C.ar    1  UNL1        0.0366
     27 C           6.9206   -4.7190   31.4792 C.3     1  UNL1        0.2525
     28 O           6.8481   -5.9639   30.6457 O.3     1  UNL1       -0.4714
     29 C           1.9374    2.5134   21.5804 C.2     1  UNL1        0.2286
     30 O           2.5412    3.7904   21.0757 O.2     1  UNL1       -0.2746
     31 N           1.3786    2.4461   22.9707 N.am    1  UNL1       -0.2793
     32 C           1.3530    3.5681   23.9659 C.3     1  UNL1        0.0935
     33 C           0.7058    3.0606   25.2203 C.3     1  UNL1        0.0233
     34 C           0.3313    1.6248   25.0003 C.3     1  UNL1        0.0233
     35 C           0.7471    1.2450   23.6100 C.3     1  UNL1        0.0935
     36 C           0.8360    2.1441   20.0412 C.ar    1  UNL1       -0.0145
     37 C           1.0967    2.7702   18.7033 C.ar    1  UNL1       -0.0038
     38 C           0.0400    3.6107   18.0498 C.ar    1  UNL1       -0.0003
     39 C          -1.2773    3.8253   18.7342 C.ar    1  UNL1       -0.0000
     40 C          -1.5380    3.1993   20.0722 C.ar    1  UNL1       -0.0003
     41 C          -0.4815    2.3587   20.7257 C.ar    1  UNL1       -0.0038
@<TRIPOS>BOND
     1    27    28    1
     2    28    21    1
     3    21    22   ar
     4    22    23   ar
     5    23    24   ar
     6    24    19    1
     7    19    20    1
     8    19    17    1
     9     9    17    1
    10     9    10    1
    11    10    11    1
    12    11    12    1
    13    12     1    1
    14     1     2    2
    15     1     3   am
    16     3     4    1
    17     4     5    1
    18     5     6    1
    19     6    29    1
    20    29    30    2
    21    29    31   am
    22    31    32    1
    23    32    33    1
    24    33    34    1
    25    34    35    1
    26     6    36    1
    27    36    37   ar
    28    37    38   ar
    29    38    39   ar
    30    39    40   ar
    31    40    41   ar
    32     6     7    1
    33     7     8    1
    34    12    13    1
    35    13    14    1
    36    13    15    1
    37    13    16    1
    38    24    25   ar
    39    25    26   ar
    40    26    21   ar
    41    16     9    1
    42     8     3    1
    43    35    31    1
    44    41    36   ar
    45    17    18    1
@<TRIPOS>MOLECULE
*****
 41 45 0 0 0
SMALL
GASTEIGER

@<TRIPOS>ATOM
      1 C           3.5194   -2.6453   20.0015 C.2     1  UNL1        0.2251
      2 O           3.3063   -3.9137   19.2294 O.2     1  UNL1       -0.2749
      3 N           4.3998   -2.6455   21.2159 N.am    1  UNL1       -0.2795
      4 C           4.6128   -1.3772   21.9879 C.3     1  UNL1        0.0942
      5 C           5.4933   -1.3773   23.2023 C.3     1  UNL1        0.0343
      6 C           6.1607   -2.6457   23.6448 C.3     1  UNL1        0.0911
      7 C           5.9476   -3.9140   22.8727 C.3     1  UNL1        0.0343
      8 C           5.0671   -3.9139   21.6583 C.3     1  UNL1        0.0942
      9 C           1.5173    1.1599   18.6742 C.3     1  UNL1        0.0542
     10 C           0.9291    0.3542   19.7944 C.3     1  UNL1        0.0162
     11 C           1.5964   -0.9142   20.2368 C.3     1  UNL1        0.0104
     12 C           2.8520   -1.3769   19.5591 C.3     1  UNL1        0.0768
     13 C           3.4403   -0.5712   18.4388 C.3     1  UNL1        0.0095
     14 C           4.3727   -0.1559   17.3397 C.3     1  UNL1        0.0005
     15 C           4.4314   -1.6954   18.4995 C.3     1  UNL1        0.0005
     16 C           2.7729    0.6972   17.9964 C.3     1  UNL1        0.0162
     17 N           0.8499    2.4283   18.2318 N.3     1  UNL1       -0.2962
     18 H           1.5441    2.9577   17.7042 H       1  UNL1        0.1235
     19 C           0.2720    3.3663   19.2497 C.3     1  UNL1        0.0768
     20 C           1.1815    4.1941   20.1084 C.3     1  UNL1        0.0220
     21 C          -4.1904    3.6963   19.7276 C.ar    1  UNL1        0.1387
     22 C          -3.3476    3.2111   20.8696 C.ar    1  UNL1        0.0366
     23 C          -1.8602    3.1011   20.7103 C.ar    1  UNL1        0.0001
     24 C          -1.2155    3.4763   19.4090 C.ar    1  UNL1       -0.0078
     25 C          -2.0582    3.9615   18.2669 C.ar    1  UNL1        0.0001
     26 C          -3.5457    4.0715   18.4262 C.ar    1  UNL1        0.0366
     27 C          -6.5886    3.2236   18.8473 C.3     1  UNL1        0.2525
     28 O          -5.6778    3.8064   19.8869 O.3     1  UNL1       -0.4714
     29 C           6.6665   -1.7043   24.6974 C.2     1  UNL1        0.2286
     30 O           8.1022   -1.2697   24.6875 O.2     1  UNL1       -0.2746
     31 N           5.7368   -1.1976   25.7597 N.am    1  UNL1       -0.2793
     32 C           6.0971   -0.2570   26.8713 C.3     1  UNL1        0.0935
     33 C           4.8665   -0.0205   27.6957 C.3     1  UNL1        0.0233
     34 C           3.7455   -0.8149   27.0936 C.3     1  UNL1        0.0233
     35 C           4.2834   -1.5424   25.8972 C.3     1  UNL1        0.0935
     36 C           7.0037   -3.5872   24.4527 C.ar    1  UNL1       -0.0145
     37 C           6.5360   -4.0415   25.8036 C.ar    1  UNL1       -0.0038
     38 C           7.3791   -4.9831   26.6116 C.ar    1  UNL1       -0.0003
     39 C           8.6897   -5.4702   26.0687 C.ar    1  UNL1       -0.0000
     40 C           9.1574   -5.0158   24.7179 C.ar    1  UNL1       -0.0003
     41 C           8.3144   -4.0743   23.9098 C.ar    1  UNL1       -0.0038
@<TRIPOS>BOND
     1    27    28    1
     2    28    21    1
     3    21    22   ar
     4    22    23   ar
     5    23    24   ar
     6    24    19    1
     7    19    20    1
     8    19    17    1
     9     9    17    1
    10     9    10    1
    11    10    11    1
    12    11    12    1
    13    12     1    1
    14     1     2    2
    15     1     3   am
    16     3     4    1
    17     4     5    1
    18     5     6    1
    19     6    29    1
    20    29    30    2
    21    29    31   am
    22    31    32    1
    23    32    33    1
    24    33    34    1
    25    34    35    1
    26     6    36    1
    27    36    37   ar
    28    37    38   ar
    29    38    39   ar
    30    39    40   ar
    31    40    41   ar
    32     6     7    1
    33     7     8    1
    34    12    13    1
    35    13    14    1
    36    13    15    1
    37    13    16    1
    38    24    25   ar
    39    25    26   ar
    40    26    21   ar
    41    16     9    1
    42     8     3    1
    43    35    31    1
    44    41    36   ar
    45    17    18    1
@<TRIPOS>MOLECULE
*****
 41 45 0 0 0
SMALL
GASTEIGER

@<TRIPOS>ATOM
      1 C           0.2525    3.0145   26.8233 C.2     1  UNL1        0.2251
      2 O          -0.3018    4.3195   27.3130 O.2     1  UNL1       -0.2749
      3 N           0.2949    2.7222   25.3526 N.am    1  UNL1       -0.2795
      4 C           0.8492    1.4173   24.8630 C.3     1  UNL1        0.0942
      5 C           0.8916    1.1250   23.3923 C.3     1  UNL1        0.0343
      6 C           0.3796    2.1377   22.4113 C.3     1  UNL1        0.0911
      7 C          -0.1747    3.4427   22.9010 C.3     1  UNL1        0.0343
      8 C          -0.2171    3.7349   24.3717 C.3     1  UNL1        0.0942
      9 C           1.7885   -0.0236   29.7662 C.3     1  UNL1        0.0542
     10 C           2.7301    0.9712   29.1549 C.3     1  UNL1        0.0162
     11 C           2.2181    1.9839   28.1739 C.3     1  UNL1        0.0104
     12 C           0.7645    2.0018   27.8042 C.3     1  UNL1        0.0768
     13 C          -0.1772    1.0070   28.4156 C.3     1  UNL1        0.0095
     14 C          -1.4502    0.2757   28.7233 C.3     1  UNL1        0.0005
     15 C          -1.1312    1.7657   27.5415 C.3     1  UNL1        0.0005
     16 C           0.3348   -0.0057   29.3966 C.3     1  UNL1        0.0162
     17 N           2.3005   -1.0363   30.7472 N.3     1  UNL1       -0.2962
     18 H           1.6424   -1.0504   31.5263 H       1  UNL1        0.1235
     19 C           3.6697   -0.8810   31.3397 C.3     1  UNL1        0.0768
     20 C           4.8791   -1.2832   30.5488 C.3     1  UNL1        0.0220
     21 C           4.1491    0.7915   35.4897 C.ar    1  UNL1        0.1387
     22 C           3.3908    1.5652   34.4523 C.ar    1  UNL1        0.0366
     23 C           3.2310    1.0077   33.0689 C.ar    1  UNL1        0.0001
     24 C           3.8295   -0.3235   32.7230 C.ar    1  UNL1       -0.0078
     25 C           4.5877   -1.0972   33.7605 C.ar    1  UNL1        0.0001
     26 C           4.7475   -0.5397   35.1438 C.ar    1  UNL1        0.0366
     27 C           3.1874    1.2334   37.8625 C.3     1  UNL1        0.2525
     28 O           4.3089    1.3490   36.8731 O.3     1  UNL1       -0.4714
     29 C           0.8078    1.0537   21.4671 C.2     1  UNL1        0.2286
     30 O          -0.2230    0.2440   20.7377 O.2     1  UNL1       -0.2746
     31 N           2.2668    0.7793   21.2523 N.am    1  UNL1       -0.2793
     32 C           2.8429   -0.2665   20.3443 C.3     1  UNL1        0.0935
     33 C           4.3380   -0.1897   20.4386 C.3     1  UNL1        0.0233
     34 C           4.6858    0.9036   21.4049 C.3     1  UNL1        0.0233
     35 C           3.4058    1.5025   21.9078 C.3     1  UNL1        0.0935
     36 C           0.0164    2.7739   21.1025 C.ar    1  UNL1       -0.0145
     37 C          -1.4256    2.9518   20.7297 C.ar    1  UNL1       -0.0038
     38 C          -1.7889    3.5881   19.4207 C.ar    1  UNL1       -0.0003
     39 C          -0.7103    4.0464   18.4847 C.ar    1  UNL1       -0.0000
     40 C           0.7317    3.8685   18.8575 C.ar    1  UNL1       -0.0003
     41 C           1.0951    3.2322   20.1663 C.ar    1  UNL1       -0.0038
@<TRIPOS>BOND
     1    27    28    1
     2    28    21    1
     3    21    22   ar
     4    22    23   ar
     5    23    24   ar
     6    24    19    1
     7    19    20    1
     8    19    17    1
     9     9    17    1
    10     9    10    1
    11    10    11    1
    12    11    12    1
    13    12     1    1
    14     1     2    2
    15     1     3   am
    16     3     4    1
    17     4     5    1
    18     5     6    1
    19     6    29    1
    20    29    30    2
    21    29    31   am
    22    31    32    1
    23    32    33    1
    24    33    34    1
    25    34    35    1
    26     6    36    1
    27    36    37   ar
    28    37    38   ar
    29    38    39   ar
    30    39    40   ar
    31    40    41   ar
    32     6     7    1
    33     7     8    1
    34    12    13    1
    35    13    14    1
    36    13    15    1
    37    13    16    1
    38    24    25   ar
    39    25    26   ar
    40    26    21   ar
    41    16     9    1
    42     8     3    1
    43    35    31    1
    44    41    36   ar
    45    17    18    1
