@<TRIPOS>MOLECULE
*****
 36 39 0 0 0
SMALL
GASTEIGER

@<TRIPOS>ATOM
      1 C           6.2367   -2.1360   32.0495 C.ar    1  UNL1        0.2039
      2 N           6.7198   -3.5221   32.3582 N.ar    1  UNL1       -0.2135
      3 C           6.8708   -4.2601   31.0610 C.ar    1  UNL1        0.0996
      4 C           7.3129   -5.6587   30.7475 C.ar    1  UNL1        0.0206
      5 C           7.3652   -6.1273   29.3236 C.ar    1  UNL1        0.0013
      6 C           6.9754   -5.1973   28.2131 C.ar    1  UNL1       -0.0027
      7 C           6.5333   -3.7986   28.5266 C.ar    1  UNL1       -0.0045
      8 C           6.1435   -2.8686   27.4162 C.3     1  UNL1        0.0326
      9 C           6.4810   -3.3300   29.9506 C.ar    1  UNL1        0.0758
     10 N           6.0891   -2.0173   30.5615 N.ar    1  UNL1       -0.2999
     11 C           5.6302   -0.7997   29.8153 C.3     1  UNL1        0.1078
     12 C           6.7119    0.0126   29.1670 C.3     1  UNL1        0.0245
     13 C           6.5809    1.2697   28.3594 C.3     1  UNL1        0.0037
     14 C           5.3358    2.0254   28.0006 C.3     1  UNL1        0.0216
     15 C           3.9142    1.7103   28.3609 C.3     1  UNL1        0.0938
     16 N           3.3865    0.5619   29.1688 N.am    1  UNL1       -0.2742
     17 C           1.8984    0.5257   29.3540 C.2     1  UNL1        0.2489
     18 O           1.2679   -0.5812   30.1460 O.2     1  UNL1       -0.2699
     19 C           4.1503   -0.5551   29.8161 C.3     1  UNL1        0.1162
     20 C           1.0410    1.5964   28.7472 C.2     1  UNL1        0.0548
     21 C          -0.0653    1.2266   27.8040 C.2     1  UNL1       -0.0041
     22 C          -0.9228    2.2972   27.1971 C.3     1  UNL1        0.0991
     23 N          -1.0077    2.4348   25.7059 N.3     1  UNL1       -0.2665
     24 C           0.0094    1.7634   24.8315 C.3     1  UNL1        0.0899
     25 C          -2.1100    3.2438   25.0890 C.3     1  UNL1        0.0899
     26 C           4.7652   -1.1758   33.9633 C.2     1  UNL1        0.2517
     27 O           3.8646   -2.3718   33.8709 O.2     1  UNL1       -0.2697
     28 N           5.9512   -1.0579   33.0526 N.am    1  UNL1       -0.2518
     29 H           6.5423   -0.2730   33.1132 H       1  UNL1        0.1580
     30 C           2.5754    3.3779   35.1752 C.3     1  UNL1        0.0521
     31 C           3.3849    2.1792   35.5723 C.ar    1  UNL1        0.0595
     32 C           3.6703    1.1011   34.5692 C.ar    1  UNL1        0.0193
     33 C           4.4798   -0.0977   34.9664 C.ar    1  UNL1        0.0565
     34 C           5.0038   -0.2184   36.3667 C.ar    1  UNL1        0.0252
     35 C           4.7183    0.8597   37.3698 C.ar    1  UNL1        0.0986
     36 N           3.9089    2.0584   36.9727 N.ar    1  UNL1       -0.2481
@<TRIPOS>BOND
     1    30    31    1
     2    31    32   ar
     3    32    33   ar
     4    33    26    1
     5    26    27    2
     6    26    28   am
     7    28     1    1
     8     1     2   ar
     9     2     3   ar
    10     3     4   ar
    11     4     5   ar
    12     5     6   ar
    13     6     7   ar
    14     7     8    1
    15     7     9   ar
    16     9    10   ar
    17    11    10    1
    18    11    12    1
    19    12    13    1
    20    13    14    1
    21    14    15    1
    22    15    16    1
    23    16    17   am
    24    17    18    2
    25    17    20    1
    26    20    21    2
    27    21    22    1
    28    22    23    1
    29    23    24    1
    30    23    25    1
    31    16    19    1
    32    33    34   ar
    33    34    35   ar
    34    35    36   ar
    35    36    31   ar
    36    10     1   ar
    37    19    11    1
    38     9     3   ar
    39    28    29    1
@<TRIPOS>MOLECULE
*****
 36 39 0 0 0
SMALL
GASTEIGER

@<TRIPOS>ATOM
      1 C           4.9841    0.1228   34.6799 C.ar    1  UNL1        0.2039
      2 N           4.9610   -0.2078   36.1428 N.ar    1  UNL1       -0.2135
      3 C           4.0686    0.7841   36.8283 C.ar    1  UNL1        0.0996
      4 C           3.6690    0.9500   38.2645 C.ar    1  UNL1        0.0206
      5 C           2.7410    2.0595   38.6613 C.ar    1  UNL1        0.0013
      6 C           2.2125    3.0032   37.6220 C.ar    1  UNL1       -0.0027
      7 C           2.6122    2.8374   36.1858 C.ar    1  UNL1       -0.0045
      8 C           2.0838    3.7811   35.1465 C.3     1  UNL1        0.0326
      9 C           3.5402    1.7278   35.7889 C.ar    1  UNL1        0.0758
     10 N           4.1060    1.3191   34.4612 N.ar    1  UNL1       -0.2999
     11 C           3.8403    1.9891   33.1457 C.3     1  UNL1        0.1078
     12 C           4.3541    3.3923   33.0144 C.3     1  UNL1        0.0245
     13 C           4.2505    4.3202   31.8406 C.3     1  UNL1        0.0037
     14 C           3.6075    4.0743   30.5079 C.3     1  UNL1        0.0216
     15 C           2.9092    2.8396   30.0200 C.3     1  UNL1        0.0938
     16 N           2.6816    1.5459   30.7443 N.am    1  UNL1       -0.2742
     17 C           1.9417    0.4912   29.9760 C.2     1  UNL1        0.2489
     18 O           1.6616   -0.8398   30.6085 O.2     1  UNL1       -0.2699
     19 C           3.0960    1.1675   32.1354 C.3     1  UNL1        0.1162
     20 C           1.4821    0.7676   28.5752 C.2     1  UNL1        0.0548
     21 C           0.0256    0.9904   28.2940 C.2     1  UNL1       -0.0041
     22 C          -0.4342    1.2667   26.8932 C.3     1  UNL1        0.0991
     23 N          -0.7753    2.6672   26.4783 N.3     1  UNL1       -0.2665
     24 C          -1.3774    2.9241   25.1287 C.3     1  UNL1        0.0899
     25 C          -0.5144    3.8109   27.4131 C.3     1  UNL1        0.0899
     26 C           5.1581   -1.8313   32.9767 C.2     1  UNL1        0.2517
     27 O           3.7990   -2.3128   33.3902 O.2     1  UNL1       -0.2697
     28 N           5.7506   -0.6136   33.6215 N.am    1  UNL1       -0.2518
     29 H           6.6427   -0.2976   33.3501 H       1  UNL1        0.1580
     30 C           7.7502   -6.0555   31.4154 C.3     1  UNL1        0.0521
     31 C           7.2207   -4.6798   31.1377 C.ar    1  UNL1        0.0595
     32 C           6.4542   -3.9435   32.1961 C.ar    1  UNL1        0.0193
     33 C           5.9247   -2.5677   31.9184 C.ar    1  UNL1        0.0565
     34 C           6.1618   -1.9284   30.5823 C.ar    1  UNL1        0.0252
     35 C           6.9283   -2.6648   29.5239 C.ar    1  UNL1        0.0986
     36 N           7.4578   -4.0405   29.8016 N.ar    1  UNL1       -0.2481
@<TRIPOS>BOND
     1    30    31    1
     2    31    32   ar
     3    32    33   ar
     4    33    26    1
     5    26    27    2
     6    26    28   am
     7    28     1    1
     8     1     2   ar
     9     2     3   ar
    10     3     4   ar
    11     4     5   ar
    12     5     6   ar
    13     6     7   ar
    14     7     8    1
    15     7     9   ar
    16     9    10   ar
    17    11    10    1
    18    11    12    1
    19    12    13    1
    20    13    14    1
    21    14    15    1
    22    15    16    1
    23    16    17   am
    24    17    18    2
    25    17    20    1
    26    20    21    2
    27    21    22    1
    28    22    23    1
    29    23    24    1
    30    23    25    1
    31    16    19    1
    32    33    34   ar
    33    34    35   ar
    34    35    36   ar
    35    36    31   ar
    36    10     1   ar
    37    19    11    1
    38     9     3   ar
    39    28    29    1
@<TRIPOS>MOLECULE
*****
 36 39 0 0 0
SMALL
GASTEIGER

@<TRIPOS>ATOM
      1 C          -2.4718    3.9433   22.8872 C.ar    1  UNL1        0.2039
      2 N          -3.0152    3.7199   24.2673 N.ar    1  UNL1       -0.2135
      3 C          -1.8879    3.2523   25.1394 C.ar    1  UNL1        0.0996
      4 C          -1.8304    2.8778   26.5907 C.ar    1  UNL1        0.0206
      5 C          -0.5327    2.4377   27.2008 C.ar    1  UNL1        0.0013
      6 C           0.7075    2.3721   26.3597 C.ar    1  UNL1       -0.0027
      7 C           0.6500    2.7467   24.9083 C.ar    1  UNL1       -0.0045
      8 C           1.8902    2.6811   24.0672 C.3     1  UNL1        0.0326
      9 C          -0.6477    3.1867   24.2982 C.ar    1  UNL1        0.0758
     10 N          -1.0085    3.6138   22.9063 N.ar    1  UNL1       -0.2999
     11 C          -0.0708    3.6968   21.7385 C.3     1  UNL1        0.1078
     12 C           0.4510    5.0664   21.4188 C.3     1  UNL1        0.0245
     13 C           1.3935    5.4766   20.3265 C.3     1  UNL1        0.0037
     14 C           2.0473    4.6187   19.2841 C.3     1  UNL1        0.0216
     15 C           1.9198    3.1386   19.0765 C.3     1  UNL1        0.0938
     16 N           1.1072    2.1509   19.8601 N.am    1  UNL1       -0.2742
     17 C           1.1916    0.7264   19.3979 C.2     1  UNL1        0.2489
     18 O           0.4174   -0.3412   20.1128 O.2     1  UNL1       -0.2699
     19 C           0.2213    2.3994   21.0448 C.3     1  UNL1        0.1162
     20 C           2.0501    0.3695   18.2209 C.2     1  UNL1        0.0548
     21 C           3.3329   -0.3799   18.4280 C.2     1  UNL1       -0.0041
     22 C           4.1915   -0.7368   17.2510 C.3     1  UNL1        0.0991
     23 N           5.6768   -0.8638   17.4171 N.3     1  UNL1       -0.2665
     24 C           6.5768    0.2631   17.0046 C.3     1  UNL1        0.0899
     25 C           6.2622   -2.1178   17.9957 C.3     1  UNL1        0.0899
     26 C          -4.3697    3.5717   21.1524 C.2     1  UNL1        0.2517
     27 O          -4.7030    2.2593   21.7980 O.2     1  UNL1       -0.2697
     28 N          -3.2542    4.4136   21.6970 N.am    1  UNL1       -0.2518
     29 H          -3.0355    5.2749   21.2732 H       1  UNL1        0.1580
     30 C          -4.6090    4.7089   16.0878 C.3     1  UNL1        0.0521
     31 C          -5.2717    4.6106   17.4299 C.ar    1  UNL1        0.0595
     32 C          -4.4893    4.1403   18.6201 C.ar    1  UNL1        0.0193
     33 C          -5.1521    4.0420   19.9622 C.ar    1  UNL1        0.0565
     34 C          -6.5973    4.4141   20.1139 C.ar    1  UNL1        0.0252
     35 C          -7.3797    4.8844   18.9237 C.ar    1  UNL1        0.0986
     36 N          -6.7170    4.9827   17.5817 N.ar    1  UNL1       -0.2481
@<TRIPOS>BOND
     1    30    31    1
     2    31    32   ar
     3    32    33   ar
     4    33    26    1
     5    26    27    2
     6    26    28   am
     7    28     1    1
     8     1     2   ar
     9     2     3   ar
    10     3     4   ar
    11     4     5   ar
    12     5     6   ar
    13     6     7   ar
    14     7     8    1
    15     7     9   ar
    16     9    10   ar
    17    11    10    1
    18    11    12    1
    19    12    13    1
    20    13    14    1
    21    14    15    1
    22    15    16    1
    23    16    17   am
    24    17    18    2
    25    17    20    1
    26    20    21    2
    27    21    22    1
    28    22    23    1
    29    23    24    1
    30    23    25    1
    31    16    19    1
    32    33    34   ar
    33    34    35   ar
    34    35    36   ar
    35    36    31   ar
    36    10     1   ar
    37    19    11    1
    38     9     3   ar
    39    28    29    1
@<TRIPOS>MOLECULE
*****
 36 39 0 0 0
SMALL
GASTEIGER

@<TRIPOS>ATOM
      1 C           2.3278    1.9704   34.0396 C.ar    1  UNL1        0.2039
      2 N           2.0297    2.9344   35.1495 N.ar    1  UNL1       -0.2135
      3 C           3.1084    2.7993   36.1830 C.ar    1  UNL1        0.0996
      4 C           3.3368    3.4949   37.4922 C.ar    1  UNL1        0.0206
      5 C           4.5300    3.1429   38.3302 C.ar    1  UNL1        0.0013
      6 C           5.4948    2.0954   37.8591 C.ar    1  UNL1       -0.0027
      7 C           5.2664    1.3999   36.5499 C.ar    1  UNL1       -0.0045
      8 C           6.2312    0.3524   36.0787 C.3     1  UNL1        0.0326
      9 C           4.0732    1.7519   35.7118 C.ar    1  UNL1        0.0758
     10 N           3.5907    1.2395   34.3872 N.ar    1  UNL1       -0.2999
     11 C           4.2547    0.1820   33.5560 C.3     1  UNL1        0.1078
     12 C           4.0921   -1.2270   34.0442 C.3     1  UNL1        0.0245
     13 C           4.6280   -2.4926   33.4436 C.3     1  UNL1        0.0037
     14 C           5.4591   -2.6620   32.2064 C.3     1  UNL1        0.0216
     15 C           5.9593   -1.6074   31.2642 C.3     1  UNL1        0.0938
     16 N           5.7521   -0.1231   31.3265 N.am    1  UNL1       -0.2742
     17 C           6.3875    0.6697   30.2230 C.2     1  UNL1        0.2489
     18 O           6.2410    2.1622   30.1915 O.2     1  UNL1       -0.2699
     19 C           4.9935    0.6732   32.3465 C.3     1  UNL1        0.1162
     20 C           7.1694   -0.0300   29.1512 C.2     1  UNL1        0.0548
     21 C           6.4867   -0.4670   27.8889 C.2     1  UNL1       -0.0041
     22 C           7.2685   -1.1667   26.8170 C.3     1  UNL1        0.0991
     23 N           7.1783   -2.6572   26.6746 N.3     1  UNL1       -0.2665
     24 C           6.5617   -3.4792   27.7673 C.3     1  UNL1        0.0899
     25 C           7.7049   -3.3257   25.4393 C.3     1  UNL1        0.0899
     26 C           1.8250    2.5499   31.5574 C.2     1  UNL1        0.2517
     27 O           2.9638    3.5262   31.5546 O.2     1  UNL1       -0.2697
     28 N           1.5070    1.7720   32.7998 N.am    1  UNL1       -0.2518
     29 H           0.7596    1.1312   32.8016 H       1  UNL1        0.1580
     30 C          -1.3136   -0.4136   28.6648 C.3     1  UNL1        0.0521
     31 C          -0.5651    0.8697   28.8713 C.ar    1  UNL1        0.0595
     32 C           0.2557    1.0681   30.1111 C.ar    1  UNL1        0.0193
     33 C           1.0042    2.3515   30.3176 C.ar    1  UNL1        0.0565
     34 C           0.9320    3.4365   29.2844 C.ar    1  UNL1        0.0252
     35 C           0.1112    3.2381   28.0447 C.ar    1  UNL1        0.0986
     36 N          -0.6373    1.9548   27.8381 N.ar    1  UNL1       -0.2481
@<TRIPOS>BOND
     1    30    31    1
     2    31    32   ar
     3    32    33   ar
     4    33    26    1
     5    26    27    2
     6    26    28   am
     7    28     1    1
     8     1     2   ar
     9     2     3   ar
    10     3     4   ar
    11     4     5   ar
    12     5     6   ar
    13     6     7   ar
    14     7     8    1
    15     7     9   ar
    16     9    10   ar
    17    11    10    1
    18    11    12    1
    19    12    13    1
    20    13    14    1
    21    14    15    1
    22    15    16    1
    23    16    17   am
    24    17    18    2
    25    17    20    1
    26    20    21    2
    27    21    22    1
    28    22    23    1
    29    23    24    1
    30    23    25    1
    31    16    19    1
    32    33    34   ar
    33    34    35   ar
    34    35    36   ar
    35    36    31   ar
    36    10     1   ar
    37    19    11    1
    38     9     3   ar
    39    28    29    1
@<TRIPOS>MOLECULE
*****
 36 39 0 0 0
SMALL
GASTEIGER

@<TRIPOS>ATOM
      1 C           7.5303   -4.1079   22.8964 C.ar    1  UNL1        0.2039
      2 N           7.9480   -5.5457   22.8061 N.ar    1  UNL1       -0.2135
      3 C           7.8168   -6.1532   24.1713 C.ar    1  UNL1        0.0996
      4 C           8.0871   -7.5365   24.6845 C.ar    1  UNL1        0.0206
      5 C           7.8586   -7.8574   26.1318 C.ar    1  UNL1        0.0013
      6 C           7.3598   -6.7950   27.0659 C.ar    1  UNL1       -0.0027
      7 C           7.0895   -5.4117   26.5527 C.ar    1  UNL1       -0.0045
      8 C           6.5907   -4.3493   27.4867 C.3     1  UNL1        0.0326
      9 C           7.3180   -5.0908   25.1054 C.ar    1  UNL1        0.0758
     10 N           7.1409   -3.8268   24.3174 N.ar    1  UNL1       -0.2999
     11 C           6.6590   -2.5123   24.8560 C.3     1  UNL1        0.1078
     12 C           7.4917   -1.9127   25.9503 C.3     1  UNL1        0.0245
     13 C           7.2792   -0.6241   26.6879 C.3     1  UNL1        0.0037
     14 C           6.1816    0.3834   26.5135 C.3     1  UNL1        0.0216
     15 C           5.0254    0.3509   25.5584 C.3     1  UNL1        0.0938
     16 N           4.6812   -0.6970   24.5418 N.am    1  UNL1       -0.2742
     17 C           3.4468   -0.4362   23.7305 C.2     1  UNL1        0.2489
     18 O           3.0137   -1.4218   22.6860 O.2     1  UNL1       -0.2699
     19 C           5.4083   -1.9712   24.2293 C.3     1  UNL1        0.1162
     20 C           2.6457    0.8103   23.9637 C.2     1  UNL1        0.0548
     21 C           1.1574    0.7250   24.1305 C.2     1  UNL1       -0.0041
     22 C           0.3561    1.9714   24.3637 C.3     1  UNL1        0.0991
     23 N          -0.5301    2.0788   25.5690 N.3     1  UNL1       -0.2665
     24 C          -0.2567    1.2351   26.7787 C.3     1  UNL1        0.0899
     25 C          -1.6900    3.0300   25.5647 C.3     1  UNL1        0.0899
     26 C           6.3586   -3.1201   20.7984 C.2     1  UNL1        0.2517
     27 O           5.2352   -4.1002   20.9643 O.2     1  UNL1       -0.2697
     28 N           7.5061   -3.1240   21.7644 N.am    1  UNL1       -0.2518
     29 H           8.2434   -2.4808   21.6555 H       1  UNL1        0.1580
     30 C           3.8362   -0.8460   16.8658 C.3     1  UNL1        0.0521
     31 C           5.0732   -0.9991   17.7001 C.ar    1  UNL1        0.0595
     32 C           5.0973   -1.9831   18.8321 C.ar    1  UNL1        0.0193
     33 C           6.3345   -2.1362   19.6665 C.ar    1  UNL1        0.0565
     34 C           7.5474   -1.3054   19.3689 C.ar    1  UNL1        0.0252
     35 C           7.5233   -0.3215   18.2369 C.ar    1  UNL1        0.0986
     36 N           6.2862   -0.1683   17.4025 N.ar    1  UNL1       -0.2481
@<TRIPOS>BOND
     1    30    31    1
     2    31    32   ar
     3    32    33   ar
     4    33    26    1
     5    26    27    2
     6    26    28   am
     7    28     1    1
     8     1     2   ar
     9     2     3   ar
    10     3     4   ar
    11     4     5   ar
    12     5     6   ar
    13     6     7   ar
    14     7     8    1
    15     7     9   ar
    16     9    10   ar
    17    11    10    1
    18    11    12    1
    19    12    13    1
    20    13    14    1
    21    14    15    1
    22    15    16    1
    23    16    17   am
    24    17    18    2
    25    17    20    1
    26    20    21    2
    27    21    22    1
    28    22    23    1
    29    23    24    1
    30    23    25    1
    31    16    19    1
    32    33    34   ar
    33    34    35   ar
    34    35    36   ar
    35    36    31   ar
    36    10     1   ar
    37    19    11    1
    38     9     3   ar
    39    28    29    1
@<TRIPOS>MOLECULE
*****
 36 39 0 0 0
SMALL
GASTEIGER

@<TRIPOS>ATOM
      1 C           2.9961    2.1708   33.6509 C.ar    1  UNL1        0.2039
      2 N           2.0759    2.5844   34.7610 N.ar    1  UNL1       -0.2135
      3 C           2.7863    2.3544   36.0620 C.ar    1  UNL1        0.0996
      4 C           2.3711    2.5792   37.4857 C.ar    1  UNL1        0.0206
      5 C           3.3151    2.2482   38.6034 C.ar    1  UNL1        0.0013
      6 C           4.6743    1.6925   38.2973 C.ar    1  UNL1       -0.0027
      7 C           5.0896    1.4677   36.8736 C.ar    1  UNL1       -0.0045
      8 C           6.4488    0.9120   36.5676 C.3     1  UNL1        0.0326
      9 C           4.1455    1.7986   35.7559 C.ar    1  UNL1        0.0758
     10 N           4.2752    1.6852   34.2658 N.ar    1  UNL1       -0.2999
     11 C           5.4735    1.1756   33.5214 C.3     1  UNL1        0.1078
     12 C           6.4786    2.2134   33.1174 C.3     1  UNL1        0.0245
     13 C           7.7666    2.0275   32.3716 C.3     1  UNL1        0.0037
     14 C           8.3680    0.7580   31.8456 C.3     1  UNL1        0.0216
     15 C           7.8297   -0.6392   31.9355 C.3     1  UNL1        0.0938
     16 N           6.5571   -1.1120   32.5735 N.am    1  UNL1       -0.2742
     17 C           6.2990   -2.5876   32.4955 C.2     1  UNL1        0.2489
     18 O           5.0543   -3.1644   33.1023 O.2     1  UNL1       -0.2699
     19 C           5.5086   -0.3043   33.2793 C.3     1  UNL1        0.1162
     20 C           7.2855   -3.4863   31.8106 C.2     1  UNL1        0.0548
     21 C           6.9517   -4.9309   31.5829 C.2     1  UNL1       -0.0041
     22 C           7.9381   -5.8296   30.8980 C.3     1  UNL1        0.0991
     23 N           7.7771   -6.1479   29.4410 N.3     1  UNL1       -0.2665
     24 C           6.7280   -5.4455   28.6313 C.3     1  UNL1        0.0899
     25 C           8.6654   -7.1688   28.7939 C.3     1  UNL1        0.0899
     26 C           2.4760    0.9658   31.4087 C.2     1  UNL1        0.2517
     27 O           2.5665   -0.3618   32.1012 O.2     1  UNL1       -0.2697
     28 N           2.6908    2.2321   32.1836 N.am    1  UNL1       -0.2518
     29 H           2.6314    3.1034   31.7291 H       1  UNL1        0.1580
     30 C          -0.9261    1.6773   27.5461 C.3     1  UNL1        0.0521
     31 C           0.4696    1.3829   28.0101 C.ar    1  UNL1        0.0595
     32 C           0.7749    1.3216   29.4774 C.ar    1  UNL1        0.0193
     33 C           2.1706    1.0271   29.9414 C.ar    1  UNL1        0.0565
     34 C           3.2610    0.7939   28.9381 C.ar    1  UNL1        0.0252
     35 C           2.9557    0.8552   27.4708 C.ar    1  UNL1        0.0986
     36 N           1.5600    1.1497   27.0068 N.ar    1  UNL1       -0.2481
@<TRIPOS>BOND
     1    30    31    1
     2    31    32   ar
     3    32    33   ar
     4    33    26    1
     5    26    27    2
     6    26    28   am
     7    28     1    1
     8     1     2   ar
     9     2     3   ar
    10     3     4   ar
    11     4     5   ar
    12     5     6   ar
    13     6     7   ar
    14     7     8    1
    15     7     9   ar
    16     9    10   ar
    17    11    10    1
    18    11    12    1
    19    12    13    1
    20    13    14    1
    21    14    15    1
    22    15    16    1
    23    16    17   am
    24    17    18    2
    25    17    20    1
    26    20    21    2
    27    21    22    1
    28    22    23    1
    29    23    24    1
    30    23    25    1
    31    16    19    1
    32    33    34   ar
    33    34    35   ar
    34    35    36   ar
    35    36    31   ar
    36    10     1   ar
    37    19    11    1
    38     9     3   ar
    39    28    29    1
@<TRIPOS>MOLECULE
*****
 36 39 0 0 0
SMALL
GASTEIGER

@<TRIPOS>ATOM
      1 C           1.1792    1.1805   19.7741 C.ar    1  UNL1        0.2039
      2 N           0.4505    1.4962   18.5015 N.ar    1  UNL1       -0.2135
      3 C           0.1212    2.9596   18.5067 C.ar    1  UNL1        0.0996
      4 C          -0.5890    3.8321   17.5145 C.ar    1  UNL1        0.0206
      5 C          -0.7740    5.2933   17.7981 C.ar    1  UNL1        0.0013
      6 C          -0.2488    5.8821   19.0739 C.ar    1  UNL1       -0.0027
      7 C           0.4614    5.0097   20.0660 C.ar    1  UNL1       -0.0045
      8 C           0.9865    5.5984   21.3418 C.3     1  UNL1        0.0326
      9 C           0.6464    3.5484   19.7824 C.ar    1  UNL1        0.0758
     10 N           1.3002    2.4489   20.5657 N.ar    1  UNL1       -0.2999
     11 C           1.9594    2.5925   21.9054 C.3     1  UNL1        0.1078
     12 C           3.4292    2.8914   21.8790 C.3     1  UNL1        0.0245
     13 C           4.3641    3.0899   23.0349 C.3     1  UNL1        0.0037
     14 C           4.0605    3.0384   24.5030 C.3     1  UNL1        0.0216
     15 C           2.7467    2.7759   25.1775 C.3     1  UNL1        0.0938
     16 N           1.4121    2.4998   24.5507 N.am    1  UNL1       -0.2742
     17 C           0.2780    2.2758   25.5065 C.2     1  UNL1        0.2489
     18 O          -1.0988    1.9919   24.9832 O.2     1  UNL1       -0.2699
     19 C           1.0619    2.4183   23.0945 C.3     1  UNL1        0.1162
     20 C           0.5207    2.3357   26.9855 C.2     1  UNL1        0.0548
     21 C          -0.2497    1.4390   27.9089 C.2     1  UNL1       -0.0041
     22 C          -0.0071    1.4988   29.3879 C.3     1  UNL1        0.0991
     23 N           1.1988    0.8297   29.9778 N.3     1  UNL1       -0.2665
     24 C           1.7707   -0.3948   29.3271 C.3     1  UNL1        0.0899
     25 C           1.8329    1.3852   31.2185 C.3     1  UNL1        0.0899
     26 C           3.1437   -0.5064   19.9858 C.2     1  UNL1        0.2517
     27 O           4.0746    0.5015   19.3793 O.2     1  UNL1       -0.2697
     28 N           1.6961   -0.1669   20.1832 N.am    1  UNL1       -0.2518
     29 H           1.0851   -0.8284   20.5812 H       1  UNL1        0.1580
     30 C           4.5441   -5.3547   18.7477 C.3     1  UNL1        0.0521
     31 C           4.3607   -4.2780   19.7758 C.ar    1  UNL1        0.0595
     32 C           3.8439   -2.9306   19.3667 C.ar    1  UNL1        0.0193
     33 C           3.6605   -1.8538   20.3949 C.ar    1  UNL1        0.0565
     34 C           3.9941   -2.1245   21.8320 C.ar    1  UNL1        0.0252
     35 C           4.5109   -3.4719   22.2411 C.ar    1  UNL1        0.0986
     36 N           4.6943   -4.5486   21.2130 N.ar    1  UNL1       -0.2481
@<TRIPOS>BOND
     1    30    31    1
     2    31    32   ar
     3    32    33   ar
     4    33    26    1
     5    26    27    2
     6    26    28   am
     7    28     1    1
     8     1     2   ar
     9     2     3   ar
    10     3     4   ar
    11     4     5   ar
    12     5     6   ar
    13     6     7   ar
    14     7     8    1
    15     7     9   ar
    16     9    10   ar
    17    11    10    1
    18    11    12    1
    19    12    13    1
    20    13    14    1
    21    14    15    1
    22    15    16    1
    23    16    17   am
    24    17    18    2
    25    17    20    1
    26    20    21    2
    27    21    22    1
    28    22    23    1
    29    23    24    1
    30    23    25    1
    31    16    19    1
    32    33    34   ar
    33    34    35   ar
    34    35    36   ar
    35    36    31   ar
    36    10     1   ar
    37    19    11    1
    38     9     3   ar
    39    28    29    1
@<TRIPOS>MOLECULE
*****
 36 39 0 0 0
SMALL
GASTEIGER

@<TRIPOS>ATOM
      1 C           7.6338   -4.0891   22.1429 C.ar    1  UNL1        0.2039
      2 N           8.5153   -5.2712   21.8682 N.ar    1  UNL1       -0.2135
      3 C           8.5627   -6.1125   23.1091 C.ar    1  UNL1        0.0996
      4 C           9.2718   -7.3960   23.4251 C.ar    1  UNL1        0.0206
      5 C           9.1286   -8.0173   24.7828 C.ar    1  UNL1        0.0013
      6 C           8.2764   -7.3551   25.8246 C.ar    1  UNL1       -0.0027
      7 C           7.5673   -6.0716   25.5086 C.ar    1  UNL1       -0.0045
      8 C           6.7151   -5.4094   26.5503 C.3     1  UNL1        0.0326
      9 C           7.7105   -5.4503   24.1509 C.ar    1  UNL1        0.0758
     10 N           7.1364   -4.1998   23.5537 N.ar    1  UNL1       -0.2999
     11 C           6.2249   -3.2302   24.2459 C.3     1  UNL1        0.1078
     12 C           4.9507   -2.9057   23.5239 C.3     1  UNL1        0.0245
     13 C           3.8451   -1.9843   23.9462 C.3     1  UNL1        0.0037
     14 C           3.7404   -1.1596   25.1948 C.3     1  UNL1        0.0216
     15 C           4.7157   -1.0527   26.3294 C.3     1  UNL1        0.0938
     16 N           6.0365   -1.7441   26.4958 N.am    1  UNL1       -0.2742
     17 C           6.7845   -1.4242   27.7560 C.2     1  UNL1        0.2489
     18 O           8.1160   -2.0623   28.0203 O.2     1  UNL1       -0.2699
     19 C           6.7081   -2.7132   25.5684 C.3     1  UNL1        0.1162
     20 C           6.2009   -0.4662   28.7518 C.2     1  UNL1        0.0548
     21 C           5.9083   -0.9236   30.1501 C.2     1  UNL1       -0.0041
     22 C           5.3248    0.0343   31.1459 C.3     1  UNL1        0.0991
     23 N           3.9083   -0.1357   31.6092 N.3     1  UNL1       -0.2665
     24 C           3.5366    0.1975   33.0237 C.3     1  UNL1        0.0899
     25 C           2.8634   -0.6389   30.6579 C.3     1  UNL1        0.0899
     26 C           6.2321   -3.1881   20.1496 C.2     1  UNL1        0.2517
     27 O           5.4837   -4.4868   20.0889 O.2     1  UNL1       -0.2697
     28 N           7.3071   -2.9893   21.1766 N.am    1  UNL1       -0.2518
     29 H           7.7982   -2.1370   21.2164 H       1  UNL1        0.1580
     30 C           2.7703    0.0476   18.0174 C.3     1  UNL1        0.0521
     31 C           4.1744   -0.4705   18.1172 C.ar    1  UNL1        0.0595
     32 C           4.5012   -1.5703   19.0835 C.ar    1  UNL1        0.0193
     33 C           5.9053   -2.0884   19.1833 C.ar    1  UNL1        0.0565
     34 C           6.9827   -1.5068   18.3167 C.ar    1  UNL1        0.0252
     35 C           6.6560   -0.4070   17.3504 C.ar    1  UNL1        0.0986
     36 N           5.2519    0.1111   17.2506 N.ar    1  UNL1       -0.2481
@<TRIPOS>BOND
     1    30    31    1
     2    31    32   ar
     3    32    33   ar
     4    33    26    1
     5    26    27    2
     6    26    28   am
     7    28     1    1
     8     1     2   ar
     9     2     3   ar
    10     3     4   ar
    11     4     5   ar
    12     5     6   ar
    13     6     7   ar
    14     7     8    1
    15     7     9   ar
    16     9    10   ar
    17    11    10    1
    18    11    12    1
    19    12    13    1
    20    13    14    1
    21    14    15    1
    22    15    16    1
    23    16    17   am
    24    17    18    2
    25    17    20    1
    26    20    21    2
    27    21    22    1
    28    22    23    1
    29    23    24    1
    30    23    25    1
    31    16    19    1
    32    33    34   ar
    33    34    35   ar
    34    35    36   ar
    35    36    31   ar
    36    10     1   ar
    37    19    11    1
    38     9     3   ar
    39    28    29    1
@<TRIPOS>MOLECULE
*****
 36 39 0 0 0
SMALL
GASTEIGER

@<TRIPOS>ATOM
      1 C          -2.8423    3.5733   23.8614 C.ar    1  UNL1        0.2039
      2 N          -4.3119    3.6180   24.1587 N.ar    1  UNL1       -0.2135
      3 C          -5.0290    3.9949   22.8963 C.ar    1  UNL1        0.0996
      4 C          -6.4839    4.1909   22.5887 C.ar    1  UNL1        0.0206
      5 C          -6.9125    4.5753   21.2036 C.ar    1  UNL1        0.0013
      6 C          -5.8861    4.7635   20.1261 C.ar    1  UNL1       -0.0027
      7 C          -4.4312    4.5675   20.4336 C.ar    1  UNL1       -0.0045
      8 C          -3.4048    4.7558   19.3561 C.3     1  UNL1        0.0326
      9 C          -4.0026    4.1832   21.8187 C.ar    1  UNL1        0.0758
     10 N          -2.6512    3.9226   22.4152 N.ar    1  UNL1       -0.2999
     11 C          -1.3390    3.9982   21.6924 C.3     1  UNL1        0.1078
     12 C          -0.7585    5.3728   21.5392 C.3     1  UNL1        0.0245
     13 C           0.5234    5.7779   20.8741 C.3     1  UNL1        0.0037
     14 C           1.5417    4.9084   20.1979 C.3     1  UNL1        0.0216
     15 C           1.5293    3.4191   20.0199 C.3     1  UNL1        0.0938
     16 N           0.4958    2.4313   20.4740 N.am    1  UNL1       -0.2742
     17 C           0.7757    0.9961   20.1395 C.2     1  UNL1        0.2489
     18 O          -0.1946   -0.0722   20.5483 O.2     1  UNL1       -0.2699
     19 C          -0.7808    2.6892   21.2183 C.3     1  UNL1        0.1162
     20 C           2.0259    0.6294   19.3963 C.2     1  UNL1        0.0548
     21 C           2.6111   -0.7438   19.5446 C.2     1  UNL1       -0.0041
     22 C           3.8613   -1.1106   18.8015 C.3     1  UNL1        0.0991
     23 N           4.3257   -2.5366   18.7727 N.3     1  UNL1       -0.2665
     24 C           3.4284   -3.6280   19.2763 C.3     1  UNL1        0.0899
     25 C           5.6876   -2.8711   18.2404 C.3     1  UNL1        0.0899
     26 C          -2.0293    3.2883   26.3125 C.2     1  UNL1        0.2517
     27 O          -3.3914    3.6735   26.8091 O.2     1  UNL1       -0.2697
     28 N          -1.7548    3.2383   24.8387 N.am    1  UNL1       -0.2518
     29 H          -0.8609    2.9855   24.5128 H       1  UNL1        0.1580
     30 C           0.6664   -0.2416   29.0093 C.3     1  UNL1        0.0521
     31 C           0.4060    1.1882   28.6382 C.ar    1  UNL1        0.0595
     32 C          -0.6815    1.5233   27.6609 C.ar    1  UNL1        0.0193
     33 C          -0.9418    2.9532   27.2898 C.ar    1  UNL1        0.0565
     34 C          -0.1147    4.0479   27.8959 C.ar    1  UNL1        0.0252
     35 C           0.9728    3.7128   28.8732 C.ar    1  UNL1        0.0986
     36 N           1.2331    2.2830   29.2443 N.ar    1  UNL1       -0.2481
@<TRIPOS>BOND
     1    30    31    1
     2    31    32   ar
     3    32    33   ar
     4    33    26    1
     5    26    27    2
     6    26    28   am
     7    28     1    1
     8     1     2   ar
     9     2     3   ar
    10     3     4   ar
    11     4     5   ar
    12     5     6   ar
    13     6     7   ar
    14     7     8    1
    15     7     9   ar
    16     9    10   ar
    17    11    10    1
    18    11    12    1
    19    12    13    1
    20    13    14    1
    21    14    15    1
    22    15    16    1
    23    16    17   am
    24    17    18    2
    25    17    20    1
    26    20    21    2
    27    21    22    1
    28    22    23    1
    29    23    24    1
    30    23    25    1
    31    16    19    1
    32    33    34   ar
    33    34    35   ar
    34    35    36   ar
    35    36    31   ar
    36    10     1   ar
    37    19    11    1
    38     9     3   ar
    39    28    29    1
