@<TRIPOS>MOLECULE
*****
 37 41 0 0 0
SMALL
GASTEIGER

@<TRIPOS>ATOM
      1 N          -8.7097  -17.9190   21.3772 N.3     1  UNL1       -0.2679
      2 C         -10.1483  -17.4988   21.3151 C.3     1  UNL1        0.0978
      3 C         -10.6494  -16.7105   20.1414 C.3     1  UNL1        0.0224
      4 C         -12.0880  -16.2903   20.0793 C.3     1  UNL1        0.0065
      5 C         -13.0254  -16.6583   21.1909 C.3     1  UNL1        0.0277
      6 C         -12.5243  -17.4465   22.3646 C.ar    1  UNL1       -0.0073
      7 C         -13.4618  -17.8145   23.4763 C.ar    1  UNL1       -0.0015
      8 C         -12.9607  -18.6028   24.6499 C.ar    1  UNL1        0.0203
      9 C         -11.5221  -19.0230   24.7120 C.ar    1  UNL1        0.0985
     10 N         -10.5846  -18.6550   23.6004 N.ar    1  UNL1       -0.2471
     11 C         -11.0857  -17.8667   22.4267 C.ar    1  UNL1        0.0695
     12 C          -8.3492  -19.3731   21.3036 C.3     1  UNL1        0.0738
     13 C          -7.5108  -19.9936   22.3817 C.3     1  UNL1        0.0347
     14 C          -6.2381  -20.7036   22.0268 C.3     1  UNL1        0.0736
     15 N          -1.2777  -17.7904   18.2640 N.am    1  UNL1       -0.3132
     16 C          -1.6336  -17.6306   19.7124 C.2     1  UNL1        0.3009
     17 O          -0.8385  -16.7026   20.5821 O.2     1  UNL1       -0.2528
     18 N          -2.7848  -18.3989   20.2910 N.am    1  UNL1       -0.2616
     19 C          -3.5799  -19.3269   19.4212 C.3     1  UNL1        0.1123
     20 C          -4.7311  -20.0951   19.9998 C.3     1  UNL1        0.0940
     21 N          -5.0870  -19.9354   21.4482 N.3     1  UNL1       -0.2697
     22 C          -4.2918  -19.0073   22.3180 C.3     1  UNL1        0.0940
     23 C          -3.1407  -18.2391   21.7393 C.3     1  UNL1        0.1123
     24 H          -0.5222  -17.2862   17.8842 H       1  UNL1        0.1465
     25 H          -1.7996  -18.3995   17.6931 H       1  UNL1        0.1465
     26 C          -7.6315  -16.8850   21.5128 C.3     1  UNL1        0.0886
     27 C          -7.2079  -16.4172   22.8737 C.3     1  UNL1        0.0748
     28 C          -8.2339  -16.2062   23.9472 C.3     1  UNL1        0.0432
     29 C          -7.8103  -15.7384   25.3081 C.ar    1  UNL1       -0.0234
     30 C          -8.8364  -15.5273   26.3816 C.ar    1  UNL1       -0.0045
     31 C          -8.4128  -15.0595   27.7424 C.ar    1  UNL1       -0.0003
     32 C          -6.9631  -14.8028   28.0296 C.ar    1  UNL1       -0.0003
     33 C          -5.9370  -15.0139   26.9560 C.ar    1  UNL1       -0.0032
     34 C          -6.3606  -15.4817   25.5953 C.ar    1  UNL1       -0.0103
     35 C          -5.3345  -15.6928   24.5216 C.3     1  UNL1        0.0953
     36 N          -5.7582  -16.1605   23.1609 N.3     1  UNL1       -0.2934
     37 H          -5.2635  -17.0346   22.9827 H       1  UNL1        0.1236
@<TRIPOS>BOND
     1    15    16   am
     2    16    17    2
     3    16    18   am
     4    18    19    1
     5    19    20    1
     6    20    21    1
     7    21    14    1
     8    14    13    1
     9    13    12    1
    10    12     1    1
    11     1    26    1
    12    27    26    1
    13    27    28    1
    14    28    29    1
    15    29    30   ar
    16    30    31   ar
    17    31    32   ar
    18    32    33   ar
    19    33    34   ar
    20    34    35    1
    21    35    36    1
    22     2     1    1
    23     2     3    1
    24     3     4    1
    25     4     5    1
    26     5     6    1
    27     6     7   ar
    28     7     8   ar
    29     8     9   ar
    30     9    10   ar
    31    10    11   ar
    32    21    22    1
    33    22    23    1
    34    23    18    1
    35    36    27    1
    36    11     2    1
    37    34    29   ar
    38    11     6   ar
    39    15    24    1
    40    15    25    1
    41    36    37    1
@<TRIPOS>MOLECULE
*****
 37 41 0 0 0
SMALL
GASTEIGER

@<TRIPOS>ATOM
      1 N          -8.2486  -18.5990   21.4872 N.3     1  UNL1       -0.2679
      2 C          -9.3148  -18.9476   22.4831 C.3     1  UNL1        0.0978
      3 C          -9.0635  -20.0126   23.5090 C.3     1  UNL1        0.0224
      4 C         -10.1297  -20.3613   24.5048 C.3     1  UNL1        0.0065
      5 C         -11.4472  -19.6450   24.4747 C.3     1  UNL1        0.0277
      6 C         -11.6986  -18.5801   23.4487 C.ar    1  UNL1       -0.0073
      7 C         -13.0162  -17.8637   23.4185 C.ar    1  UNL1       -0.0015
      8 C         -13.2676  -16.7988   22.3926 C.ar    1  UNL1        0.0203
      9 C         -12.2014  -16.4501   21.3967 C.ar    1  UNL1        0.0985
     10 N         -10.8838  -17.1664   21.4269 N.ar    1  UNL1       -0.2471
     11 C         -10.6324  -18.2314   22.4529 C.ar    1  UNL1        0.0695
     12 C          -7.8592  -19.5874   20.4284 C.3     1  UNL1        0.0738
     13 C          -6.8211  -20.6300   20.7210 C.3     1  UNL1        0.0347
     14 C          -5.7039  -20.3289   21.6754 C.3     1  UNL1        0.0736
     15 N          -0.3982  -17.7035   18.1815 N.am    1  UNL1       -0.3132
     16 C          -0.5293  -18.0879   19.6254 C.2     1  UNL1        0.3009
     17 O           0.6331  -17.9120   20.5569 O.2     1  UNL1       -0.2528
     18 N          -1.8230  -18.6481   20.1379 N.am    1  UNL1       -0.2616
     19 C          -2.9855  -18.8240   19.2064 C.3     1  UNL1        0.1123
     20 C          -4.2791  -19.3843   19.7189 C.3     1  UNL1        0.0940
     21 N          -4.4103  -19.7686   21.1629 N.3     1  UNL1       -0.2697
     22 C          -3.2477  -19.5927   22.0944 C.3     1  UNL1        0.0940
     23 C          -1.9541  -19.0325   21.5819 C.3     1  UNL1        0.1123
     24 H           0.4509  -17.3358   17.8451 H       1  UNL1        0.1465
     25 H          -1.1612  -17.8190   17.5701 H       1  UNL1        0.1465
     26 C          -7.5719  -17.2618   21.5503 C.3     1  UNL1        0.0886
     27 C          -7.1474  -16.6977   22.8738 C.3     1  UNL1        0.0748
     28 C          -8.1733  -16.4049   23.9281 C.3     1  UNL1        0.0432
     29 C          -7.7488  -15.8407   25.2516 C.ar    1  UNL1       -0.0234
     30 C          -8.7748  -15.5479   26.3059 C.ar    1  UNL1       -0.0045
     31 C          -8.3502  -14.9838   27.6294 C.ar    1  UNL1       -0.0003
     32 C          -6.8997  -14.7126   27.8985 C.ar    1  UNL1       -0.0003
     33 C          -5.8737  -15.0054   26.8442 C.ar    1  UNL1       -0.0032
     34 C          -6.2983  -15.5695   25.5208 C.ar    1  UNL1       -0.0103
     35 C          -5.2723  -15.8624   24.4664 C.3     1  UNL1        0.0953
     36 N          -5.6968  -16.4265   23.1430 N.3     1  UNL1       -0.2934
     37 H          -5.2055  -17.3131   23.0295 H       1  UNL1        0.1236
@<TRIPOS>BOND
     1    15    16   am
     2    16    17    2
     3    16    18   am
     4    18    19    1
     5    19    20    1
     6    20    21    1
     7    21    14    1
     8    14    13    1
     9    13    12    1
    10    12     1    1
    11     1    26    1
    12    27    26    1
    13    27    28    1
    14    28    29    1
    15    29    30   ar
    16    30    31   ar
    17    31    32   ar
    18    32    33   ar
    19    33    34   ar
    20    34    35    1
    21    35    36    1
    22     2     1    1
    23     2     3    1
    24     3     4    1
    25     4     5    1
    26     5     6    1
    27     6     7   ar
    28     7     8   ar
    29     8     9   ar
    30     9    10   ar
    31    10    11   ar
    32    21    22    1
    33    22    23    1
    34    23    18    1
    35    36    27    1
    36    11     2    1
    37    34    29   ar
    38    11     6   ar
    39    15    24    1
    40    15    25    1
    41    36    37    1
@<TRIPOS>MOLECULE
*****
 37 41 0 0 0
SMALL
GASTEIGER

@<TRIPOS>ATOM
      1 N          -7.0572  -19.5857   21.5187 N.3     1  UNL1       -0.2679
      2 C          -8.0207  -19.2870   22.6288 C.3     1  UNL1        0.0978
      3 C          -8.8319  -20.3931   23.2358 C.3     1  UNL1        0.0224
      4 C          -9.7954  -20.0944   24.3459 C.3     1  UNL1        0.0065
      5 C          -9.9478  -18.6896   24.8491 C.3     1  UNL1        0.0277
      6 C          -9.1366  -17.5834   24.2421 C.ar    1  UNL1       -0.0073
      7 C          -9.2890  -16.1785   24.7453 C.ar    1  UNL1       -0.0015
      8 C          -8.4778  -15.0724   24.1383 C.ar    1  UNL1        0.0203
      9 C          -7.5143  -15.3711   23.0282 C.ar    1  UNL1        0.0985
     10 N          -7.3619  -16.7759   22.5250 N.ar    1  UNL1       -0.2471
     11 C          -8.1731  -17.8821   23.1320 C.ar    1  UNL1        0.0695
     12 C          -7.3994  -19.2105   20.1073 C.3     1  UNL1        0.0738
     13 C          -8.1538  -20.1720   19.2375 C.3     1  UNL1        0.0347
     14 C          -9.6148  -19.9578   18.9743 C.3     1  UNL1        0.0736
     15 N         -13.7751  -17.6452   23.9337 N.am    1  UNL1       -0.3132
     16 C         -12.9572  -16.9081   22.9150 C.2     1  UNL1        0.3009
     17 O         -12.9749  -15.4086   22.8815 O.2     1  UNL1       -0.2528
     18 N         -12.1216  -17.6706   21.9298 N.am    1  UNL1       -0.2616
     19 C         -12.1039  -19.1701   21.9634 C.3     1  UNL1        0.1123
     20 C         -11.2683  -19.9325   20.9782 C.3     1  UNL1        0.0940
     21 N         -10.4504  -19.1954   19.9595 N.3     1  UNL1       -0.2697
     22 C         -10.4681  -17.6958   19.9260 C.3     1  UNL1        0.0940
     23 C         -11.3037  -16.9335   20.9112 C.3     1  UNL1        0.1123
     24 H         -14.3235  -17.1449   24.5803 H       1  UNL1        0.1465
     25 H         -13.7635  -18.6294   23.9557 H       1  UNL1        0.1465
     26 C          -5.7514  -20.2595   21.8200 C.3     1  UNL1        0.0886
     27 C          -4.4641  -19.5067   21.6585 C.3     1  UNL1        0.0748
     28 C          -3.8549  -19.3458   20.2973 C.3     1  UNL1        0.0432
     29 C          -2.5676  -18.5930   20.1358 C.ar    1  UNL1       -0.0234
     30 C          -1.9584  -18.4322   18.7746 C.ar    1  UNL1       -0.0045
     31 C          -0.6711  -17.6793   18.6132 C.ar    1  UNL1       -0.0003
     32 C           0.0070  -17.0873   19.8131 C.ar    1  UNL1       -0.0003
     33 C          -0.6021  -17.2482   21.1743 C.ar    1  UNL1       -0.0032
     34 C          -1.8894  -18.0010   21.3357 C.ar    1  UNL1       -0.0103
     35 C          -2.4986  -18.1618   22.6970 C.3     1  UNL1        0.0953
     36 N          -3.7859  -18.9147   22.8584 N.3     1  UNL1       -0.2934
     37 H          -4.4520  -18.2709   23.2853 H       1  UNL1        0.1236
@<TRIPOS>BOND
     1    15    16   am
     2    16    17    2
     3    16    18   am
     4    18    19    1
     5    19    20    1
     6    20    21    1
     7    21    14    1
     8    14    13    1
     9    13    12    1
    10    12     1    1
    11     1    26    1
    12    27    26    1
    13    27    28    1
    14    28    29    1
    15    29    30   ar
    16    30    31   ar
    17    31    32   ar
    18    32    33   ar
    19    33    34   ar
    20    34    35    1
    21    35    36    1
    22     2     1    1
    23     2     3    1
    24     3     4    1
    25     4     5    1
    26     5     6    1
    27     6     7   ar
    28     7     8   ar
    29     8     9   ar
    30     9    10   ar
    31    10    11   ar
    32    21    22    1
    33    22    23    1
    34    23    18    1
    35    36    27    1
    36    11     2    1
    37    34    29   ar
    38    11     6   ar
    39    15    24    1
    40    15    25    1
    41    36    37    1
@<TRIPOS>MOLECULE
*****
 37 41 0 0 0
SMALL
GASTEIGER

@<TRIPOS>ATOM
      1 N          -6.4071  -18.8085   20.8800 N.3     1  UNL1       -0.2679
      2 C          -4.9727  -18.8568   21.3160 C.3     1  UNL1        0.0978
      3 C          -4.6235  -19.3335   22.6947 C.3     1  UNL1        0.0224
      4 C          -3.1891  -19.3818   23.1307 C.3     1  UNL1        0.0065
      5 C          -2.1038  -18.9534   22.1881 C.3     1  UNL1        0.0277
      6 C          -2.4530  -18.4767   20.8094 C.ar    1  UNL1       -0.0073
      7 C          -1.3677  -18.0483   19.8667 C.ar    1  UNL1       -0.0015
      8 C          -1.7168  -17.5716   18.4880 C.ar    1  UNL1        0.0203
      9 C          -3.1512  -17.5233   18.0520 C.ar    1  UNL1        0.0985
     10 N          -4.2365  -17.9517   18.9946 N.ar    1  UNL1       -0.2471
     11 C          -3.8874  -18.4284   20.3734 C.ar    1  UNL1        0.0695
     12 C          -7.0135  -19.9795   20.1652 C.3     1  UNL1        0.0738
     13 C          -7.8411  -19.7598   18.9335 C.3     1  UNL1        0.0347
     14 C          -9.3116  -20.0549   18.9556 C.3     1  UNL1        0.0736
     15 N         -13.4079  -18.0504   24.0988 N.am    1  UNL1       -0.3132
     16 C         -12.8664  -17.2933   22.9227 C.2     1  UNL1        0.3009
     17 O         -13.2135  -15.8457   22.7382 O.2     1  UNL1       -0.2528
     18 N         -11.9777  -17.9837   21.9309 N.am    1  UNL1       -0.2616
     19 C         -11.6305  -19.4312   22.1153 C.3     1  UNL1        0.1123
     20 C         -10.7418  -20.1217   21.1235 C.3     1  UNL1        0.0940
     21 N         -10.2003  -19.3645   19.9473 N.3     1  UNL1       -0.2697
     22 C         -10.5475  -17.9169   19.7629 C.3     1  UNL1        0.0940
     23 C         -11.4361  -17.2265   20.7547 C.3     1  UNL1        0.1123
     24 H         -13.9912  -17.5973   24.7498 H       1  UNL1        0.1465
     25 H         -13.1801  -19.0005   24.2199 H       1  UNL1        0.1465
     26 C          -7.2350  -17.5892   21.1588 C.3     1  UNL1        0.0886
     27 C          -7.5687  -17.2164   22.5729 C.3     1  UNL1        0.0748
     28 C          -6.5878  -16.4322   23.3932 C.3     1  UNL1        0.0432
     29 C          -6.9215  -16.0594   24.8073 C.ar    1  UNL1       -0.0234
     30 C          -5.9407  -15.2751   25.6276 C.ar    1  UNL1       -0.0045
     31 C          -6.2744  -14.9024   27.0416 C.ar    1  UNL1       -0.0003
     32 C          -7.5889  -15.3139   27.6355 C.ar    1  UNL1       -0.0003
     33 C          -8.5698  -16.0981   26.8152 C.ar    1  UNL1       -0.0032
     34 C          -8.2361  -16.4709   25.4012 C.ar    1  UNL1       -0.0103
     35 C          -9.2169  -17.2552   24.5808 C.3     1  UNL1        0.0953
     36 N          -8.8832  -17.6279   23.1668 N.3     1  UNL1       -0.2934
     37 H          -9.6116  -17.2260   22.5766 H       1  UNL1        0.1236
@<TRIPOS>BOND
     1    15    16   am
     2    16    17    2
     3    16    18   am
     4    18    19    1
     5    19    20    1
     6    20    21    1
     7    21    14    1
     8    14    13    1
     9    13    12    1
    10    12     1    1
    11     1    26    1
    12    27    26    1
    13    27    28    1
    14    28    29    1
    15    29    30   ar
    16    30    31   ar
    17    31    32   ar
    18    32    33   ar
    19    33    34   ar
    20    34    35    1
    21    35    36    1
    22     2     1    1
    23     2     3    1
    24     3     4    1
    25     4     5    1
    26     5     6    1
    27     6     7   ar
    28     7     8   ar
    29     8     9   ar
    30     9    10   ar
    31    10    11   ar
    32    21    22    1
    33    22    23    1
    34    23    18    1
    35    36    27    1
    36    11     2    1
    37    34    29   ar
    38    11     6   ar
    39    15    24    1
    40    15    25    1
    41    36    37    1
@<TRIPOS>MOLECULE
*****
 37 41 0 0 0
SMALL
GASTEIGER

@<TRIPOS>ATOM
      1 N           3.6942    0.0552   26.7251 N.3     1  UNL1       -0.2679
      2 C           2.3243    0.2784   27.2938 C.3     1  UNL1        0.0978
      3 C           1.9237   -0.3965   28.5720 C.3     1  UNL1        0.0224
      4 C           0.5537   -0.1733   29.1407 C.3     1  UNL1        0.0065
      5 C          -0.4157    0.7248   28.4311 C.3     1  UNL1        0.0277
      6 C          -0.0151    1.3998   27.1529 C.ar    1  UNL1       -0.0073
      7 C          -0.9845    2.2980   26.4432 C.ar    1  UNL1       -0.0015
      8 C          -0.5839    2.9729   25.1649 C.ar    1  UNL1        0.0203
      9 C           0.7861    2.7497   24.5963 C.ar    1  UNL1        0.0985
     10 N           1.7554    1.8515   25.3059 N.ar    1  UNL1       -0.2471
     11 C           1.3549    1.1765   26.5842 C.ar    1  UNL1        0.0695
     12 C           4.7460    1.1155   26.8643 C.3     1  UNL1        0.0738
     13 C           5.8739    0.9302   27.8358 C.3     1  UNL1        0.0347
     14 C           5.5925    0.4526   29.2295 C.3     1  UNL1        0.0736
     15 N           6.6685   -5.6544   32.1955 N.am    1  UNL1       -0.3132
     16 C           6.8935   -5.1941   30.7857 C.2     1  UNL1        0.3009
     17 O           7.4437   -6.1456   29.7649 O.2     1  UNL1       -0.2528
     18 N           6.5682   -3.7824   30.3967 N.am    1  UNL1       -0.2616
     19 C           6.0180   -2.8310   31.4174 C.3     1  UNL1        0.1123
     20 C           5.6927   -1.4192   31.0284 C.3     1  UNL1        0.0940
     21 N           5.9177   -0.9590   29.6186 N.3     1  UNL1       -0.2697
     22 C           6.4679   -1.9105   28.5978 C.3     1  UNL1        0.0940
     23 C           6.7932   -3.3222   28.9868 C.3     1  UNL1        0.1123
     24 H           6.8820   -6.5809   32.4508 H       1  UNL1        0.1465
     25 H           6.3074   -5.0299   32.8655 H       1  UNL1        0.1465
     26 C           4.0124   -1.2284   26.0173 C.3     1  UNL1        0.0886
     27 C           3.8027   -1.3401   24.5361 C.3     1  UNL1        0.0748
     28 C           4.4172   -2.4774   23.7753 C.3     1  UNL1        0.0432
     29 C           4.2075   -2.5891   22.2942 C.ar    1  UNL1       -0.0234
     30 C           4.8220   -3.7264   21.5334 C.ar    1  UNL1       -0.0045
     31 C           4.6123   -3.8380   20.0523 C.ar    1  UNL1       -0.0003
     32 C           3.7881   -2.8123   19.3321 C.ar    1  UNL1       -0.0003
     33 C           3.1736   -1.6750   20.0930 C.ar    1  UNL1       -0.0032
     34 C           3.3833   -1.5634   21.5740 C.ar    1  UNL1       -0.0103
     35 C           2.7688   -0.4260   22.3349 C.3     1  UNL1        0.0953
     36 N           2.9786   -0.3144   23.8159 N.3     1  UNL1       -0.2934
     37 H           2.0537   -0.3251   24.2459 H       1  UNL1        0.1236
@<TRIPOS>BOND
     1    15    16   am
     2    16    17    2
     3    16    18   am
     4    18    19    1
     5    19    20    1
     6    20    21    1
     7    21    14    1
     8    14    13    1
     9    13    12    1
    10    12     1    1
    11     1    26    1
    12    27    26    1
    13    27    28    1
    14    28    29    1
    15    29    30   ar
    16    30    31   ar
    17    31    32   ar
    18    32    33   ar
    19    33    34   ar
    20    34    35    1
    21    35    36    1
    22     2     1    1
    23     2     3    1
    24     3     4    1
    25     4     5    1
    26     5     6    1
    27     6     7   ar
    28     7     8   ar
    29     8     9   ar
    30     9    10   ar
    31    10    11   ar
    32    21    22    1
    33    22    23    1
    34    23    18    1
    35    36    27    1
    36    11     2    1
    37    34    29   ar
    38    11     6   ar
    39    15    24    1
    40    15    25    1
    41    36    37    1
@<TRIPOS>MOLECULE
*****
 37 41 0 0 0
SMALL
GASTEIGER

@<TRIPOS>ATOM
      1 N           6.4769   -3.2793   23.7369 N.3     1  UNL1       -0.2679
      2 C           7.3066   -4.5017   23.4775 C.3     1  UNL1        0.0978
      3 C           8.0185   -4.6608   22.1669 C.3     1  UNL1        0.0224
      4 C           8.8482   -5.8832   21.9075 C.3     1  UNL1        0.0065
      5 C           8.9661   -6.9466   22.9588 C.3     1  UNL1        0.0277
      6 C           8.2542   -6.7875   24.2695 C.ar    1  UNL1       -0.0073
      7 C           8.3720   -7.8509   25.3209 C.ar    1  UNL1       -0.0015
      8 C           7.6602   -7.6919   26.6316 C.ar    1  UNL1        0.0203
      9 C           6.8305   -6.4694   26.8909 C.ar    1  UNL1        0.0985
     10 N           6.7126   -5.4061   25.8396 N.ar    1  UNL1       -0.2471
     11 C           7.4245   -5.5651   24.5289 C.ar    1  UNL1        0.0695
     12 C           7.1256   -2.0273   24.2484 C.3     1  UNL1        0.0738
     13 C           8.1644   -2.1078   25.3275 C.3     1  UNL1        0.0347
     14 C           7.8292   -1.6778   26.7249 C.3     1  UNL1        0.0736
     15 N           6.6285   -5.8315   32.0686 N.am    1  UNL1       -0.3132
     16 C           7.8303   -5.6951   31.1815 C.2     1  UNL1        0.3009
     17 O           9.0325   -6.5630   31.4086 O.2     1  UNL1       -0.2528
     18 N           7.8300   -4.6907   30.0673 N.am    1  UNL1       -0.2616
     19 C           6.6279   -3.8228   29.8403 C.3     1  UNL1        0.1123
     20 C           6.6276   -2.8184   28.7261 C.3     1  UNL1        0.0940
     21 N           7.8295   -2.6820   27.8390 N.3     1  UNL1       -0.2697
     22 C           9.0316   -3.5500   28.0661 C.3     1  UNL1        0.0940
     23 C           9.0319   -4.5543   29.1802 C.3     1  UNL1        0.1123
     24 H           6.6287   -6.4906   32.7999 H       1  UNL1        0.1465
     25 H           5.8395   -5.2618   31.9196 H       1  UNL1        0.1465
     26 C           4.9986   -3.3089   23.4848 C.3     1  UNL1        0.0886
     27 C           4.4061   -2.4624   22.3973 C.3     1  UNL1        0.0748
     28 C           4.8276   -2.6686   20.9726 C.3     1  UNL1        0.0432
     29 C           4.2352   -1.8221   19.8852 C.ar    1  UNL1       -0.0234
     30 C           4.6567   -2.0282   18.4605 C.ar    1  UNL1       -0.0045
     31 C           4.0642   -1.1818   17.3731 C.ar    1  UNL1       -0.0003
     32 C           3.0502   -0.1291   17.7104 C.ar    1  UNL1       -0.0003
     33 C           2.6287    0.0770   19.1351 C.ar    1  UNL1       -0.0032
     34 C           3.2212   -0.7694   20.2225 C.ar    1  UNL1       -0.0103
     35 C           2.7997   -0.5633   21.6472 C.3     1  UNL1        0.0953
     36 N           3.3921   -1.4098   22.7346 N.3     1  UNL1       -0.2934
     37 H           2.6154   -1.8855   23.1937 H       1  UNL1        0.1236
@<TRIPOS>BOND
     1    15    16   am
     2    16    17    2
     3    16    18   am
     4    18    19    1
     5    19    20    1
     6    20    21    1
     7    21    14    1
     8    14    13    1
     9    13    12    1
    10    12     1    1
    11     1    26    1
    12    27    26    1
    13    27    28    1
    14    28    29    1
    15    29    30   ar
    16    30    31   ar
    17    31    32   ar
    18    32    33   ar
    19    33    34   ar
    20    34    35    1
    21    35    36    1
    22     2     1    1
    23     2     3    1
    24     3     4    1
    25     4     5    1
    26     5     6    1
    27     6     7   ar
    28     7     8   ar
    29     8     9   ar
    30     9    10   ar
    31    10    11   ar
    32    21    22    1
    33    22    23    1
    34    23    18    1
    35    36    27    1
    36    11     2    1
    37    34    29   ar
    38    11     6   ar
    39    15    24    1
    40    15    25    1
    41    36    37    1
@<TRIPOS>MOLECULE
*****
 37 41 0 0 0
SMALL
GASTEIGER

@<TRIPOS>ATOM
      1 N           3.5883    0.6729   25.5218 N.3     1  UNL1       -0.2679
      2 C           2.1575    1.1233   25.5216 C.3     1  UNL1        0.0978
      3 C           1.5729    1.7631   24.2974 C.3     1  UNL1        0.0224
      4 C           0.1421    2.2135   24.2971 C.3     1  UNL1        0.0065
      5 C          -0.7040    2.0241   25.5211 C.3     1  UNL1        0.0277
      6 C          -0.1194    1.3843   26.7453 C.ar    1  UNL1       -0.0073
      7 C          -0.9655    1.1949   27.9694 C.ar    1  UNL1       -0.0015
      8 C          -0.3809    0.5551   29.1936 C.ar    1  UNL1        0.0203
      9 C           1.0499    0.1047   29.1939 C.ar    1  UNL1        0.0985
     10 N           1.8960    0.2941   27.9699 N.ar    1  UNL1       -0.2471
     11 C           1.3114    0.9339   26.7456 C.ar    1  UNL1        0.0695
     12 C           4.6931    1.6847   25.4485 C.3     1  UNL1        0.0738
     13 C           5.3046    2.0329   24.1237 C.3     1  UNL1        0.0347
     14 C           6.4145    1.1923   23.5658 C.3     1  UNL1        0.0736
     15 N           5.3397    0.0231   16.8779 N.am    1  UNL1       -0.3132
     16 C           6.1620   -0.7240   17.8856 C.2     1  UNL1        0.3009
     17 O           6.9212   -1.9502   17.4734 O.2     1  UNL1       -0.2528
     18 N           6.2251   -0.2449   19.3057 N.am    1  UNL1       -0.2616
     19 C           5.4659    0.9813   19.7180 C.3     1  UNL1        0.1123
     20 C           5.5290    1.4604   21.1381 C.3     1  UNL1        0.0940
     21 N           6.3513    0.7132   22.1458 N.3     1  UNL1       -0.2697
     22 C           7.1106   -0.5130   21.7335 C.3     1  UNL1        0.0940
     23 C           7.0474   -0.9921   20.3134 C.3     1  UNL1        0.1123
     24 H           5.2982   -0.2913   15.9459 H       1  UNL1        0.1465
     25 H           4.8414    0.8279   17.1485 H       1  UNL1        0.1465
     26 C           3.9142   -0.7894   25.5954 C.3     1  UNL1        0.0886
     27 C           4.1146   -1.5775   24.3349 C.3     1  UNL1        0.0748
     28 C           3.4411   -1.1465   23.0658 C.3     1  UNL1        0.0432
     29 C           3.6415   -1.9346   21.8053 C.ar    1  UNL1       -0.0234
     30 C           2.9681   -1.5036   20.5362 C.ar    1  UNL1       -0.0045
     31 C           3.1685   -2.2917   19.2758 C.ar    1  UNL1       -0.0003
     32 C           4.0423   -3.5109   19.2845 C.ar    1  UNL1       -0.0003
     33 C           4.7158   -3.9419   20.5536 C.ar    1  UNL1       -0.0032
     34 C           4.5154   -3.1538   21.8140 C.ar    1  UNL1       -0.0103
     35 C           5.1888   -3.5848   23.0832 C.3     1  UNL1        0.0953
     36 N           4.9884   -2.7967   24.3436 N.3     1  UNL1       -0.2934
     37 H           5.9125   -2.4944   24.6519 H       1  UNL1        0.1236
@<TRIPOS>BOND
     1    15    16   am
     2    16    17    2
     3    16    18   am
     4    18    19    1
     5    19    20    1
     6    20    21    1
     7    21    14    1
     8    14    13    1
     9    13    12    1
    10    12     1    1
    11     1    26    1
    12    27    26    1
    13    27    28    1
    14    28    29    1
    15    29    30   ar
    16    30    31   ar
    17    31    32   ar
    18    32    33   ar
    19    33    34   ar
    20    34    35    1
    21    35    36    1
    22     2     1    1
    23     2     3    1
    24     3     4    1
    25     4     5    1
    26     5     6    1
    27     6     7   ar
    28     7     8   ar
    29     8     9   ar
    30     9    10   ar
    31    10    11   ar
    32    21    22    1
    33    22    23    1
    34    23    18    1
    35    36    27    1
    36    11     2    1
    37    34    29   ar
    38    11     6   ar
    39    15    24    1
    40    15    25    1
    41    36    37    1
@<TRIPOS>MOLECULE
*****
 37 41 0 0 0
SMALL
GASTEIGER

@<TRIPOS>ATOM
      1 N          -9.7312  -19.1495   20.7583 N.3     1  UNL1       -0.2679
      2 C         -10.0292  -19.4592   22.1954 C.3     1  UNL1        0.0978
      3 C          -9.0537  -20.2574   23.0085 C.3     1  UNL1        0.0224
      4 C          -9.3518  -20.5671   24.4456 C.3     1  UNL1        0.0065
      5 C         -10.6254  -20.0786   25.0696 C.3     1  UNL1        0.0277
      6 C         -11.6009  -19.2804   24.2564 C.ar    1  UNL1       -0.0073
      7 C         -12.8745  -18.7919   24.8804 C.ar    1  UNL1       -0.0015
      8 C         -13.8500  -17.9937   24.0672 C.ar    1  UNL1        0.0203
      9 C         -13.5519  -17.6840   22.6301 C.ar    1  UNL1        0.0985
     10 N         -12.2784  -18.1725   22.0062 N.ar    1  UNL1       -0.2471
     11 C         -11.3028  -18.9707   22.8193 C.ar    1  UNL1        0.0695
     12 C         -10.4585  -18.0361   20.0645 C.3     1  UNL1        0.0738
     13 C          -9.9725  -16.6235   20.2005 C.3     1  UNL1        0.0347
     14 C         -10.3181  -15.8259   21.4229 C.3     1  UNL1        0.0736
     15 N          -6.8047  -15.9111   27.3304 N.am    1  UNL1       -0.3132
     16 C          -6.4106  -15.4453   25.9602 C.2     1  UNL1        0.3009
     17 O          -5.0396  -14.8842   25.7242 O.2     1  UNL1       -0.2528
     18 N          -7.3875  -15.5404   24.8258 N.am    1  UNL1       -0.2616
     19 C          -8.7584  -16.1014   25.0618 C.3     1  UNL1        0.1123
     20 C          -9.7354  -16.1966   23.9275 C.3     1  UNL1        0.0940
     21 N          -9.3413  -15.7307   22.5572 N.3     1  UNL1       -0.2697
     22 C          -7.9702  -15.1697   22.3213 C.3     1  UNL1        0.0940
     23 C          -6.9934  -15.0745   23.4556 C.3     1  UNL1        0.1123
     24 H          -6.1635  -15.8487   28.0749 H       1  UNL1        0.1465
     25 H          -7.7045  -16.2793   27.4853 H       1  UNL1        0.1465
     26 C          -8.7058  -19.9532   20.0149 C.3     1  UNL1        0.0886
     27 C          -7.2591  -19.8649   20.4016 C.3     1  UNL1        0.0748
     28 C          -6.8124  -18.8453   21.4070 C.3     1  UNL1        0.0432
     29 C          -5.3657  -18.7571   21.7936 C.ar    1  UNL1       -0.0234
     30 C          -4.9190  -17.7375   22.7990 C.ar    1  UNL1       -0.0045
     31 C          -3.4724  -17.6493   23.1856 C.ar    1  UNL1       -0.0003
     32 C          -2.4725  -18.5806   22.5669 C.ar    1  UNL1       -0.0003
     33 C          -2.9192  -19.6002   21.5615 C.ar    1  UNL1       -0.0032
     34 C          -4.3658  -19.6884   21.1749 C.ar    1  UNL1       -0.0103
     35 C          -4.8126  -20.7080   20.1694 C.3     1  UNL1        0.0953
     36 N          -6.2592  -20.7963   19.7828 N.3     1  UNL1       -0.2934
     37 H          -6.5652  -21.7444   20.0016 H       1  UNL1        0.1236
@<TRIPOS>BOND
     1    15    16   am
     2    16    17    2
     3    16    18   am
     4    18    19    1
     5    19    20    1
     6    20    21    1
     7    21    14    1
     8    14    13    1
     9    13    12    1
    10    12     1    1
    11     1    26    1
    12    27    26    1
    13    27    28    1
    14    28    29    1
    15    29    30   ar
    16    30    31   ar
    17    31    32   ar
    18    32    33   ar
    19    33    34   ar
    20    34    35    1
    21    35    36    1
    22     2     1    1
    23     2     3    1
    24     3     4    1
    25     4     5    1
    26     5     6    1
    27     6     7   ar
    28     7     8   ar
    29     8     9   ar
    30     9    10   ar
    31    10    11   ar
    32    21    22    1
    33    22    23    1
    34    23    18    1
    35    36    27    1
    36    11     2    1
    37    34    29   ar
    38    11     6   ar
    39    15    24    1
    40    15    25    1
    41    36    37    1
@<TRIPOS>MOLECULE
*****
 37 41 0 0 0
SMALL
GASTEIGER

@<TRIPOS>ATOM
      1 N           7.2623   -3.6489   20.9243 N.3     1  UNL1       -0.2679
      2 C           7.0728   -3.8368   22.4004 C.3     1  UNL1        0.0978
      3 C           6.3284   -2.8075   23.1981 C.3     1  UNL1        0.0224
      4 C           6.1390   -2.9954   24.6742 C.3     1  UNL1        0.0065
      5 C           6.6939   -4.2127   25.3526 C.3     1  UNL1        0.0277
      6 C           7.4383   -5.2420   24.5549 C.ar    1  UNL1       -0.0073
      7 C           7.9933   -6.4594   25.2333 C.ar    1  UNL1       -0.0015
      8 C           8.7377   -7.4887   24.4356 C.ar    1  UNL1        0.0203
      9 C           8.9272   -7.3007   22.9595 C.ar    1  UNL1        0.0985
     10 N           8.3722   -6.0835   22.2811 N.ar    1  UNL1       -0.2471
     11 C           7.6278   -5.0541   23.0788 C.ar    1  UNL1        0.0695
     12 C           8.5517   -3.0912   20.3987 C.3     1  UNL1        0.0738
     13 C           8.8333   -1.6219   20.5081 C.3     1  UNL1        0.0347
     14 C           8.4080   -0.6929   19.4099 C.3     1  UNL1        0.0736
     15 N           2.9229    2.8908   21.4887 N.am    1  UNL1       -0.3132
     16 C           3.7237    2.9673   20.2226 C.2     1  UNL1        0.3009
     17 O           3.3534    3.9588   19.1598 O.2     1  UNL1       -0.2528
     18 N           4.8948    2.0522   20.0195 N.am    1  UNL1       -0.2616
     19 C           5.2650    1.0607   21.0823 C.3     1  UNL1        0.1123
     20 C           6.4362    0.1456   20.8791 C.3     1  UNL1        0.0940
     21 N           7.2369    0.2221   19.6131 N.3     1  UNL1       -0.2697
     22 C           6.8666    1.2137   18.5502 C.3     1  UNL1        0.0940
     23 C           5.6955    2.1287   18.7534 C.3     1  UNL1        0.1123
     24 H           2.1543    3.4913   21.6221 H       1  UNL1        0.1465
     25 H           3.1659    2.2400   22.1863 H       1  UNL1        0.1465
     26 C           6.1623   -4.0186   19.9739 C.3     1  UNL1        0.0886
     27 C           5.2447   -2.9589   19.4400 C.3     1  UNL1        0.0748
     28 C           4.0524   -2.5262   20.2407 C.3     1  UNL1        0.0432
     29 C           3.1348   -1.4665   19.7067 C.ar    1  UNL1       -0.0234
     30 C           1.9425   -1.0339   20.5075 C.ar    1  UNL1       -0.0045
     31 C           1.0249    0.0258   19.9735 C.ar    1  UNL1       -0.0003
     32 C           1.2996    0.6527   18.6388 C.ar    1  UNL1       -0.0003
     33 C           2.4919    0.2201   17.8381 C.ar    1  UNL1       -0.0032
     34 C           3.4095   -0.8396   18.3720 C.ar    1  UNL1       -0.0103
     35 C           4.6018   -1.2723   17.5713 C.3     1  UNL1        0.0953
     36 N           5.5194   -2.3320   18.1053 N.3     1  UNL1       -0.2934
     37 H           6.4489   -1.9157   18.1612 H       1  UNL1        0.1236
@<TRIPOS>BOND
     1    15    16   am
     2    16    17    2
     3    16    18   am
     4    18    19    1
     5    19    20    1
     6    20    21    1
     7    21    14    1
     8    14    13    1
     9    13    12    1
    10    12     1    1
    11     1    26    1
    12    27    26    1
    13    27    28    1
    14    28    29    1
    15    29    30   ar
    16    30    31   ar
    17    31    32   ar
    18    32    33   ar
    19    33    34   ar
    20    34    35    1
    21    35    36    1
    22     2     1    1
    23     2     3    1
    24     3     4    1
    25     4     5    1
    26     5     6    1
    27     6     7   ar
    28     7     8   ar
    29     8     9   ar
    30     9    10   ar
    31    10    11   ar
    32    21    22    1
    33    22    23    1
    34    23    18    1
    35    36    27    1
    36    11     2    1
    37    34    29   ar
    38    11     6   ar
    39    15    24    1
    40    15    25    1
    41    36    37    1
