@<TRIPOS>MOLECULE
*****
 29 32 0 0 0
SMALL
GASTEIGER

@<TRIPOS>ATOM
      1 C           6.5806   -3.9547   29.1843 C.ar    1  UNL1        0.0785
      2 C           6.2679   -2.4882   29.1419 C.ar    1  UNL1        0.0183
      3 C           6.1548   -1.7082   30.4181 C.ar    1  UNL1        0.0168
      4 C           6.3544   -2.3946   31.7368 C.ar    1  UNL1        0.0636
      5 C           6.6670   -3.8610   31.7793 C.ar    1  UNL1        0.0462
      6 C           6.7801   -4.6410   30.5031 C.ar    1  UNL1        0.1547
      7 F           7.0928   -6.1075   30.5456 F       1  UNL1       -0.2028
      8 N           6.2413   -1.6146   33.0130 N.am    1  UNL1       -0.2010
      9 C           5.0396   -1.5594   33.9091 C.2     1  UNL1        0.2589
     10 O           3.7401   -2.2747   33.6864 O.2     1  UNL1       -0.2691
     11 C           5.3657   -0.6635   35.0672 C.ar    1  UNL1        0.0584
     12 C           4.5661   -0.2373   36.2626 C.ar    1  UNL1        0.0047
     13 C           5.1698    0.6875   37.2776 C.ar    1  UNL1       -0.0002
     14 C           6.5729    1.1861   37.0972 C.ar    1  UNL1       -0.0041
     15 C           7.3725    0.7599   35.9018 C.ar    1  UNL1       -0.0173
     16 C           8.7756    1.2585   35.7214 C.3     1  UNL1        0.0312
     17 C           6.7688   -0.1649   34.8868 C.ar    1  UNL1        0.0547
     18 C           7.3100   -0.7527   33.6173 C.2     1  UNL1        0.2586
     19 O           8.6794   -0.5195   33.0513 O.2     1  UNL1       -0.2692
     20 C           8.0385   -4.9584   27.2825 C.2     1  UNL1        0.2840
     21 O           9.2703   -4.4021   27.9332 O.2     1  UNL1       -0.2665
     22 N           6.6937   -4.7347   27.9081 N.am    1  UNL1       -0.2761
     23 H           5.8852   -5.0998   27.4811 H       1  UNL1        0.1553
     24 C           7.9788   -8.2099   27.0100 C.3     1  UNL1        0.0345
     25 C           8.1241   -7.2331   25.8811 C.ar    1  UNL1        0.0204
     26 C           8.2676   -7.5791   24.4286 C.ar    1  UNL1        0.0396
     27 C           8.3836   -6.2986   23.6562 C.ar    1  UNL1        0.1795
     28 O           8.3120   -5.1610   24.6313 O.2     1  UNL1       -0.4461
     29 C           8.1516   -5.7385   26.0063 C.ar    1  UNL1        0.1948
@<TRIPOS>BOND
     1    24    25    1
     2    25    26   ar
     3    26    27   ar
     4    27    28   ar
     5    28    29   ar
     6    29    20    1
     7    20    21    2
     8    20    22   am
     9    22     1    1
    10     1     2   ar
    11     2     3   ar
    12     3     4   ar
    13     4     8    1
    14     8     9   am
    15     9    10    2
    16     9    11    1
    17    11    12   ar
    18    12    13   ar
    19    13    14   ar
    20    14    15   ar
    21    15    16    1
    22    15    17   ar
    23    17    18    1
    24    18    19    2
    25     4     5   ar
    26     5     6   ar
    27     6     7    1
    28    29    25   ar
    29     6     1   ar
    30    18     8   am
    31    17    11   ar
    32    22    23    1
@<TRIPOS>MOLECULE
*****
 29 32 0 0 0
SMALL
GASTEIGER

@<TRIPOS>ATOM
      1 C          -2.2028    4.0049   25.0235 C.ar    1  UNL1        0.0785
      2 C          -1.8623    4.2126   23.5776 C.ar    1  UNL1        0.0183
      3 C          -0.8989    3.2884   22.8936 C.ar    1  UNL1        0.0168
      4 C          -0.2760    2.1565   23.6556 C.ar    1  UNL1        0.0636
      5 C          -0.6165    1.9488   25.1016 C.ar    1  UNL1        0.0462
      6 C          -1.5799    2.8730   25.7856 C.ar    1  UNL1        0.1547
      7 F          -1.9204    2.6652   27.2316 F       1  UNL1       -0.2028
      8 N           0.6873    1.2323   22.9717 N.am    1  UNL1       -0.2010
      9 C           0.5922    0.7511   21.5542 C.2     1  UNL1        0.2589
     10 O          -0.4831    1.1097   20.5717 O.2     1  UNL1       -0.2691
     11 C           1.7610   -0.1516   21.2916 C.ar    1  UNL1        0.0584
     12 C           2.1865   -0.9136   20.0716 C.ar    1  UNL1        0.0047
     13 C           3.4296   -1.7523   20.1070 C.ar    1  UNL1       -0.0002
     14 C           4.2472   -1.8290   21.3622 C.ar    1  UNL1       -0.0041
     15 C           3.8217   -1.0670   22.5822 C.ar    1  UNL1       -0.0173
     16 C           4.6393   -1.1437   23.8374 C.3     1  UNL1        0.0312
     17 C           2.5786   -0.2283   22.5468 C.ar    1  UNL1        0.0547
     18 C           1.9150    0.6270   23.5852 C.2     1  UNL1        0.2586
     19 O           2.3949    0.8396   24.9904 O.2     1  UNL1       -0.2692
     20 C          -4.6054    4.5345   25.8584 C.2     1  UNL1        0.2840
     21 O          -5.0813    3.2156   25.3254 O.2     1  UNL1       -0.2665
     22 N          -3.1661    4.9291   25.7075 N.am    1  UNL1       -0.2761
     23 H          -2.8538    5.7947   26.0573 H       1  UNL1        0.1553
     24 C          -7.3420    5.7531   24.5640 C.3     1  UNL1        0.0345
     25 C          -6.8267    6.0188   25.9473 C.ar    1  UNL1        0.0204
     26 C          -7.4787    6.8913   26.9787 C.ar    1  UNL1        0.0396
     27 C          -6.6238    6.8704   28.2110 C.ar    1  UNL1        0.1795
     28 O          -5.4434    5.9850   27.9413 O.2     1  UNL1       -0.4461
     29 C          -5.5687    5.4587   26.5423 C.ar    1  UNL1        0.1948
@<TRIPOS>BOND
     1    24    25    1
     2    25    26   ar
     3    26    27   ar
     4    27    28   ar
     5    28    29   ar
     6    29    20    1
     7    20    21    2
     8    20    22   am
     9    22     1    1
    10     1     2   ar
    11     2     3   ar
    12     3     4   ar
    13     4     8    1
    14     8     9   am
    15     9    10    2
    16     9    11    1
    17    11    12   ar
    18    12    13   ar
    19    13    14   ar
    20    14    15   ar
    21    15    16    1
    22    15    17   ar
    23    17    18    1
    24    18    19    2
    25     4     5   ar
    26     5     6   ar
    27     6     7    1
    28    29    25   ar
    29     6     1   ar
    30    18     8   am
    31    17    11   ar
    32    22    23    1
@<TRIPOS>MOLECULE
*****
 29 32 0 0 0
SMALL
GASTEIGER

@<TRIPOS>ATOM
      1 C           5.1507   -0.9390   34.6303 C.ar    1  UNL1        0.0785
      2 C           4.2511   -1.9758   34.0256 C.ar    1  UNL1        0.0183
      3 C           4.6917   -2.7330   32.8080 C.ar    1  UNL1        0.0168
      4 C           6.0319   -2.4534   32.1951 C.ar    1  UNL1        0.0636
      5 C           6.9315   -1.4166   32.7999 C.ar    1  UNL1        0.0462
      6 C           6.4909   -0.6594   34.0175 C.ar    1  UNL1        0.1547
      7 F           7.3906    0.3774   34.6222 F       1  UNL1       -0.2028
      8 N           6.4725   -3.2106   30.9775 N.am    1  UNL1       -0.2010
      9 C           6.8073   -4.6716   30.9211 C.2     1  UNL1        0.2589
     10 O           6.7604   -5.6321   32.0723 O.2     1  UNL1       -0.2691
     11 C           7.1974   -5.0037   29.5113 C.ar    1  UNL1        0.0584
     12 C           7.6258   -6.2874   28.8643 C.ar    1  UNL1        0.0047
     13 C           7.9605   -6.3152   27.4024 C.ar    1  UNL1       -0.0002
     14 C           7.8668   -5.0593   26.5875 C.ar    1  UNL1       -0.0041
     15 C           7.4384   -3.7757   27.2345 C.ar    1  UNL1       -0.0173
     16 C           7.3446   -2.5198   26.4196 C.3     1  UNL1        0.0312
     17 C           7.1037   -3.7479   28.6964 C.ar    1  UNL1        0.0547
     18 C           6.6557   -2.6397   29.6026 C.2     1  UNL1        0.2586
     19 O           6.4304   -1.2113   29.2038 O.2     1  UNL1       -0.2692
     20 C           3.9704    1.1144   35.6981 C.2     1  UNL1        0.2840
     21 O           3.6713    1.6536   34.3306 O.2     1  UNL1       -0.2665
     22 N           4.7102   -0.1818   35.8479 N.am    1  UNL1       -0.2761
     23 H           4.9065   -0.5357   36.7454 H       1  UNL1        0.1553
     24 C           5.9302    2.5354   37.8867 C.3     1  UNL1        0.0345
     25 C           4.4307    2.5248   37.9217 C.ar    1  UNL1        0.0204
     26 C           3.5686    3.1654   38.9688 C.ar    1  UNL1        0.0396
     27 C           2.1351    2.9082   38.6100 C.ar    1  UNL1        0.1795
     28 O           2.1111    2.1086   37.3411 O.2     1  UNL1       -0.4461
     29 C           3.5299    1.8716   36.9157 C.ar    1  UNL1        0.1948
@<TRIPOS>BOND
     1    24    25    1
     2    25    26   ar
     3    26    27   ar
     4    27    28   ar
     5    28    29   ar
     6    29    20    1
     7    20    21    2
     8    20    22   am
     9    22     1    1
    10     1     2   ar
    11     2     3   ar
    12     3     4   ar
    13     4     8    1
    14     8     9   am
    15     9    10    2
    16     9    11    1
    17    11    12   ar
    18    12    13   ar
    19    13    14   ar
    20    14    15   ar
    21    15    16    1
    22    15    17   ar
    23    17    18    1
    24    18    19    2
    25     4     5   ar
    26     5     6   ar
    27     6     7    1
    28    29    25   ar
    29     6     1   ar
    30    18     8   am
    31    17    11   ar
    32    22    23    1
@<TRIPOS>MOLECULE
*****
 29 32 0 0 0
SMALL
GASTEIGER

@<TRIPOS>ATOM
      1 C           5.1120   -0.4376   28.6884 C.ar    1  UNL1        0.0785
      2 C           6.2366   -0.3853   27.6971 C.ar    1  UNL1        0.0183
      3 C           6.0010   -0.7947   26.2734 C.ar    1  UNL1        0.0168
      4 C           4.6409   -1.2563   25.8410 C.ar    1  UNL1        0.0636
      5 C           3.5164   -1.3086   26.8322 C.ar    1  UNL1        0.0462
      6 C           3.7520   -0.8993   28.2559 C.ar    1  UNL1        0.1547
      7 F           2.6274   -0.9516   29.2472 F       1  UNL1       -0.2028
      8 N           4.4054   -1.6657   24.4173 N.am    1  UNL1       -0.2010
      9 C           5.0139   -2.8511   23.7285 C.2     1  UNL1        0.2589
     10 O           5.9648   -3.8354   24.3425 O.2     1  UNL1       -0.2691
     11 C           4.5046   -2.8796   22.3179 C.ar    1  UNL1        0.0584
     12 C           4.7622   -3.8180   21.1765 C.ar    1  UNL1        0.0047
     13 C           4.0966   -3.5886   19.8520 C.ar    1  UNL1       -0.0002
     14 C           3.1733   -2.4207   19.6690 C.ar    1  UNL1       -0.0041
     15 C           2.9156   -1.4822   20.8104 C.ar    1  UNL1       -0.0173
     16 C           1.9923   -0.3143   20.6273 C.3     1  UNL1        0.0312
     17 C           3.5813   -1.7117   22.1348 C.ar    1  UNL1        0.0547
     18 C           3.5200   -0.9615   23.4323 C.2     1  UNL1        0.2586
     19 O           2.7146    0.2758   23.6982 O.2     1  UNL1       -0.2692
     20 C           5.8465   -1.0324   31.1085 C.2     1  UNL1        0.2840
     21 O           6.1098   -2.4460   30.6811 O.2     1  UNL1       -0.2665
     22 N           5.3476   -0.0283   30.1121 N.am    1  UNL1       -0.2761
     23 H           5.1748    0.8995   30.3926 H       1  UNL1        0.1553
     24 C           4.3252   -2.2434   33.7293 C.3     1  UNL1        0.0345
     25 C           5.3827   -1.1797   33.7369 C.ar    1  UNL1        0.0204
     26 C           5.9268   -0.4858   34.9504 C.ar    1  UNL1        0.0396
     27 C           6.9622    0.4996   34.4957 C.ar    1  UNL1        0.1795
     28 O           7.0581    0.4148   33.0012 O.2     1  UNL1       -0.4461
     29 C           6.0820   -0.6231   32.5322 C.ar    1  UNL1        0.1948
@<TRIPOS>BOND
     1    24    25    1
     2    25    26   ar
     3    26    27   ar
     4    27    28   ar
     5    28    29   ar
     6    29    20    1
     7    20    21    2
     8    20    22   am
     9    22     1    1
    10     1     2   ar
    11     2     3   ar
    12     3     4   ar
    13     4     8    1
    14     8     9   am
    15     9    10    2
    16     9    11    1
    17    11    12   ar
    18    12    13   ar
    19    13    14   ar
    20    14    15   ar
    21    15    16    1
    22    15    17   ar
    23    17    18    1
    24    18    19    2
    25     4     5   ar
    26     5     6   ar
    27     6     7    1
    28    29    25   ar
    29     6     1   ar
    30    18     8   am
    31    17    11   ar
    32    22    23    1
@<TRIPOS>MOLECULE
*****
 29 32 0 0 0
SMALL
GASTEIGER

@<TRIPOS>ATOM
      1 C           0.6083    2.9327   28.7160 C.ar    1  UNL1        0.0785
      2 C           0.1370    4.3215   28.4012 C.ar    1  UNL1        0.0183
      3 C          -0.9630    4.5321   27.4033 C.ar    1  UNL1        0.0168
      4 C          -1.5917    3.3539   26.7203 C.ar    1  UNL1        0.0636
      5 C          -1.1204    1.9651   27.0352 C.ar    1  UNL1        0.0462
      6 C          -0.0204    1.7545   28.0330 C.ar    1  UNL1        0.1547
      7 F           0.4509    0.3657   28.3478 F       1  UNL1       -0.2028
      8 N          -2.6917    3.5644   25.7225 N.am    1  UNL1       -0.2010
      9 C          -4.1105    3.9340   26.0392 C.2     1  UNL1        0.2589
     10 O          -4.6785    4.1579   27.4093 O.2     1  UNL1       -0.2691
     11 C          -4.8617    4.0404   24.7452 C.ar    1  UNL1        0.0584
     12 C          -6.2916    4.3746   24.4393 C.ar    1  UNL1        0.0047
     13 C          -6.7669    4.4051   23.0169 C.ar    1  UNL1       -0.0002
     14 C          -5.8123    4.1013   21.9005 C.ar    1  UNL1       -0.0041
     15 C          -4.3824    3.7670   22.2064 C.ar    1  UNL1       -0.0173
     16 C          -3.4278    3.4632   21.0900 C.3     1  UNL1        0.0312
     17 C          -3.9071    3.7366   23.6287 C.ar    1  UNL1        0.0547
     18 C          -2.5660    3.4424   24.2328 C.2     1  UNL1        0.2586
     19 O          -1.3182    3.0884   23.4793 O.2     1  UNL1       -0.2692
     20 C           1.4087    2.0808   31.0362 C.2     1  UNL1        0.2840
     21 O           0.0090    1.6500   31.3609 O.2     1  UNL1       -0.2665
     22 N           1.7083    2.7222   29.7138 N.am    1  UNL1       -0.2761
     23 H           2.6270    3.0049   29.5008 H       1  UNL1        0.1553
     24 C           3.1928   -0.6298   31.3810 C.3     1  UNL1        0.0345
     25 C           3.3288    0.6242   32.1925 C.ar    1  UNL1        0.0204
     26 C           4.3086    0.8527   33.3051 C.ar    1  UNL1        0.0396
     27 C           4.0942    2.2398   33.8342 C.ar    1  UNL1        0.1795
     28 O           2.9818    2.8687   33.0487 O.2     1  UNL1       -0.4461
     29 C           2.5087    1.8703   32.0341 C.ar    1  UNL1        0.1948
@<TRIPOS>BOND
     1    24    25    1
     2    25    26   ar
     3    26    27   ar
     4    27    28   ar
     5    28    29   ar
     6    29    20    1
     7    20    21    2
     8    20    22   am
     9    22     1    1
    10     1     2   ar
    11     2     3   ar
    12     3     4   ar
    13     4     8    1
    14     8     9   am
    15     9    10    2
    16     9    11    1
    17    11    12   ar
    18    12    13   ar
    19    13    14   ar
    20    14    15   ar
    21    15    16    1
    22    15    17   ar
    23    17    18    1
    24    18    19    2
    25     4     5   ar
    26     5     6   ar
    27     6     7    1
    28    29    25   ar
    29     6     1   ar
    30    18     8   am
    31    17    11   ar
    32    22    23    1
@<TRIPOS>MOLECULE
*****
 29 32 0 0 0
SMALL
GASTEIGER

@<TRIPOS>ATOM
      1 C           6.3999   -1.6792   31.9143 C.ar    1  UNL1        0.0785
      2 C           7.5088   -2.6885   31.9560 C.ar    1  UNL1        0.0183
      3 C           7.7857   -3.5484   30.7586 C.ar    1  UNL1        0.0168
      4 C           6.9538   -3.3991   29.5194 C.ar    1  UNL1        0.0636
      5 C           5.8450   -2.3898   29.4777 C.ar    1  UNL1        0.0462
      6 C           5.5680   -1.5299   30.6751 C.ar    1  UNL1        0.1547
      7 F           4.4591   -0.5206   30.6333 F       1  UNL1       -0.2028
      8 N           7.2308   -4.2590   28.3220 N.am    1  UNL1       -0.2010
      9 C           7.2310   -3.8058   26.8921 C.2     1  UNL1        0.2589
     10 O           6.9543   -2.4131   26.4085 O.2     1  UNL1       -0.2691
     11 C           7.5565   -4.9898   26.0306 C.ar    1  UNL1        0.0584
     12 C           7.6958   -5.1420   24.5448 C.ar    1  UNL1        0.0047
     13 C           8.0362   -6.4792   23.9566 C.ar    1  UNL1       -0.0002
     14 C           8.2371   -7.6641   24.8541 C.ar    1  UNL1       -0.0041
     15 C           8.0978   -7.5119   26.3398 C.ar    1  UNL1       -0.0173
     16 C           8.2988   -8.6969   27.2372 C.3     1  UNL1        0.0312
     17 C           7.7575   -6.1748   26.9280 C.ar    1  UNL1        0.0547
     18 C           7.5562   -5.7231   28.3442 C.2     1  UNL1        0.2586
     19 O           7.6617   -6.5844   29.5677 O.2     1  UNL1       -0.2692
     20 C           4.9382   -1.1086   33.9849 C.2     1  UNL1        0.2840
     21 O           4.0303   -2.2579   33.6608 O.2     1  UNL1       -0.2665
     22 N           6.1230   -0.8193   33.1117 N.am    1  UNL1       -0.2761
     23 H           6.7188   -0.0650   33.3245 H       1  UNL1        0.1553
     24 C           3.2980    1.7126   33.9824 C.3     1  UNL1        0.0345
     25 C           3.9073    1.0481   35.1812 C.ar    1  UNL1        0.0204
     26 C           3.8697    1.5637   36.5893 C.ar    1  UNL1        0.0396
     27 C           4.6004    0.5855   37.4608 C.ar    1  UNL1        0.1795
     28 O           5.0896   -0.5345   36.5912 O.2     1  UNL1       -0.4461
     29 C           4.6613   -0.2487   35.1824 C.ar    1  UNL1        0.1948
@<TRIPOS>BOND
     1    24    25    1
     2    25    26   ar
     3    26    27   ar
     4    27    28   ar
     5    28    29   ar
     6    29    20    1
     7    20    21    2
     8    20    22   am
     9    22     1    1
    10     1     2   ar
    11     2     3   ar
    12     3     4   ar
    13     4     8    1
    14     8     9   am
    15     9    10    2
    16     9    11    1
    17    11    12   ar
    18    12    13   ar
    19    13    14   ar
    20    14    15   ar
    21    15    16    1
    22    15    17   ar
    23    17    18    1
    24    18    19    2
    25     4     5   ar
    26     5     6   ar
    27     6     7    1
    28    29    25   ar
    29     6     1   ar
    30    18     8   am
    31    17    11   ar
    32    22    23    1
@<TRIPOS>MOLECULE
*****
 29 32 0 0 0
SMALL
GASTEIGER

@<TRIPOS>ATOM
      1 C           0.1219    2.8902   27.9155 C.ar    1  UNL1        0.0785
      2 C           0.0017    1.8028   26.8893 C.ar    1  UNL1        0.0183
      3 C          -0.8887    1.9918   25.6970 C.ar    1  UNL1        0.0168
      4 C          -1.6590    3.2681   25.5310 C.ar    1  UNL1        0.0636
      5 C          -1.5388    4.3555   26.5572 C.ar    1  UNL1        0.0462
      6 C          -0.6484    4.1665   27.7494 C.ar    1  UNL1        0.1547
      7 F          -0.5282    5.2540   28.7756 F       1  UNL1       -0.2028
      8 N          -2.5494    3.4571   24.3388 N.am    1  UNL1       -0.2010
      9 C          -2.1058    3.5128   22.9070 C.2     1  UNL1        0.2589
     10 O          -0.6938    3.3895   22.4160 O.2     1  UNL1       -0.2691
     11 C          -3.3220    3.7137   22.0523 C.ar    1  UNL1        0.0584
     12 C          -3.4955    3.8431   20.5680 C.ar    1  UNL1        0.0047
     13 C          -4.8643    4.0409   19.9873 C.ar    1  UNL1       -0.0002
     14 C          -6.0596    4.1093   20.8909 C.ar    1  UNL1       -0.0041
     15 C          -5.8862    3.9798   22.3752 C.ar    1  UNL1       -0.0173
     16 C          -7.0815    4.0482   23.2788 C.3     1  UNL1        0.0312
     17 C          -4.5174    3.7820   22.9559 C.ar    1  UNL1        0.0547
     18 C          -4.0399    3.6234   24.3690 C.2     1  UNL1        0.2586
     19 O          -4.9016    3.6300   25.5968 O.2     1  UNL1       -0.2692
     20 C           0.6437    1.7075   30.1691 C.2     1  UNL1        0.2840
     21 O          -0.6153    0.9027   30.0383 O.2     1  UNL1       -0.2665
     22 N           1.0123    2.7012   29.1077 N.am    1  UNL1       -0.2761
     23 H           1.8387    3.2295   29.1935 H       1  UNL1        0.1553
     24 C           0.8892    3.7287   32.7194 C.3     1  UNL1        0.0345
     25 C           1.6470    2.4476   32.5336 C.ar    1  UNL1        0.0204
     26 C           2.6507    1.8706   33.4874 C.ar    1  UNL1        0.0396
     27 C           3.1582    0.5850   32.9046 C.ar    1  UNL1        0.1795
     28 O           2.4681    0.3674   31.5906 O.2     1  UNL1       -0.4461
     29 C           1.5342    1.5186   31.3613 C.ar    1  UNL1        0.1948
@<TRIPOS>BOND
     1    24    25    1
     2    25    26   ar
     3    26    27   ar
     4    27    28   ar
     5    28    29   ar
     6    29    20    1
     7    20    21    2
     8    20    22   am
     9    22     1    1
    10     1     2   ar
    11     2     3   ar
    12     3     4   ar
    13     4     8    1
    14     8     9   am
    15     9    10    2
    16     9    11    1
    17    11    12   ar
    18    12    13   ar
    19    13    14   ar
    20    14    15   ar
    21    15    16    1
    22    15    17   ar
    23    17    18    1
    24    18    19    2
    25     4     5   ar
    26     5     6   ar
    27     6     7    1
    28    29    25   ar
    29     6     1   ar
    30    18     8   am
    31    17    11   ar
    32    22    23    1
@<TRIPOS>MOLECULE
*****
 29 32 0 0 0
SMALL
GASTEIGER

@<TRIPOS>ATOM
      1 C          -1.7848    3.7554   21.2862 C.ar    1  UNL1        0.0785
      2 C          -1.5409    3.7792   19.8063 C.ar    1  UNL1        0.0183
      3 C          -0.3775    3.0313   19.2258 C.ar    1  UNL1        0.0168
      4 C           0.5422    2.2596   20.1251 C.ar    1  UNL1        0.0636
      5 C           0.2983    2.2358   21.6049 C.ar    1  UNL1        0.0462
      6 C          -0.8651    2.9837   22.1854 C.ar    1  UNL1        0.1547
      7 F          -1.1089    2.9599   23.6654 F       1  UNL1       -0.2028
      8 N           1.7056    1.5118   19.5445 N.am    1  UNL1       -0.2010
      9 C           2.8280    2.1079   18.7478 C.2     1  UNL1        0.2589
     10 O           2.9841    3.5567   18.3917 O.2     1  UNL1       -0.2691
     11 C           3.7671    1.0010   18.3696 C.ar    1  UNL1        0.0584
     12 C           5.0457    0.9935   17.5854 C.ar    1  UNL1        0.0047
     13 C           5.7822   -0.2943   17.3641 C.ar    1  UNL1       -0.0002
     14 C           5.2401   -1.5746   17.9271 C.ar    1  UNL1       -0.0041
     15 C           3.9616   -1.5671   18.7114 C.ar    1  UNL1       -0.0173
     16 C           3.4195   -2.8474   19.2744 C.3     1  UNL1        0.0312
     17 C           3.2250   -0.2793   18.9327 C.ar    1  UNL1        0.0547
     18 C           1.9510    0.0364   19.6588 C.2     1  UNL1        0.2586
     19 O           1.0760   -0.9502   20.3736 O.2     1  UNL1       -0.2692
     20 C          -4.3015    3.8588   21.9226 C.2     1  UNL1        0.2840
     21 O          -4.4914    2.4664   21.3979 O.2     1  UNL1       -0.2665
     22 N          -2.9482    4.5033   21.8667 N.am    1  UNL1       -0.2761
     23 H          -2.8236    5.4171   22.2111 H       1  UNL1        0.1553
     24 C          -5.2532    3.8028   25.0436 C.3     1  UNL1        0.0345
     25 C          -5.9024    4.5809   23.9378 C.ar    1  UNL1        0.0204
     26 C          -7.1031    5.4699   24.0723 C.ar    1  UNL1        0.0396
     27 C          -7.4077    6.0451   22.7208 C.ar    1  UNL1        0.1795
     28 O          -6.3953    5.5116   21.7511 O.2     1  UNL1       -0.4461
     29 C          -5.4650    4.6067   22.5032 C.ar    1  UNL1        0.1948
@<TRIPOS>BOND
     1    24    25    1
     2    25    26   ar
     3    26    27   ar
     4    27    28   ar
     5    28    29   ar
     6    29    20    1
     7    20    21    2
     8    20    22   am
     9    22     1    1
    10     1     2   ar
    11     2     3   ar
    12     3     4   ar
    13     4     8    1
    14     8     9   am
    15     9    10    2
    16     9    11    1
    17    11    12   ar
    18    12    13   ar
    19    13    14   ar
    20    14    15   ar
    21    15    16    1
    22    15    17   ar
    23    17    18    1
    24    18    19    2
    25     4     5   ar
    26     5     6   ar
    27     6     7    1
    28    29    25   ar
    29     6     1   ar
    30    18     8   am
    31    17    11   ar
    32    22    23    1
@<TRIPOS>MOLECULE
*****
 29 32 0 0 0
SMALL
GASTEIGER

@<TRIPOS>ATOM
      1 C           4.3045   -0.0228   28.9199 C.ar    1  UNL1        0.0785
      2 C           4.2404   -1.3969   28.3218 C.ar    1  UNL1        0.0183
      3 C           3.9301   -1.5667   26.8641 C.ar    1  UNL1        0.0168
      4 C           3.6840   -0.3624   26.0045 C.ar    1  UNL1        0.0636
      5 C           3.7481    1.0117   26.6025 C.ar    1  UNL1        0.0462
      6 C           4.0584    1.1815   28.0602 C.ar    1  UNL1        0.1547
      7 F           4.1225    2.5557   28.6583 F       1  UNL1       -0.2028
      8 N           3.3738   -0.5322   24.5468 N.am    1  UNL1       -0.2010
      9 C           4.0996   -1.4305   23.5896 C.2     1  UNL1        0.2589
     10 O           5.2631   -2.3169   23.9222 O.2     1  UNL1       -0.2691
     11 C           3.4577   -1.2870   22.2416 C.ar    1  UNL1        0.0584
     12 C           3.7503   -1.9276   20.9172 C.ar    1  UNL1        0.0047
     13 C           2.9203   -1.5811   19.7168 C.ar    1  UNL1       -0.0002
     14 C           1.7977   -0.5940   19.8408 C.ar    1  UNL1       -0.0041
     15 C           1.5051    0.0466   21.1651 C.ar    1  UNL1       -0.0173
     16 C           0.3824    1.0337   21.2891 C.3     1  UNL1        0.0312
     17 C           2.3350   -0.2999   22.3655 C.ar    1  UNL1        0.0547
     18 C           2.2832    0.1666   23.7902 C.2     1  UNL1        0.2586
     19 O           1.3114    1.1579   24.3585 O.2     1  UNL1       -0.2692
     20 C           3.6165   -0.2819   31.4118 C.2     1  UNL1        0.2840
     21 O           2.3080   -0.8807   30.9883 O.2     1  UNL1       -0.2665
     22 N           4.6148    0.1470   30.3776 N.am    1  UNL1       -0.2761
     23 H           5.4736    0.5400   30.6556 H       1  UNL1        0.1553
     24 C           4.5222   -2.6482   33.4685 C.3     1  UNL1        0.0345
     25 C           4.3431   -1.1999   33.8149 C.ar    1  UNL1        0.0204
     26 C           4.5488   -0.5848   35.1674 C.ar    1  UNL1        0.0396
     27 C           4.2597    0.8830   35.0580 C.ar    1  UNL1        0.1795
     28 O           3.8753    1.1751   33.6378 O.2     1  UNL1       -0.4461
     29 C           3.9268   -0.1122   32.8695 C.ar    1  UNL1        0.1948
@<TRIPOS>BOND
     1    24    25    1
     2    25    26   ar
     3    26    27   ar
     4    27    28   ar
     5    28    29   ar
     6    29    20    1
     7    20    21    2
     8    20    22   am
     9    22     1    1
    10     1     2   ar
    11     2     3   ar
    12     3     4   ar
    13     4     8    1
    14     8     9   am
    15     9    10    2
    16     9    11    1
    17    11    12   ar
    18    12    13   ar
    19    13    14   ar
    20    14    15   ar
    21    15    16    1
    22    15    17   ar
    23    17    18    1
    24    18    19    2
    25     4     5   ar
    26     5     6   ar
    27     6     7    1
    28    29    25   ar
    29     6     1   ar
    30    18     8   am
    31    17    11   ar
    32    22    23    1
