@<TRIPOS>MOLECULE
*****
 31 34 0 0 0
SMALL
GASTEIGER

@<TRIPOS>ATOM
      1 C           2.2561   -0.0297   19.0723 C.ar    1  UNL1        0.1104
      2 C           2.4178   -1.1222   20.0874 C.ar    1  UNL1        0.0185
      3 C           3.4733   -2.1712   19.8987 C.ar    1  UNL1       -0.0013
      4 C           4.3671   -2.1277   18.6949 C.ar    1  UNL1       -0.0025
      5 C           4.2054   -1.0354   17.6797 C.ar    1  UNL1       -0.0013
      6 C           3.1499    0.0137   17.8684 C.ar    1  UNL1        0.0185
      7 S           1.2007    1.0192   19.2610 S.O2    1  UNL1        0.0305
      8 O           1.9472    1.9364   18.3382 O.2     1  UNL1       -0.1641
      9 O           0.4542    0.1021   20.1837 O.2     1  UNL1       -0.1641
     10 N          -1.6679    3.3741   20.3972 N.ar    1  UNL1       -0.2481
     11 C          -0.7809    2.1859   20.6238 C.ar    1  UNL1        0.1154
     12 C           0.1452    2.0682   19.4497 C.ar    1  UNL1        0.1497
     13 C          -0.1694    3.1836   18.4974 C.ar    1  UNL1        0.1404
     14 N          -1.2900    3.9907   19.0830 N.ar    1  UNL1       -0.1662
     15 C          -2.7439    3.8603   21.3223 C.3     1  UNL1        0.1276
     16 C          -4.9784    3.1839   22.4623 C.3     1  UNL1        0.0021
     17 C          -4.1267    3.2862   21.2317 C.3     1  UNL1        0.0264
     18 C           5.4225   -3.1768   18.5062 C.3     1  UNL1        0.1167
     19 N           5.8476   -4.0298   19.6645 N.am    1  UNL1       -0.2944
     20 C           7.0232   -3.6241   20.5031 C.2     1  UNL1        0.2808
     21 O           7.7737   -2.3653   20.1835 O.2     1  UNL1       -0.2668
     22 H           5.3550   -4.8560   19.8743 H       1  UNL1        0.1501
     23 C           7.4483   -4.4771   21.6614 C.ar    1  UNL1        0.1984
     24 C           7.0631   -4.2710   23.0964 C.ar    1  UNL1        0.0453
     25 C           7.7100   -5.3525   23.9100 C.ar    1  UNL1        0.0409
     26 C           7.6856   -5.6540   25.3791 C.ar    1  UNL1        0.0238
     27 C           8.4462   -6.8300   25.9161 C.ar    1  UNL1        0.0991
     28 N           9.2312   -7.7046   24.9839 N.ar    1  UNL1       -0.2391
     29 C           9.2555   -7.4032   23.5148 C.ar    1  UNL1        0.1362
     30 C           8.4949   -6.2271   22.9778 C.ar    1  UNL1        0.1646
     31 O           8.3332   -5.6861   21.5881 O.2     1  UNL1       -0.4473
@<TRIPOS>BOND
     1    16    17    1
     2    17    15    1
     3    15    10    1
     4    10    11   ar
     5    11    12   ar
     6    12     7    1
     7     7     8    2
     8     7     9    2
     9     7     1    1
    10     1     2   ar
    11     2     3   ar
    12     3     4   ar
    13     4    18    1
    14    18    19    1
    15    19    20   am
    16    20    21    2
    17    20    23    1
    18    23    24   ar
    19    24    25   ar
    20    25    26   ar
    21    26    27   ar
    22    27    28   ar
    23    28    29   ar
    24    29    30   ar
    25    30    31   ar
    26     4     5   ar
    27     5     6   ar
    28    12    13   ar
    29    13    14   ar
    30    14    10   ar
    31     6     1   ar
    32    31    23   ar
    33    30    25   ar
    34    19    22    1
@<TRIPOS>MOLECULE
*****
 31 34 0 0 0
SMALL
GASTEIGER

@<TRIPOS>ATOM
      1 C           4.1150   -2.1277   22.0521 C.ar    1  UNL1        0.1104
      2 C           3.9105   -2.4411   20.5995 C.ar    1  UNL1        0.0185
      3 C           2.8746   -1.6967   19.8103 C.ar    1  UNL1       -0.0013
      4 C           2.0433   -0.6389   20.4736 C.ar    1  UNL1       -0.0025
      5 C           2.2478   -0.3255   21.9261 C.ar    1  UNL1       -0.0013
      6 C           3.2837   -1.0699   22.7154 C.ar    1  UNL1        0.0185
      7 S           5.1509   -2.8720   22.8413 S.O2    1  UNL1        0.0305
      8 O           5.6260   -1.5798   23.4365 O.2     1  UNL1       -0.1641
      9 O           4.6758   -4.1643   22.2461 O.2     1  UNL1       -0.1641
     10 N           8.0333   -5.0793   24.2142 N.ar    1  UNL1       -0.2481
     11 C           7.2042   -4.5675   23.0737 C.ar    1  UNL1        0.1154
     12 C           6.1867   -3.6164   23.6305 C.ar    1  UNL1        0.1497
     13 C           6.3869   -3.5403   25.1151 C.ar    1  UNL1        0.1404
     14 N           7.5282   -4.4444   25.4759 N.ar    1  UNL1       -0.1662
     15 C           9.1682   -6.0547   24.1111 C.3     1  UNL1        0.1276
     16 C           8.7500   -8.0288   25.7476 C.3     1  UNL1        0.0021
     17 C           8.9255   -7.5157   24.3491 C.3     1  UNL1        0.0264
     18 C           1.0074    0.1055   19.6843 C.3     1  UNL1        0.1167
     19 N          -0.1743    0.7116   20.3815 N.am    1  UNL1       -0.2944
     20 C          -0.2768    2.2010   20.5267 C.2     1  UNL1        0.2808
     21 O           0.8025    3.0843   19.9746 O.2     1  UNL1       -0.2668
     22 H          -0.8827    0.1318   20.7439 H       1  UNL1        0.1501
     23 C          -1.4585    2.8071   21.2239 C.ar    1  UNL1        0.1984
     24 C          -1.4217    3.5889   22.5035 C.ar    1  UNL1        0.0453
     25 C          -2.8250    4.0028   22.8344 C.ar    1  UNL1        0.0409
     26 C          -3.3964    4.7907   23.9757 C.ar    1  UNL1        0.0238
     27 C          -4.8718    5.0525   24.0420 C.ar    1  UNL1        0.0991
     28 N          -5.7759    4.5265   22.9669 N.ar    1  UNL1       -0.2391
     29 C          -5.2046    3.7386   21.8255 C.ar    1  UNL1        0.1362
     30 C          -3.7291    3.4767   21.7593 C.ar    1  UNL1        0.1646
     31 O          -2.8846    2.7378   20.7640 O.2     1  UNL1       -0.4473
@<TRIPOS>BOND
     1    16    17    1
     2    17    15    1
     3    15    10    1
     4    10    11   ar
     5    11    12   ar
     6    12     7    1
     7     7     8    2
     8     7     9    2
     9     7     1    1
    10     1     2   ar
    11     2     3   ar
    12     3     4   ar
    13     4    18    1
    14    18    19    1
    15    19    20   am
    16    20    21    2
    17    20    23    1
    18    23    24   ar
    19    24    25   ar
    20    25    26   ar
    21    26    27   ar
    22    27    28   ar
    23    28    29   ar
    24    29    30   ar
    25    30    31   ar
    26     4     5   ar
    27     5     6   ar
    28    12    13   ar
    29    13    14   ar
    30    14    10   ar
    31     6     1   ar
    32    31    23   ar
    33    30    25   ar
    34    19    22    1
@<TRIPOS>MOLECULE
*****
 31 34 0 0 0
SMALL
GASTEIGER

@<TRIPOS>ATOM
      1 C         -16.9163    2.7154   21.7741 C.ar    1  UNL1        0.1104
      2 C         -15.9664    3.3602   20.8086 C.ar    1  UNL1        0.0185
      3 C         -15.5312    2.6212   19.5780 C.ar    1  UNL1       -0.0013
      4 C         -16.0459    1.2374   19.3128 C.ar    1  UNL1       -0.0025
      5 C         -16.9957    0.5927   20.2782 C.ar    1  UNL1       -0.0013
      6 C         -17.4309    1.3317   21.5089 C.ar    1  UNL1        0.0185
      7 S         -17.3514    3.4545   23.0047 S.O2    1  UNL1        0.0305
      8 O         -17.2056    4.7565   22.2743 O.2     1  UNL1       -0.1641
      9 O         -17.4972    2.1524   23.7350 O.2     1  UNL1       -0.1641
     10 N         -17.7593    5.5932   26.2179 N.ar    1  UNL1       -0.2481
     11 C         -16.9147    5.0525   25.1024 C.ar    1  UNL1        0.1154
     12 C         -17.7866    4.1935   24.2353 C.ar    1  UNL1        0.1497
     13 C         -19.1701    4.2033   24.8148 C.ar    1  UNL1        0.1404
     14 N         -19.1533    5.0683   26.0401 N.ar    1  UNL1       -0.1662
     15 C         -17.2921    6.4995   27.3180 C.3     1  UNL1        0.1276
     16 C         -17.9974    5.8136   29.7226 C.3     1  UNL1        0.0021
     17 C         -16.9437    5.9305   28.6615 C.3     1  UNL1        0.0264
     18 C         -15.6106    0.4984   18.0821 C.3     1  UNL1        0.1167
     19 N         -14.9148   -0.8245   18.2084 N.am    1  UNL1       -0.2944
     20 C         -13.4249   -0.8754   18.3736 C.2     1  UNL1        0.2808
     21 O         -12.6307    0.3965   18.4125 O.2     1  UNL1       -0.2668
     22 H         -15.4361   -1.6592   18.1828 H       1  UNL1        0.1501
     23 C         -12.7291   -2.1982   18.4999 C.ar    1  UNL1        0.1984
     24 C         -11.2543   -2.4051   18.6799 C.ar    1  UNL1        0.0453
     25 C         -10.9996   -3.8812   18.7596 C.ar    1  UNL1        0.0409
     26 C          -9.7384   -4.6741   18.9343 C.ar    1  UNL1        0.0238
     27 C          -9.7945   -6.1724   18.9784 C.ar    1  UNL1        0.0991
     28 N         -11.1118   -6.8778   18.8477 N.ar    1  UNL1       -0.2391
     29 C         -12.3731   -6.0849   18.6730 C.ar    1  UNL1        0.1362
     30 C         -12.3170   -4.5866   18.6289 C.ar    1  UNL1        0.1646
     31 O         -13.3858   -3.5465   18.4684 O.2     1  UNL1       -0.4473
@<TRIPOS>BOND
     1    16    17    1
     2    17    15    1
     3    15    10    1
     4    10    11   ar
     5    11    12   ar
     6    12     7    1
     7     7     8    2
     8     7     9    2
     9     7     1    1
    10     1     2   ar
    11     2     3   ar
    12     3     4   ar
    13     4    18    1
    14    18    19    1
    15    19    20   am
    16    20    21    2
    17    20    23    1
    18    23    24   ar
    19    24    25   ar
    20    25    26   ar
    21    26    27   ar
    22    27    28   ar
    23    28    29   ar
    24    29    30   ar
    25    30    31   ar
    26     4     5   ar
    27     5     6   ar
    28    12    13   ar
    29    13    14   ar
    30    14    10   ar
    31     6     1   ar
    32    31    23   ar
    33    30    25   ar
    34    19    22    1
@<TRIPOS>MOLECULE
*****
 31 34 0 0 0
SMALL
GASTEIGER

@<TRIPOS>ATOM
      1 C           6.5169   -3.8471   27.6806 C.ar    1  UNL1        0.1104
      2 C           6.8439   -5.0433   28.5245 C.ar    1  UNL1        0.0185
      3 C           6.8430   -4.9290   30.0201 C.ar    1  UNL1       -0.0013
      4 C           6.5151   -3.6184   30.6719 C.ar    1  UNL1       -0.0025
      5 C           6.1881   -2.4222   29.8281 C.ar    1  UNL1       -0.0013
      6 C           6.1890   -2.5365   28.3324 C.ar    1  UNL1        0.0185
      7 S           6.5177   -3.9614   26.1850 S.O2    1  UNL1        0.0305
      8 O           6.3316   -2.4774   26.0714 O.2     1  UNL1       -0.1641
      9 O           6.7038   -5.4455   26.2986 O.2     1  UNL1       -0.1641
     10 N           5.9428   -3.7741   22.3510 N.ar    1  UNL1       -0.2481
     11 C           5.5853   -3.3702   23.7506 C.ar    1  UNL1        0.1154
     12 C           6.5186   -4.0758   24.6894 C.ar    1  UNL1        0.1497
     13 C           7.4528   -4.9158   23.8699 C.ar    1  UNL1        0.1404
     14 N           7.0970   -4.7294   22.4247 N.ar    1  UNL1       -0.1662
     15 C           5.2651   -3.3052   21.0977 C.3     1  UNL1        0.1276
     16 C           4.6171   -4.6903   18.9973 C.3     1  UNL1        0.0021
     17 C           4.3036   -4.2074   20.3824 C.3     1  UNL1        0.0264
     18 C           6.5143   -3.5041   32.1676 C.3     1  UNL1        0.1167
     19 N           6.1388   -2.2068   32.8204 N.am    1  UNL1       -0.2944
     20 C           4.8226   -2.0766   33.5279 C.2     1  UNL1        0.2808
     21 O           3.8819   -3.2436   33.5826 O.2     1  UNL1       -0.2668
     22 H           6.7563   -1.4409   32.7845 H       1  UNL1        0.1501
     23 C           4.4471   -0.7794   34.1807 C.ar    1  UNL1        0.1984
     24 C           4.8333   -0.3437   35.5631 C.ar    1  UNL1        0.0453
     25 C           4.2444    1.0149   35.8025 C.ar    1  UNL1        0.0409
     26 C           4.2943    1.9363   36.9851 C.ar    1  UNL1        0.0238
     27 C           3.5941    3.2617   36.9332 C.ar    1  UNL1        0.0991
     28 N           2.8440    3.6659   35.6987 N.ar    1  UNL1       -0.2391
     29 C           2.7941    2.7445   34.5161 C.ar    1  UNL1        0.1362
     30 C           3.4943    1.4190   34.5680 C.ar    1  UNL1        0.1646
     31 O           3.6196    0.3101   33.5657 O.2     1  UNL1       -0.4473
@<TRIPOS>BOND
     1    16    17    1
     2    17    15    1
     3    15    10    1
     4    10    11   ar
     5    11    12   ar
     6    12     7    1
     7     7     8    2
     8     7     9    2
     9     7     1    1
    10     1     2   ar
    11     2     3   ar
    12     3     4   ar
    13     4    18    1
    14    18    19    1
    15    19    20   am
    16    20    21    2
    17    20    23    1
    18    23    24   ar
    19    24    25   ar
    20    25    26   ar
    21    26    27   ar
    22    27    28   ar
    23    28    29   ar
    24    29    30   ar
    25    30    31   ar
    26     4     5   ar
    27     5     6   ar
    28    12    13   ar
    29    13    14   ar
    30    14    10   ar
    31     6     1   ar
    32    31    23   ar
    33    30    25   ar
    34    19    22    1
@<TRIPOS>MOLECULE
*****
 31 34 0 0 0
SMALL
GASTEIGER

@<TRIPOS>ATOM
      1 C           0.8185    1.3001   19.5106 C.ar    1  UNL1        0.1104
      2 C           0.7820    0.1801   20.5079 C.ar    1  UNL1        0.0185
      3 C           1.8143   -0.9067   20.4532 C.ar    1  UNL1       -0.0013
      4 C           2.8831   -0.8738   19.4013 C.ar    1  UNL1       -0.0025
      5 C           2.9197    0.2461   18.4041 C.ar    1  UNL1       -0.0013
      6 C           1.8873    1.3331   18.4587 C.ar    1  UNL1        0.0185
      7 S          -0.2138    2.3870   19.5653 S.O2    1  UNL1        0.0305
      8 O           0.3745    3.0077   18.3330 O.2     1  UNL1       -0.1641
      9 O          -0.8021    1.7662   20.7976 O.2     1  UNL1       -0.1641
     10 N          -3.3418    4.6523   19.9514 N.ar    1  UNL1       -0.2481
     11 C          -2.6734    3.3133   20.0522 C.ar    1  UNL1        0.1154
     12 C          -1.2460    3.4738   19.6199 C.ar    1  UNL1        0.1497
     13 C          -1.0322    4.9122   19.2520 C.ar    1  UNL1        0.1404
     14 N          -2.3274    5.6405   19.4568 N.ar    1  UNL1       -0.1662
     15 C          -4.7731    4.9508   20.2863 C.3     1  UNL1        0.1276
     16 C          -6.2541    3.3557   18.8677 C.3     1  UNL1        0.0021
     17 C          -5.8046    3.8647   20.2052 C.3     1  UNL1        0.0264
     18 C           3.9154   -1.9607   19.3467 C.3     1  UNL1        0.1167
     19 N           4.7653   -2.2490   20.5486 N.am    1  UNL1       -0.2944
     20 C           4.8337   -3.6413   21.1024 C.2     1  UNL1        0.2808
     21 O           4.0521   -4.7454   20.4543 O.2     1  UNL1       -0.2668
     22 H           5.2783   -1.5243   20.9740 H       1  UNL1        0.1501
     23 C           5.6836   -3.9295   22.3043 C.ar    1  UNL1        0.1984
     24 C           5.4398   -3.4289   23.6971 C.ar    1  UNL1        0.0453
     25 C           6.5320   -3.9589   24.5781 C.ar    1  UNL1        0.0409
     26 C           6.8086   -3.7944   26.0431 C.ar    1  UNL1        0.0238
     27 C           8.0041   -4.4581   26.6598 C.ar    1  UNL1        0.0991
     28 N           8.9229   -5.2863   25.8115 N.ar    1  UNL1       -0.2391
     29 C           8.6463   -5.4509   24.3464 C.ar    1  UNL1        0.1362
     30 C           7.4509   -4.7871   23.7297 C.ar    1  UNL1        0.1646
     31 O           6.9265   -4.7689   22.3245 O.2     1  UNL1       -0.4473
@<TRIPOS>BOND
     1    16    17    1
     2    17    15    1
     3    15    10    1
     4    10    11   ar
     5    11    12   ar
     6    12     7    1
     7     7     8    2
     8     7     9    2
     9     7     1    1
    10     1     2   ar
    11     2     3   ar
    12     3     4   ar
    13     4    18    1
    14    18    19    1
    15    19    20   am
    16    20    21    2
    17    20    23    1
    18    23    24   ar
    19    24    25   ar
    20    25    26   ar
    21    26    27   ar
    22    27    28   ar
    23    28    29   ar
    24    29    30   ar
    25    30    31   ar
    26     4     5   ar
    27     5     6   ar
    28    12    13   ar
    29    13    14   ar
    30    14    10   ar
    31     6     1   ar
    32    31    23   ar
    33    30    25   ar
    34    19    22    1
@<TRIPOS>MOLECULE
*****
 31 34 0 0 0
SMALL
GASTEIGER

@<TRIPOS>ATOM
      1 C           2.1950   -0.2097   20.7647 C.ar    1  UNL1        0.1104
      2 C           2.5635   -0.2094   22.2188 C.ar    1  UNL1        0.0185
      3 C           3.5086   -1.2443   22.7532 C.ar    1  UNL1       -0.0013
      4 C           4.0852   -2.2796   21.8336 C.ar    1  UNL1       -0.0025
      5 C           3.7167   -2.2800   20.3796 C.ar    1  UNL1       -0.0013
      6 C           2.7716   -1.2450   19.8451 C.ar    1  UNL1        0.0185
      7 S           1.2499    0.8252   20.2303 S.O2    1  UNL1        0.0305
      8 O           2.3824    1.4809   19.4973 O.2     1  UNL1       -0.1641
      9 O           0.1173    0.1695   20.9633 O.2     1  UNL1       -0.1641
     10 N          -1.5571    3.4049   19.5014 N.ar    1  UNL1       -0.2481
     11 C          -0.9100    2.3911   20.3977 C.ar    1  UNL1        0.1154
     12 C           0.3048    1.8601   19.6959 C.ar    1  UNL1        0.1497
     13 C           0.4085    2.5459   18.3659 C.ar    1  UNL1        0.1404
     14 N          -0.7422    3.5006   18.2456 N.ar    1  UNL1       -0.1662
     15 C          -2.8006    4.1860   19.8071 C.3     1  UNL1        0.1276
     16 C          -4.4287    3.2599   21.6076 C.3     1  UNL1        0.0021
     17 C          -4.0677    3.4682   20.1667 C.3     1  UNL1        0.0264
     18 C           5.0304   -3.3146   22.3681 C.3     1  UNL1        0.1167
     19 N           5.2000   -3.4819   23.8491 N.am    1  UNL1       -0.2944
     20 C           6.4061   -4.1904   24.3905 C.2     1  UNL1        0.2808
     21 O           7.4426   -4.7316   23.4510 O.2     1  UNL1       -0.2668
     22 H           4.5197   -3.1267   24.4657 H       1  UNL1        0.1501
     23 C           6.5757   -4.3577   25.8715 C.ar    1  UNL1        0.1984
     24 C           7.0230   -5.6062   26.5723 C.ar    1  UNL1        0.0453
     25 C           7.0515   -5.3260   28.0456 C.ar    1  UNL1        0.0409
     26 C           7.4132   -6.1817   29.2232 C.ar    1  UNL1        0.0238
     27 C           7.3453   -5.6157   30.6106 C.ar    1  UNL1        0.0991
     28 N           6.9158   -4.1939   30.8204 N.ar    1  UNL1       -0.2391
     29 C           6.5541   -3.3382   29.6428 C.ar    1  UNL1        0.1362
     30 C           6.6220   -3.9042   28.2554 C.ar    1  UNL1        0.1646
     31 O           6.3279   -3.3058   26.9117 O.2     1  UNL1       -0.4473
@<TRIPOS>BOND
     1    16    17    1
     2    17    15    1
     3    15    10    1
     4    10    11   ar
     5    11    12   ar
     6    12     7    1
     7     7     8    2
     8     7     9    2
     9     7     1    1
    10     1     2   ar
    11     2     3   ar
    12     3     4   ar
    13     4    18    1
    14    18    19    1
    15    19    20   am
    16    20    21    2
    17    20    23    1
    18    23    24   ar
    19    24    25   ar
    20    25    26   ar
    21    26    27   ar
    22    27    28   ar
    23    28    29   ar
    24    29    30   ar
    25    30    31   ar
    26     4     5   ar
    27     5     6   ar
    28    12    13   ar
    29    13    14   ar
    30    14    10   ar
    31     6     1   ar
    32    31    23   ar
    33    30    25   ar
    34    19    22    1
@<TRIPOS>MOLECULE
*****
 31 34 0 0 0
SMALL
GASTEIGER

@<TRIPOS>ATOM
      1 C           0.7965    2.4468   29.9925 C.ar    1  UNL1        0.1104
      2 C           0.3592    1.0746   29.5729 C.ar    1  UNL1        0.0185
      3 C           0.0300    0.7991   28.1356 C.ar    1  UNL1       -0.0013
      4 C           0.1380    1.8958   27.1180 C.ar    1  UNL1       -0.0025
      5 C           0.5753    3.2679   27.5375 C.ar    1  UNL1       -0.0013
      6 C           0.9045    3.5434   28.9748 C.ar    1  UNL1        0.0185
      7 S           1.1257    2.7222   31.4297 S.O2    1  UNL1        0.0305
      8 O           1.4651    1.2749   31.6294 O.2     1  UNL1       -0.1641
      9 O           0.7862    4.1696   31.2301 O.2     1  UNL1       -0.1641
     10 N           2.3307    2.7699   35.1190 N.ar    1  UNL1       -0.2481
     11 C           2.2458    2.1053   33.7770 C.ar    1  UNL1        0.1154
     12 C           1.4549    2.9977   32.8670 C.ar    1  UNL1        0.1497
     13 C           1.0510    4.2138   33.6465 C.ar    1  UNL1        0.1404
     14 N           1.5923    4.0731   35.0384 N.ar    1  UNL1       -0.1662
     15 C           3.0311    2.2268   36.3292 C.3     1  UNL1        0.1276
     16 C           2.1912    1.1660   38.5471 C.3     1  UNL1        0.0021
     17 C           2.4081    2.3747   37.6857 C.3     1  UNL1        0.0264
     18 C          -0.1912    1.6203   25.6806 C.3     1  UNL1        0.1167
     19 N           0.5480    0.5498   24.9338 N.am    1  UNL1       -0.2944
     20 C           1.8664    0.8592   24.2889 C.2     1  UNL1        0.2808
     21 O           2.4457    2.2391   24.3908 O.2     1  UNL1       -0.2668
     22 H           0.1678   -0.3558   24.8669 H       1  UNL1        0.1501
     23 C           2.6055   -0.2112   23.5420 C.ar    1  UNL1        0.1984
     24 C           2.5977   -0.4154   22.0560 C.ar    1  UNL1        0.0453
     25 C           3.4696   -1.5958   21.7456 C.ar    1  UNL1        0.0409
     26 C           3.8364   -2.2601   20.4518 C.ar    1  UNL1        0.0238
     27 C           4.7499   -3.4498   20.4521 C.ar    1  UNL1        0.0991
     28 N           5.2966   -3.9753   21.7463 N.ar    1  UNL1       -0.2391
     29 C           4.9299   -3.3110   23.0402 C.ar    1  UNL1        0.1362
     30 C           4.0164   -2.1212   23.0399 C.ar    1  UNL1        0.1646
     31 O           3.4823   -1.2655   24.1501 O.2     1  UNL1       -0.4473
@<TRIPOS>BOND
     1    16    17    1
     2    17    15    1
     3    15    10    1
     4    10    11   ar
     5    11    12   ar
     6    12     7    1
     7     7     8    2
     8     7     9    2
     9     7     1    1
    10     1     2   ar
    11     2     3   ar
    12     3     4   ar
    13     4    18    1
    14    18    19    1
    15    19    20   am
    16    20    21    2
    17    20    23    1
    18    23    24   ar
    19    24    25   ar
    20    25    26   ar
    21    26    27   ar
    22    27    28   ar
    23    28    29   ar
    24    29    30   ar
    25    30    31   ar
    26     4     5   ar
    27     5     6   ar
    28    12    13   ar
    29    13    14   ar
    30    14    10   ar
    31     6     1   ar
    32    31    23   ar
    33    30    25   ar
    34    19    22    1
@<TRIPOS>MOLECULE
*****
 31 34 0 0 0
SMALL
GASTEIGER

@<TRIPOS>ATOM
      1 C           6.0961   -2.5596   32.3602 C.ar    1  UNL1        0.1104
      2 C           4.7227   -2.5934   32.9626 C.ar    1  UNL1        0.0185
      3 C           4.3510   -1.6157   34.0377 C.ar    1  UNL1       -0.0013
      4 C           5.3527   -0.6042   34.5104 C.ar    1  UNL1       -0.0025
      5 C           6.7260   -0.5703   33.9081 C.ar    1  UNL1       -0.0013
      6 C           7.0977   -1.5481   32.8330 C.ar    1  UNL1        0.0185
      7 S           6.4677   -3.5374   31.2851 S.O2    1  UNL1        0.0305
      8 O           6.5502   -4.6311   32.3083 O.2     1  UNL1       -0.1641
      9 O           6.3853   -2.4436   30.2619 O.2     1  UNL1       -0.1641
     10 N           7.0418   -5.6055   28.0511 N.ar    1  UNL1       -0.2481
     11 C           6.4600   -4.4197   28.7619 C.ar    1  UNL1        0.1154
     12 C           6.8394   -4.5151   30.2100 C.ar    1  UNL1        0.1497
     13 C           7.6558   -5.7599   30.3942 C.ar    1  UNL1        0.1404
     14 N           7.7809   -6.4338   29.0600 N.ar    1  UNL1       -0.1662
     15 C           6.9081   -5.9097   26.5884 C.3     1  UNL1        0.1276
     16 C           8.0261   -7.6640   25.0320 C.3     1  UNL1        0.0021
     17 C           8.0990   -6.3829   25.8088 C.3     1  UNL1        0.0264
     18 C           4.9809    0.3736   35.5856 C.3     1  UNL1        0.1167
     19 N           3.8505    1.3350   35.3668 N.am    1  UNL1       -0.2944
     20 C           3.8807    2.6879   36.0139 C.2     1  UNL1        0.2808
     21 O           5.0413    3.0794   36.8797 O.2     1  UNL1       -0.2668
     22 H           3.0888    1.0780   34.7985 H       1  UNL1        0.1501
     23 C           2.7503    3.6493   35.7951 C.ar    1  UNL1        0.1984
     24 C           2.0645    3.9214   34.4891 C.ar    1  UNL1        0.0453
     25 C           0.9975    4.9476   34.7307 C.ar    1  UNL1        0.0409
     26 C           0.0054    5.5991   33.8136 C.ar    1  UNL1        0.0238
     27 C          -0.9604    6.6128   34.3518 C.ar    1  UNL1        0.0991
     28 N          -0.9340    6.9750   35.8072 N.ar    1  UNL1       -0.2391
     29 C           0.0581    6.3235   36.7243 C.ar    1  UNL1        0.1362
     30 C           1.0239    5.3098   36.1861 C.ar    1  UNL1        0.1646
     31 O           2.1071    4.5074   36.8439 O.2     1  UNL1       -0.4473
@<TRIPOS>BOND
     1    16    17    1
     2    17    15    1
     3    15    10    1
     4    10    11   ar
     5    11    12   ar
     6    12     7    1
     7     7     8    2
     8     7     9    2
     9     7     1    1
    10     1     2   ar
    11     2     3   ar
    12     3     4   ar
    13     4    18    1
    14    18    19    1
    15    19    20   am
    16    20    21    2
    17    20    23    1
    18    23    24   ar
    19    24    25   ar
    20    25    26   ar
    21    26    27   ar
    22    27    28   ar
    23    28    29   ar
    24    29    30   ar
    25    30    31   ar
    26     4     5   ar
    27     5     6   ar
    28    12    13   ar
    29    13    14   ar
    30    14    10   ar
    31     6     1   ar
    32    31    23   ar
    33    30    25   ar
    34    19    22    1
@<TRIPOS>MOLECULE
*****
 31 34 0 0 0
SMALL
GASTEIGER

@<TRIPOS>ATOM
      1 C           3.1313    0.5810   30.8459 C.ar    1  UNL1        0.1104
      2 C           2.9575    1.9215   30.1955 C.ar    1  UNL1        0.0185
      3 C           2.5841    2.0088   28.7454 C.ar    1  UNL1       -0.0013
      4 C           2.3846    0.7556   27.9456 C.ar    1  UNL1       -0.0025
      5 C           2.5584   -0.5849   28.5959 C.ar    1  UNL1       -0.0013
      6 C           2.9318   -0.6722   30.0461 C.ar    1  UNL1        0.0185
      7 S           3.5047    0.4937   32.2961 S.O2    1  UNL1        0.0305
      8 O           3.3038   -0.9923   32.2584 O.2     1  UNL1       -0.1641
      9 O           3.7056    1.9797   32.3338 O.2     1  UNL1       -0.1641
     10 N           4.2241    0.9793   36.0792 N.ar    1  UNL1       -0.2481
     11 C           3.7279    1.4993   34.7626 C.ar    1  UNL1        0.1154
     12 C           3.8780    0.4065   33.7462 C.ar    1  UNL1        0.1497
     13 C           4.4671   -0.7890   34.4345 C.ar    1  UNL1        0.1404
     14 N           4.6810   -0.4350   35.8764 N.ar    1  UNL1       -0.1662
     15 C           4.2577    1.7400   37.3715 C.3     1  UNL1        0.1276
     16 C           2.1391    0.8853   38.6089 C.3     1  UNL1        0.0021
     17 C           3.6128    1.1645   38.5975 C.3     1  UNL1        0.0264
     18 C           2.0112    0.8429   26.4954 C.3     1  UNL1        0.1167
     19 N           2.5835   -0.1359   25.5133 N.am    1  UNL1       -0.2944
     20 C           2.5149    0.1503   24.0425 C.2     1  UNL1        0.2808
     21 O           1.8740    1.4153   23.5537 O.2     1  UNL1       -0.2668
     22 H           3.0041   -0.9662   25.8342 H       1  UNL1        0.1501
     23 C           3.0872   -0.8285   23.0605 C.ar    1  UNL1        0.1984
     24 C           2.7852   -0.8832   21.5922 C.ar    1  UNL1        0.0453
     25 C           3.5734   -2.0130   20.9986 C.ar    1  UNL1        0.0409
     26 C           3.6744   -2.5388   19.5974 C.ar    1  UNL1        0.0238
     27 C           4.5646   -3.7083   19.2977 C.ar    1  UNL1        0.0991
     28 N           5.3537   -4.3519   20.3991 N.ar    1  UNL1       -0.2391
     29 C           5.2526   -3.8261   21.8002 C.ar    1  UNL1        0.1362
     30 C           4.3625   -2.6566   22.1000 C.ar    1  UNL1        0.1646
     31 O           4.0620   -1.9246   23.3743 O.2     1  UNL1       -0.4473
@<TRIPOS>BOND
     1    16    17    1
     2    17    15    1
     3    15    10    1
     4    10    11   ar
     5    11    12   ar
     6    12     7    1
     7     7     8    2
     8     7     9    2
     9     7     1    1
    10     1     2   ar
    11     2     3   ar
    12     3     4   ar
    13     4    18    1
    14    18    19    1
    15    19    20   am
    16    20    21    2
    17    20    23    1
    18    23    24   ar
    19    24    25   ar
    20    25    26   ar
    21    26    27   ar
    22    27    28   ar
    23    28    29   ar
    24    29    30   ar
    25    30    31   ar
    26     4     5   ar
    27     5     6   ar
    28    12    13   ar
    29    13    14   ar
    30    14    10   ar
    31     6     1   ar
    32    31    23   ar
    33    30    25   ar
    34    19    22    1
