@<TRIPOS>MOLECULE
*****
 31 33 0 0 0
SMALL
GASTEIGER

@<TRIPOS>ATOM
      1 N          -3.0166  -18.7390   20.8056 N.3     1  UNL1       -0.2617
      2 C          -4.2541  -19.5709   20.6421 C.3     1  UNL1        0.0520
      3 C          -4.5099  -18.9288   19.3109 C.3     1  UNL1        0.0164
      4 C          -3.9983  -20.2130   21.9734 C.3     1  UNL1        0.0164
      5 C          -5.4915  -20.4028   20.4787 C.3     1  UNL1        0.0604
      6 C          -6.8298  -19.8381   20.8529 C.2     1  UNL1        0.0599
      7 C          -7.3486  -19.6500   22.2477 C.2     1  UNL1        0.0159
      8 C          -8.7237  -19.0579   22.1549 C.2     1  UNL1        0.0150
      9 C          -9.7171  -18.6578   23.2051 C.2     1  UNL1        0.0009
     10 C         -11.0416  -18.0798   22.8031 C.2     1  UNL1       -0.0041
     11 C         -11.3726  -17.9019   21.3510 C.2     1  UNL1       -0.0198
     12 C         -10.3792  -18.3020   20.3008 C.3     1  UNL1        0.0717
     13 C          -9.0547  -18.8800   20.7028 C.2     1  UNL1        0.0630
     14 N          -7.8842  -19.3622   19.8981 N.2     1  UNL1       -0.2536
     15 C          -2.1311  -18.4720   19.6247 C.3     1  UNL1        0.1508
     16 C           0.6796  -17.5106   20.0445 C.1     1  UNL1       -0.0127
     17 C          -0.7257  -17.9913   19.8347 C.1     1  UNL1       -0.0599
     18 C          -2.6649  -18.1741   22.1499 C.3     1  UNL1        0.1062
     19 C          -3.2330  -16.8545   22.5809 C.3     1  UNL1        0.1700
     20 O          -2.7473  -15.5853   21.9457 O.3     1  UNL1       -0.3793
     21 H          -3.2135  -14.8295   22.3358 H       1  UNL1        0.2106
     22 C          -4.2869  -16.8040   23.6471 C.3     1  UNL1        0.2358
     23 O          -4.9785  -15.5095   23.9573 O.3     1  UNL1       -0.4721
     24 C          -6.1128  -15.4815   24.9384 C.ar    1  UNL1        0.1482
     25 C          -5.8302  -15.4694   26.4114 C.ar    1  UNL1        0.0376
     26 C          -6.9645  -15.4414   27.3925 C.ar    1  UNL1        0.0032
     27 C          -8.3814  -15.4256   26.9005 C.ar    1  UNL1        0.0009
     28 C          -8.6641  -15.4378   25.4274 C.ar    1  UNL1        0.0133
     29 C          -7.5297  -15.4658   24.4463 C.ar    1  UNL1        0.1023
     30 C          -7.8123  -15.4780   22.9733 C.1     1  UNL1        0.1035
     31 N          -8.0950  -15.4902   21.5001 N.1     1  UNL1       -0.1907
@<TRIPOS>BOND
     1    16    17    3
     2    17    15    1
     3    15     1    1
     4     1    18    1
     5    18    19    1
     6    19    20    1
     7    19    22    1
     8    22    23    1
     9    23    24    1
    10    24    25   ar
    11    25    26   ar
    12    26    27   ar
    13    27    28   ar
    14    28    29   ar
    15    29    30    1
    16    30    31    3
    17     1     2    1
    18     2     3    1
    19     2     4    1
    20     2     5    1
    21     5     6    1
    22     6     7    2
    23     7     8    1
    24     8     9    2
    25     9    10    1
    26    10    11    2
    27    11    12    1
    28    12    13    1
    29    13    14    2
    30    29    24   ar
    31    14     6    1
    32    13     8    1
    33    20    21    1
@<TRIPOS>MOLECULE
*****
 31 33 0 0 0
SMALL
GASTEIGER

@<TRIPOS>ATOM
      1 N         -11.2296  -17.5950   21.9105 N.3     1  UNL1       -0.2617
      2 C         -10.3411  -18.6710   21.3601 C.3     1  UNL1        0.0520
      3 C         -10.6983  -18.2521   19.9648 C.3     1  UNL1        0.0164
      4 C          -9.9840  -19.0899   22.7553 C.3     1  UNL1        0.0164
      5 C          -9.4527  -19.7470   20.8096 C.3     1  UNL1        0.0604
      6 C          -7.9621  -19.5863   20.8573 C.2     1  UNL1        0.0599
      7 C          -7.0872  -19.8269   22.0517 C.2     1  UNL1        0.0159
      8 C          -5.6691  -19.5461   21.6517 C.2     1  UNL1        0.0150
      9 C          -4.3790  -19.6140   22.4138 C.2     1  UNL1        0.0009
     10 C          -3.0873  -19.2677   21.7344 C.2     1  UNL1       -0.0041
     11 C          -3.0858  -18.8535   20.2927 C.2     1  UNL1       -0.0198
     12 C          -4.3759  -18.7855   19.5305 C.3     1  UNL1        0.0717
     13 C          -5.6676  -19.1318   20.2100 C.2     1  UNL1        0.0630
     14 N          -7.0847  -19.1567   19.7191 N.2     1  UNL1       -0.2536
     15 C         -12.7180  -17.7802   21.9140 C.3     1  UNL1        0.1508
     16 C         -14.1776  -18.1492   24.5090 C.1     1  UNL1       -0.0127
     17 C         -13.4478  -17.9647   23.2115 C.1     1  UNL1       -0.0599
     18 C         -10.6294  -16.3337   22.4574 C.3     1  UNL1        0.1062
     19 C          -9.5993  -15.5873   21.6626 C.3     1  UNL1        0.1700
     20 O         -10.0023  -14.8422   20.4246 O.3     1  UNL1       -0.3793
     21 H          -9.2221  -14.4183   20.0340 H       1  UNL1        0.2106
     22 C          -8.1663  -15.5859   22.1057 C.3     1  UNL1        0.2358
     23 O          -7.6983  -16.5724   23.1343 O.3     1  UNL1       -0.4721
     24 C          -7.3728  -16.1099   24.5236 C.ar    1  UNL1        0.1482
     25 C          -8.4565  -16.0175   25.5565 C.ar    1  UNL1        0.0376
     26 C          -8.1309  -15.5550   26.9458 C.ar    1  UNL1        0.0032
     27 C          -6.7217  -15.1849   27.3021 C.ar    1  UNL1        0.0009
     28 C          -5.6379  -15.2773   26.2692 C.ar    1  UNL1        0.0133
     29 C          -5.9635  -15.7398   24.8799 C.ar    1  UNL1        0.1023
     30 C          -4.8798  -15.8322   23.8469 C.1     1  UNL1        0.1035
     31 N          -3.7960  -15.9247   22.8139 N.1     1  UNL1       -0.1907
@<TRIPOS>BOND
     1    16    17    3
     2    17    15    1
     3    15     1    1
     4     1    18    1
     5    18    19    1
     6    19    20    1
     7    19    22    1
     8    22    23    1
     9    23    24    1
    10    24    25   ar
    11    25    26   ar
    12    26    27   ar
    13    27    28   ar
    14    28    29   ar
    15    29    30    1
    16    30    31    3
    17     1     2    1
    18     2     3    1
    19     2     4    1
    20     2     5    1
    21     5     6    1
    22     6     7    2
    23     7     8    1
    24     8     9    2
    25     9    10    1
    26    10    11    2
    27    11    12    1
    28    12    13    1
    29    13    14    2
    30    29    24   ar
    31    14     6    1
    32    13     8    1
    33    20    21    1
@<TRIPOS>MOLECULE
*****
 31 33 0 0 0
SMALL
GASTEIGER

@<TRIPOS>ATOM
      1 N          -4.6878  -19.4678   21.2608 N.3     1  UNL1       -0.2617
      2 C          -6.0477  -19.6348   20.6502 C.3     1  UNL1        0.0520
      3 C          -6.3004  -18.1651   20.8113 C.3     1  UNL1        0.0164
      4 C          -5.7949  -21.1045   20.4891 C.3     1  UNL1        0.0164
      5 C          -7.4075  -19.8017   20.0395 C.3     1  UNL1        0.0604
      6 C          -8.6302  -19.4004   20.8102 C.2     1  UNL1        0.0599
      7 C          -9.8985  -18.8507   20.2279 C.2     1  UNL1        0.0159
      8 C         -10.8514  -18.5888   21.3563 C.2     1  UNL1        0.0150
      9 C         -12.2500  -18.0474   21.3838 C.2     1  UNL1        0.0009
     10 C         -12.9691  -17.8937   22.6912 C.2     1  UNL1       -0.0041
     11 C         -12.2897  -18.2816   23.9710 C.2     1  UNL1       -0.0198
     12 C         -10.8911  -18.8230   23.9435 C.3     1  UNL1        0.0717
     13 C         -10.1720  -18.9767   22.6361 C.2     1  UNL1        0.0630
     14 N          -8.7992  -19.4782   22.2986 N.2     1  UNL1       -0.2536
     15 C          -3.4633  -19.8386   20.4778 C.3     1  UNL1        0.1508
     16 C          -2.1793  -17.8271   18.6598 C.1     1  UNL1       -0.0127
     17 C          -2.8213  -18.8328   19.5688 C.1     1  UNL1       -0.0599
     18 C          -4.5524  -18.9300   22.6546 C.3     1  UNL1        0.1062
     19 C          -3.5110  -17.8950   22.9613 C.3     1  UNL1        0.1700
     20 O          -2.0587  -18.2078   22.7537 O.3     1  UNL1       -0.3793
     21 H          -1.5237  -17.4364   22.9979 H       1  UNL1        0.2106
     22 C          -3.9219  -16.5471   23.4755 C.3     1  UNL1        0.2358
     23 O          -5.3250  -16.0599   23.2653 O.3     1  UNL1       -0.4721
     24 C          -6.2305  -15.8506   24.4427 C.ar    1  UNL1        0.1482
     25 C          -5.6619  -15.8222   25.8304 C.ar    1  UNL1        0.0376
     26 C          -6.5674  -15.6128   27.0078 C.ar    1  UNL1        0.0032
     27 C          -8.0415  -15.4320   26.7974 C.ar    1  UNL1        0.0009
     28 C          -8.6102  -15.4605   25.4096 C.ar    1  UNL1        0.0133
     29 C          -7.7047  -15.6698   24.2322 C.ar    1  UNL1        0.1023
     30 C          -8.2732  -15.6983   22.8445 C.1     1  UNL1        0.1035
     31 N          -8.8418  -15.7267   21.4567 N.1     1  UNL1       -0.1907
@<TRIPOS>BOND
     1    16    17    3
     2    17    15    1
     3    15     1    1
     4     1    18    1
     5    18    19    1
     6    19    20    1
     7    19    22    1
     8    22    23    1
     9    23    24    1
    10    24    25   ar
    11    25    26   ar
    12    26    27   ar
    13    27    28   ar
    14    28    29   ar
    15    29    30    1
    16    30    31    3
    17     1     2    1
    18     2     3    1
    19     2     4    1
    20     2     5    1
    21     5     6    1
    22     6     7    2
    23     7     8    1
    24     8     9    2
    25     9    10    1
    26    10    11    2
    27    11    12    1
    28    12    13    1
    29    13    14    2
    30    29    24   ar
    31    14     6    1
    32    13     8    1
    33    20    21    1
@<TRIPOS>MOLECULE
*****
 31 33 0 0 0
SMALL
GASTEIGER

@<TRIPOS>ATOM
      1 N          -9.7005  -18.8572   22.2217 N.3     1  UNL1       -0.2617
      2 C          -8.4533  -19.6748   22.0600 C.3     1  UNL1        0.0520
      3 C          -8.5669  -20.1298   23.4848 C.3     1  UNL1        0.0164
      4 C          -8.3396  -19.2197   20.6353 C.3     1  UNL1        0.0164
      5 C          -7.2062  -20.4924   21.8983 C.3     1  UNL1        0.0604
      6 C          -5.9111  -19.8231   21.5449 C.2     1  UNL1        0.0599
      7 C          -5.0568  -19.0104   22.4721 C.2     1  UNL1        0.0159
      8 C          -3.8607  -18.5340   21.7024 C.2     1  UNL1        0.0150
      9 C          -2.6816  -17.6953   22.0977 C.2     1  UNL1        0.0009
     10 C          -1.6177  -17.3748   21.0902 C.2     1  UNL1       -0.0041
     11 C          -1.7328  -17.8931   19.6873 C.2     1  UNL1       -0.0198
     12 C          -2.9118  -18.7318   19.2919 C.3     1  UNL1        0.0717
     13 C          -3.9758  -19.0523   20.2995 C.2     1  UNL1        0.0630
     14 N          -5.2430  -19.8490   20.2021 N.2     1  UNL1       -0.2536
     15 C         -10.6316  -19.1279   23.3661 C.3     1  UNL1        0.1508
     16 C         -13.3302  -17.8198   23.4459 C.1     1  UNL1       -0.0127
     17 C         -11.9810  -18.4738   23.4060 C.1     1  UNL1       -0.0599
     18 C         -10.0164  -17.7688   21.2391 C.3     1  UNL1        0.1062
     19 C          -9.9619  -16.3324   21.6676 C.3     1  UNL1        0.1700
     20 O         -11.2271  -15.5341   21.7782 O.3     1  UNL1       -0.3793
     21 H         -11.0160  -14.6318   22.0648 H       1  UNL1        0.2106
     22 C          -8.6422  -15.6941   21.9854 C.3     1  UNL1        0.2358
     23 O          -7.6145  -16.4496   22.7748 O.3     1  UNL1       -0.4721
     24 C          -7.4158  -16.1473   24.2306 C.ar    1  UNL1        0.1482
     25 C          -8.4887  -16.4903   25.2210 C.ar    1  UNL1        0.0376
     26 C          -8.2900  -16.1880   26.6768 C.ar    1  UNL1        0.0032
     27 C          -7.0184  -15.5427   27.1420 C.ar    1  UNL1        0.0009
     28 C          -5.9453  -15.1997   26.1515 C.ar    1  UNL1        0.0133
     29 C          -6.1440  -15.5020   24.6958 C.ar    1  UNL1        0.1023
     30 C          -5.0711  -15.1590   23.7053 C.1     1  UNL1        0.1035
     31 N          -3.9981  -14.8160   22.7147 N.1     1  UNL1       -0.1907
@<TRIPOS>BOND
     1    16    17    3
     2    17    15    1
     3    15     1    1
     4     1    18    1
     5    18    19    1
     6    19    20    1
     7    19    22    1
     8    22    23    1
     9    23    24    1
    10    24    25   ar
    11    25    26   ar
    12    26    27   ar
    13    27    28   ar
    14    28    29   ar
    15    29    30    1
    16    30    31    3
    17     1     2    1
    18     2     3    1
    19     2     4    1
    20     2     5    1
    21     5     6    1
    22     6     7    2
    23     7     8    1
    24     8     9    2
    25     9    10    1
    26    10    11    2
    27    11    12    1
    28    12    13    1
    29    13    14    2
    30    29    24   ar
    31    14     6    1
    32    13     8    1
    33    20    21    1
@<TRIPOS>MOLECULE
*****
 31 33 0 0 0
SMALL
GASTEIGER

@<TRIPOS>ATOM
      1 N          -9.3782  -18.8265   21.2381 N.3     1  UNL1       -0.2617
      2 C          -8.1114  -19.6298   21.2385 C.3     1  UNL1        0.0520
      3 C          -8.0225  -19.4904   19.7476 C.3     1  UNL1        0.0164
      4 C          -8.2002  -19.7692   22.7293 C.3     1  UNL1        0.0164
      5 C          -6.8446  -20.4330   21.2388 C.3     1  UNL1        0.0604
      6 C          -5.5254  -19.7531   21.0208 C.2     1  UNL1        0.0599
      7 C          -4.6865  -19.0967   22.0769 C.2     1  UNL1        0.0159
      8 C          -3.4561  -18.5482   21.4171 C.2     1  UNL1        0.0150
      9 C          -2.2745  -17.8007   21.9603 C.2     1  UNL1        0.0009
     10 C          -1.1713  -17.3707   21.0394 C.2     1  UNL1       -0.0041
     11 C          -1.2497  -17.6882   19.5755 C.2     1  UNL1       -0.0198
     12 C          -2.4313  -18.4356   19.0324 C.3     1  UNL1        0.0717
     13 C          -3.5345  -18.8657   19.9532 C.2     1  UNL1        0.0630
     14 N          -4.8134  -19.6103   19.7083 N.2     1  UNL1       -0.2536
     15 C         -10.1880  -18.7038   19.9815 C.3     1  UNL1        0.1508
     16 C         -11.8697  -16.2640   19.5129 C.1     1  UNL1       -0.0127
     17 C         -11.0289  -17.4839   19.7472 C.1     1  UNL1       -0.0599
     18 C          -9.8352  -18.1460   22.4943 C.3     1  UNL1        0.1062
     19 C          -9.7294  -16.6551   22.6207 C.3     1  UNL1        0.1700
     20 O         -10.9307  -15.8489   23.0170 O.3     1  UNL1       -0.3793
     21 H         -10.6924  -14.9093   23.0519 H       1  UNL1        0.2106
     22 C          -8.4225  -15.9704   22.3507 C.3     1  UNL1        0.2358
     23 O          -7.9489  -14.8737   23.2580 O.3     1  UNL1       -0.4721
     24 C          -7.5061  -15.1946   24.6547 C.ar    1  UNL1        0.1482
     25 C          -8.5233  -15.3615   25.7443 C.ar    1  UNL1        0.0376
     26 C          -8.0805  -15.6824   27.1411 C.ar    1  UNL1        0.0032
     27 C          -6.6205  -15.8364   27.4482 C.ar    1  UNL1        0.0009
     28 C          -5.6031  -15.6695   26.3586 C.ar    1  UNL1        0.0133
     29 C          -6.0459  -15.3486   24.9619 C.ar    1  UNL1        0.1023
     30 C          -5.0286  -15.1817   23.8723 C.1     1  UNL1        0.1035
     31 N          -4.0113  -15.0147   22.7826 N.1     1  UNL1       -0.1907
@<TRIPOS>BOND
     1    16    17    3
     2    17    15    1
     3    15     1    1
     4     1    18    1
     5    18    19    1
     6    19    20    1
     7    19    22    1
     8    22    23    1
     9    23    24    1
    10    24    25   ar
    11    25    26   ar
    12    26    27   ar
    13    27    28   ar
    14    28    29   ar
    15    29    30    1
    16    30    31    3
    17     1     2    1
    18     2     3    1
    19     2     4    1
    20     2     5    1
    21     5     6    1
    22     6     7    2
    23     7     8    1
    24     8     9    2
    25     9    10    1
    26    10    11    2
    27    11    12    1
    28    12    13    1
    29    13    14    2
    30    29    24   ar
    31    14     6    1
    32    13     8    1
    33    20    21    1
@<TRIPOS>MOLECULE
*****
 31 33 0 0 0
SMALL
GASTEIGER

@<TRIPOS>ATOM
      1 N          -9.4241  -19.0802   21.9210 N.3     1  UNL1       -0.2617
      2 C          -8.0655  -19.7098   22.0104 C.3     1  UNL1        0.0520
      3 C          -7.6494  -18.9888   20.7627 C.3     1  UNL1        0.0164
      4 C          -8.4817  -20.4308   23.2581 C.3     1  UNL1        0.0164
      5 C          -6.7070  -20.3393   22.0997 C.3     1  UNL1        0.0604
      6 C          -5.4820  -19.5241   21.8089 C.2     1  UNL1        0.0599
      7 C          -4.5125  -19.7582   20.6885 C.2     1  UNL1        0.0159
      8 C          -3.4427  -18.7104   20.7745 C.2     1  UNL1        0.0150
      9 C          -2.2276  -18.4452   19.9359 C.2     1  UNL1        0.0009
     10 C          -1.3209  -17.2983   20.2708 C.2     1  UNL1       -0.0041
     11 C          -1.6292  -16.4164   21.4444 C.2     1  UNL1       -0.0198
     12 C          -2.8442  -16.6815   22.2831 C.3     1  UNL1        0.0717
     13 C          -3.7509  -17.8285   21.9481 C.2     1  UNL1        0.0630
     14 N          -5.0113  -18.3314   22.5874 N.2     1  UNL1       -0.2536
     15 C          -9.8791  -18.4576   20.6344 C.3     1  UNL1        0.1508
     16 C         -12.2132  -16.5730   20.6230 C.1     1  UNL1       -0.0127
     17 C         -11.0462  -17.5153   20.6287 C.1     1  UNL1       -0.0599
     18 C         -10.3277  -19.0732   23.1183 C.3     1  UNL1        0.1062
     19 C         -10.1454  -18.0390   24.1894 C.3     1  UNL1        0.1700
     20 O         -10.0218  -18.4590   25.6242 O.3     1  UNL1       -0.3793
     21 H          -9.9104  -17.6736   26.1825 H       1  UNL1        0.2106
     22 C         -10.0868  -16.5849   23.8259 C.3     1  UNL1        0.2358
     23 O          -9.6052  -15.5797   24.8297 O.3     1  UNL1       -0.4721
     24 C          -8.1576  -15.5450   25.2211 C.ar    1  UNL1        0.1482
     25 C          -7.7658  -15.7036   26.6603 C.ar    1  UNL1        0.0376
     26 C          -6.3182  -15.6690   27.0518 C.ar    1  UNL1        0.0032
     27 C          -5.2623  -15.4757   26.0040 C.ar    1  UNL1        0.0009
     28 C          -5.6541  -15.3171   24.5647 C.ar    1  UNL1        0.0133
     29 C          -7.1017  -15.3517   24.1733 C.ar    1  UNL1        0.1023
     30 C          -7.4935  -15.1931   22.7341 C.1     1  UNL1        0.1035
     31 N          -7.8853  -15.0345   21.2949 N.1     1  UNL1       -0.1907
@<TRIPOS>BOND
     1    16    17    3
     2    17    15    1
     3    15     1    1
     4     1    18    1
     5    18    19    1
     6    19    20    1
     7    19    22    1
     8    22    23    1
     9    23    24    1
    10    24    25   ar
    11    25    26   ar
    12    26    27   ar
    13    27    28   ar
    14    28    29   ar
    15    29    30    1
    16    30    31    3
    17     1     2    1
    18     2     3    1
    19     2     4    1
    20     2     5    1
    21     5     6    1
    22     6     7    2
    23     7     8    1
    24     8     9    2
    25     9    10    1
    26    10    11    2
    27    11    12    1
    28    12    13    1
    29    13    14    2
    30    29    24   ar
    31    14     6    1
    32    13     8    1
    33    20    21    1
@<TRIPOS>MOLECULE
*****
 31 33 0 0 0
SMALL
GASTEIGER

@<TRIPOS>ATOM
      1 N          -3.6783  -16.9310   22.7639 N.3     1  UNL1       -0.2617
      2 C          -4.8392  -16.2142   23.3872 C.3     1  UNL1        0.0520
      3 C          -5.0634  -17.3774   24.3074 C.3     1  UNL1        0.0164
      4 C          -4.6151  -15.0510   22.4671 C.3     1  UNL1        0.0164
      5 C          -6.0001  -15.4974   24.0105 C.3     1  UNL1        0.0604
      6 C          -7.3885  -15.7237   23.4898 C.2     1  UNL1        0.0599
      7 C          -8.5682  -16.1828   24.2945 C.2     1  UNL1        0.0159
      8 C          -9.7497  -16.2734   23.3749 C.2     1  UNL1        0.0150
      9 C         -11.1768  -16.6709   23.6105 C.2     1  UNL1        0.0009
     10 C         -12.1544  -16.6653   22.4730 C.2     1  UNL1       -0.0041
     11 C         -11.7050  -16.2622   21.0998 C.2     1  UNL1       -0.0198
     12 C         -10.2780  -15.8647   20.8642 C.3     1  UNL1        0.0717
     13 C          -9.3004  -15.8703   22.0018 C.2     1  UNL1        0.0630
     14 N          -7.8411  -15.5306   22.0727 N.2     1  UNL1       -0.2536
     15 C          -2.4781  -16.1573   22.3046 C.3     1  UNL1        0.1508
     16 C          -0.7815  -17.2102   20.0657 C.1     1  UNL1       -0.0127
     17 C          -1.6298  -16.6838   21.1852 C.1     1  UNL1       -0.0599
     18 C          -3.7176  -18.4215   22.6000 C.3     1  UNL1        0.1062
     19 C          -4.5771  -19.0365   21.5356 C.3     1  UNL1        0.1700
     20 O          -4.3343  -18.7074   20.0924 O.3     1  UNL1       -0.3793
     21 H          -4.9726  -19.1853   19.5400 H       1  UNL1        0.2106
     22 C          -5.6794  -19.9807   21.9144 C.3     1  UNL1        0.2358
     23 O          -6.9752  -19.4454   22.4477 O.3     1  UNL1       -0.4721
     24 C          -8.2147  -19.5046   21.6050 C.ar    1  UNL1        0.1482
     25 C          -8.1229  -19.3068   20.1210 C.ar    1  UNL1        0.0376
     26 C          -9.3624  -19.3660   19.2783 C.ar    1  UNL1        0.0032
     27 C         -10.6937  -19.6231   19.9196 C.ar    1  UNL1        0.0009
     28 C         -10.7856  -19.8210   21.4037 C.ar    1  UNL1        0.0133
     29 C          -9.5461  -19.7618   22.2464 C.ar    1  UNL1        0.1023
     30 C          -9.6380  -19.9596   23.7304 C.1     1  UNL1        0.1035
     31 N          -9.7298  -20.1575   25.2146 N.1     1  UNL1       -0.1907
@<TRIPOS>BOND
     1    16    17    3
     2    17    15    1
     3    15     1    1
     4     1    18    1
     5    18    19    1
     6    19    20    1
     7    19    22    1
     8    22    23    1
     9    23    24    1
    10    24    25   ar
    11    25    26   ar
    12    26    27   ar
    13    27    28   ar
    14    28    29   ar
    15    29    30    1
    16    30    31    3
    17     1     2    1
    18     2     3    1
    19     2     4    1
    20     2     5    1
    21     5     6    1
    22     6     7    2
    23     7     8    1
    24     8     9    2
    25     9    10    1
    26    10    11    2
    27    11    12    1
    28    12    13    1
    29    13    14    2
    30    29    24   ar
    31    14     6    1
    32    13     8    1
    33    20    21    1
@<TRIPOS>MOLECULE
*****
 31 33 0 0 0
SMALL
GASTEIGER

@<TRIPOS>ATOM
      1 N          -9.5500  -18.9969   21.5806 N.3     1  UNL1       -0.2617
      2 C          -8.2128  -19.6702   21.6741 C.3     1  UNL1        0.0520
      3 C          -8.4844  -20.0099   23.1097 C.3     1  UNL1        0.0164
      4 C          -7.9413  -19.3305   20.2386 C.3     1  UNL1        0.0164
      5 C          -6.8758  -20.3435   21.7677 C.3     1  UNL1        0.0604
      6 C          -5.6200  -19.5494   21.5613 C.2     1  UNL1        0.0599
      7 C          -4.6284  -19.7404   20.4522 C.2     1  UNL1        0.0159
      8 C          -3.5310  -18.7339   20.6332 C.2     1  UNL1        0.0150
      9 C          -2.2868  -18.4527   19.8440 C.2     1  UNL1        0.0009
     10 C          -1.3561  -17.3586   20.2757 C.2     1  UNL1       -0.0041
     11 C          -1.6695  -16.5456   21.4967 C.2     1  UNL1       -0.0198
     12 C          -2.9136  -16.8268   22.2859 C.3     1  UNL1        0.0717
     13 C          -3.8444  -17.9209   21.8542 C.2     1  UNL1        0.0630
     14 N          -5.1355  -18.4250   22.4278 N.2     1  UNL1       -0.2536
     15 C         -10.7352  -19.5811   22.2904 C.3     1  UNL1        0.1508
     16 C         -13.0912  -17.8464   22.9541 C.1     1  UNL1       -0.0127
     17 C         -11.9132  -18.7137   22.6223 C.1     1  UNL1       -0.0599
     18 C          -9.7019  -17.7393   20.7772 C.3     1  UNL1        0.1062
     19 C          -9.6704  -16.4044   21.4605 C.3     1  UNL1        0.1700
     20 O          -9.9606  -15.1559   20.6813 O.3     1  UNL1       -0.3793
     21 H          -9.8988  -14.3864   21.2687 H       1  UNL1        0.2106
     22 C          -9.3486  -16.3178   22.9230 C.3     1  UNL1        0.2358
     23 O          -7.9553  -16.5994   23.4024 O.3     1  UNL1       -0.4721
     24 C          -7.5348  -16.1729   24.7776 C.ar    1  UNL1        0.1482
     25 C          -6.4155  -15.1891   24.9483 C.ar    1  UNL1        0.0376
     26 C          -5.9950  -14.7626   26.3235 C.ar    1  UNL1        0.0032
     27 C          -6.6938  -15.3199   27.5281 C.ar    1  UNL1        0.0009
     28 C          -7.8132  -16.3038   27.3574 C.ar    1  UNL1        0.0133
     29 C          -8.2337  -16.7303   25.9822 C.ar    1  UNL1        0.1023
     30 C          -9.3530  -17.7141   25.8115 C.1     1  UNL1        0.1035
     31 N         -10.4724  -18.6979   25.6408 N.1     1  UNL1       -0.1907
@<TRIPOS>BOND
     1    16    17    3
     2    17    15    1
     3    15     1    1
     4     1    18    1
     5    18    19    1
     6    19    20    1
     7    19    22    1
     8    22    23    1
     9    23    24    1
    10    24    25   ar
    11    25    26   ar
    12    26    27   ar
    13    27    28   ar
    14    28    29   ar
    15    29    30    1
    16    30    31    3
    17     1     2    1
    18     2     3    1
    19     2     4    1
    20     2     5    1
    21     5     6    1
    22     6     7    2
    23     7     8    1
    24     8     9    2
    25     9    10    1
    26    10    11    2
    27    11    12    1
    28    12    13    1
    29    13    14    2
    30    29    24   ar
    31    14     6    1
    32    13     8    1
    33    20    21    1
@<TRIPOS>MOLECULE
*****
 31 33 0 0 0
SMALL
GASTEIGER

@<TRIPOS>ATOM
      1 N          -9.1122  -18.7906   21.3367 N.3     1  UNL1       -0.2617
      2 C          -7.9001  -19.5735   20.9269 C.3     1  UNL1        0.0520
      3 C          -7.4079  -19.5530   22.3437 C.3     1  UNL1        0.0164
      4 C          -8.3923  -19.5941   19.5101 C.3     1  UNL1        0.0164
      5 C          -6.6880  -20.3564   20.5172 C.3     1  UNL1        0.0604
      6 C          -5.3467  -19.6873   20.4611 C.2     1  UNL1        0.0599
      7 C          -4.2821  -19.7564   21.5155 C.2     1  UNL1        0.0159
      8 C          -3.1119  -18.9434   21.0467 C.2     1  UNL1        0.0150
      9 C          -1.7796  -18.6498   21.6702 C.2     1  UNL1        0.0009
     10 C          -0.7887  -17.7845   20.9495 C.2     1  UNL1       -0.0041
     11 C          -1.1301  -17.2129   19.6054 C.2     1  UNL1       -0.0198
     12 C          -2.4624  -17.5065   18.9819 C.3     1  UNL1        0.0717
     13 C          -3.4533  -18.3718   19.7026 C.2     1  UNL1        0.0630
     14 N          -4.8344  -18.8315   19.3407 N.2     1  UNL1       -0.2536
     15 C         -10.3427  -19.5063   21.8097 C.3     1  UNL1        0.1508
     16 C         -10.5784  -20.3483   24.6795 C.1     1  UNL1       -0.0127
     17 C         -10.4605  -19.9273   23.2446 C.1     1  UNL1       -0.0599
     18 C          -9.0938  -17.2921   21.2735 C.3     1  UNL1        0.1062
     19 C          -9.9536  -16.4915   22.2061 C.3     1  UNL1        0.1700
     20 O         -11.1450  -15.7494   21.6771 O.3     1  UNL1       -0.3793
     21 H         -11.5877  -15.2870   22.4059 H       1  UNL1        0.2106
     22 C          -9.6219  -16.4329   23.6678 C.3     1  UNL1        0.2358
     23 O          -8.7251  -15.3500   24.1906 O.3     1  UNL1       -0.4721
     24 C          -7.3011  -15.6613   24.5447 C.ar    1  UNL1        0.1482
     25 C          -6.3411  -16.0975   23.4778 C.ar    1  UNL1        0.0376
     26 C          -4.9172  -16.4088   23.8319 C.ar    1  UNL1        0.0032
     27 C          -4.4532  -16.2840   25.2528 C.ar    1  UNL1        0.0009
     28 C          -5.4131  -15.8478   26.3198 C.ar    1  UNL1        0.0133
     29 C          -6.8371  -15.5364   25.9657 C.ar    1  UNL1        0.1023
     30 C          -7.7971  -15.1003   27.0325 C.1     1  UNL1        0.1035
     31 N          -8.7571  -14.6641   28.0994 N.1     1  UNL1       -0.1907
@<TRIPOS>BOND
     1    16    17    3
     2    17    15    1
     3    15     1    1
     4     1    18    1
     5    18    19    1
     6    19    20    1
     7    19    22    1
     8    22    23    1
     9    23    24    1
    10    24    25   ar
    11    25    26   ar
    12    26    27   ar
    13    27    28   ar
    14    28    29   ar
    15    29    30    1
    16    30    31    3
    17     1     2    1
    18     2     3    1
    19     2     4    1
    20     2     5    1
    21     5     6    1
    22     6     7    2
    23     7     8    1
    24     8     9    2
    25     9    10    1
    26    10    11    2
    27    11    12    1
    28    12    13    1
    29    13    14    2
    30    29    24   ar
    31    14     6    1
    32    13     8    1
    33    20    21    1
