@<TRIPOS>MOLECULE
*****
 31 34 0 0 0
SMALL
GASTEIGER

@<TRIPOS>ATOM
      1 C          -7.6366  -16.0777   25.6640 C.ar    1  UNL1        0.1940
      2 N          -8.3229  -16.6284   26.8789 N.ar    1  UNL1       -0.1221
      3 N          -9.4625  -17.4879   26.4179 N.ar    1  UNL1       -0.1281
      4 C          -9.4806  -17.4684   24.9181 C.ar    1  UNL1        0.1698
      5 N          -8.3521  -16.5968   24.4522 N.ar    1  UNL1       -0.2829
      6 C         -10.4559  -18.1932   24.0386 C.ar    1  UNL1        0.0694
      7 C         -11.6842  -17.6037   23.4112 C.ar    1  UNL1        0.0464
      8 C         -12.3616  -18.6809   22.6170 C.ar    1  UNL1        0.1792
      9 O         -11.5518  -19.9361   22.7535 O.2     1  UNL1       -0.4546
     10 C         -10.3740  -19.6347   23.6321 C.ar    1  UNL1        0.1263
     11 C          -9.3025  -20.6045   24.0336 C.3     1  UNL1        0.0726
     12 S          -6.4443  -15.1677   25.6615 S.3     1  UNL1       -0.0658
     13 C          -5.0632  -15.7415   25.5467 C.3     1  UNL1        0.1501
     14 N          -3.8920  -17.5330   24.0740 N.am    1  UNL1       -0.2832
     15 C          -4.5459  -16.1901   24.2121 C.2     1  UNL1        0.2376
     16 O          -4.6825  -15.2959   23.0156 O.2     1  UNL1       -0.2738
     17 H          -3.8024  -18.1199   24.8594 H       1  UNL1        0.1549
     18 C          -0.5136  -17.0334   20.1578 C.3     1  UNL1        0.0311
     19 C          -1.6855  -17.7318   20.7813 C.ar    1  UNL1       -0.0209
     20 C          -2.3401  -18.8790   20.0703 C.ar    1  UNL1       -0.0084
     21 C          -3.5120  -19.5775   20.6938 C.ar    1  UNL1       -0.0209
     22 C          -4.1666  -20.7246   19.9827 C.3     1  UNL1        0.0311
     23 C          -4.0293  -19.1288   22.0284 C.ar    1  UNL1        0.0104
     24 C          -3.3747  -17.9817   22.7394 C.ar    1  UNL1        0.0497
     25 C          -2.2028  -17.2832   22.1159 C.ar    1  UNL1        0.0104
     26 C          -8.0009  -16.2971   23.0251 C.3     1  UNL1        0.1738
     27 C          -8.1374  -17.3637   21.9792 C.ar    1  UNL1        0.1459
     28 C          -7.1906  -18.5054   21.7555 C.ar    1  UNL1        0.0382
     29 C          -7.7127  -19.3231   20.6115 C.ar    1  UNL1        0.0435
     30 C          -8.9821  -18.6867   20.1282 C.ar    1  UNL1        0.1792
     31 O          -9.2445  -17.4758   20.9735 O.2     1  UNL1       -0.4527
@<TRIPOS>BOND
     1    18    19    1
     2    19    20   ar
     3    20    21   ar
     4    21    22    1
     5    21    23   ar
     6    23    24   ar
     7    24    14    1
     8    14    15   am
     9    15    16    2
    10    15    13    1
    11    13    12    1
    12    12     1    1
    13     1     2   ar
    14     2     3   ar
    15     3     4   ar
    16     4     6    1
    17     6     7   ar
    18     7     8   ar
    19     8     9   ar
    20     9    10   ar
    21    10    11    1
    22     4     5   ar
    23     5    26    1
    24    26    27    1
    25    27    28   ar
    26    28    29   ar
    27    29    30   ar
    28    30    31   ar
    29    24    25   ar
    30    25    19   ar
    31     5     1   ar
    32    31    27   ar
    33    10     6   ar
    34    14    17    1
@<TRIPOS>MOLECULE
*****
 31 34 0 0 0
SMALL
GASTEIGER

@<TRIPOS>ATOM
      1 C          -7.6286  -16.0831   25.6973 C.ar    1  UNL1        0.1940
      2 N          -8.3075  -16.6470   26.9102 N.ar    1  UNL1       -0.1221
      3 N          -9.4454  -17.5073   26.4466 N.ar    1  UNL1       -0.1281
      4 C          -9.4697  -17.4752   24.9471 C.ar    1  UNL1        0.1698
      5 N          -8.3469  -16.5949   24.4841 N.ar    1  UNL1       -0.2829
      6 C         -10.4456  -18.1966   24.0654 C.ar    1  UNL1        0.0694
      7 C         -11.6710  -17.6030   23.4361 C.ar    1  UNL1        0.0464
      8 C         -12.3501  -18.6778   22.6401 C.ar    1  UNL1        0.1792
      9 O         -11.5445  -19.9356   22.7775 O.2     1  UNL1       -0.4546
     10 C         -10.3674  -19.6381   23.6584 C.ar    1  UNL1        0.1263
     11 C          -9.2997  -20.6114   24.0615 C.3     1  UNL1        0.0726
     12 S          -6.4401  -15.1680   25.6976 S.3     1  UNL1       -0.0658
     13 C          -5.0572  -15.7348   25.5692 C.3     1  UNL1        0.1501
     14 N          -3.9065  -17.5360   24.0922 N.am    1  UNL1       -0.2832
     15 C          -4.5546  -16.1904   24.2314 C.2     1  UNL1        0.2376
     16 O          -4.7002  -15.3005   23.0327 O.2     1  UNL1       -0.2738
     17 H          -3.8110  -18.1200   24.8789 H       1  UNL1        0.1549
     18 C          -4.2516  -20.7226   20.0024 C.3     1  UNL1        0.0311
     19 C          -3.5765  -19.5849   20.7095 C.ar    1  UNL1       -0.0209
     20 C          -2.3988  -18.9029   20.0787 C.ar    1  UNL1       -0.0084
     21 C          -1.7237  -17.7653   20.7858 C.ar    1  UNL1       -0.0209
     22 C          -0.5459  -17.0833   20.1549 C.3     1  UNL1        0.0311
     23 C          -2.2262  -17.3096   22.1236 C.ar    1  UNL1        0.0104
     24 C          -3.4039  -17.9916   22.7543 C.ar    1  UNL1        0.0497
     25 C          -4.0790  -19.1293   22.0473 C.ar    1  UNL1        0.0104
     26 C          -8.0028  -16.2816   23.0581 C.3     1  UNL1        0.1738
     27 C          -8.1450  -17.3380   22.0028 C.ar    1  UNL1        0.1459
     28 C          -7.2216  -18.5007   21.7890 C.ar    1  UNL1        0.0382
     29 C          -7.7414  -19.2984   20.6300 C.ar    1  UNL1        0.0435
     30 C          -8.9860  -18.6289   20.1274 C.ar    1  UNL1        0.1792
     31 O          -9.2354  -17.4173   20.9758 O.2     1  UNL1       -0.4527
@<TRIPOS>BOND
     1    18    19    1
     2    19    20   ar
     3    20    21   ar
     4    21    22    1
     5    21    23   ar
     6    23    24   ar
     7    24    14    1
     8    14    15   am
     9    15    16    2
    10    15    13    1
    11    13    12    1
    12    12     1    1
    13     1     2   ar
    14     2     3   ar
    15     3     4   ar
    16     4     6    1
    17     6     7   ar
    18     7     8   ar
    19     8     9   ar
    20     9    10   ar
    21    10    11    1
    22     4     5   ar
    23     5    26    1
    24    26    27    1
    25    27    28   ar
    26    28    29   ar
    27    29    30   ar
    28    30    31   ar
    29    24    25   ar
    30    25    19   ar
    31     5     1   ar
    32    31    27   ar
    33    10     6   ar
    34    14    17    1
@<TRIPOS>MOLECULE
*****
 31 34 0 0 0
SMALL
GASTEIGER

@<TRIPOS>ATOM
      1 C          -4.4925  -16.3104   23.4704 C.ar    1  UNL1        0.1940
      2 N          -4.0147  -14.9596   23.0263 N.ar    1  UNL1       -0.1221
      3 N          -2.9742  -15.1618   21.9650 N.ar    1  UNL1       -0.1281
      4 C          -2.8089  -16.6376   21.7531 C.ar    1  UNL1        0.1698
      5 N          -3.7473  -17.3474   22.6835 N.ar    1  UNL1       -0.2829
      6 C          -1.8701  -17.2891   20.7814 C.ar    1  UNL1        0.0694
      7 C          -0.3786  -17.3731   20.9177 C.ar    1  UNL1        0.0464
      8 C           0.1553  -18.1069   19.7234 C.ar    1  UNL1        0.1792
      9 O          -1.0061  -18.4763   18.8490 O.2     1  UNL1       -0.4546
     10 C          -2.2578  -17.9709   19.5029 C.ar    1  UNL1        0.1263
     11 C          -3.6524  -18.1209   18.9715 C.3     1  UNL1        0.0726
     12 S          -5.5329  -16.5773   24.5174 S.3     1  UNL1       -0.0658
     13 C          -6.5682  -15.5374   24.8281 C.3     1  UNL1        0.1501
     14 N          -8.2433  -16.4292   23.0537 N.am    1  UNL1       -0.2832
     15 C          -7.9773  -15.7142   24.3451 C.2     1  UNL1        0.2376
     16 O          -9.1204  -15.1758   25.1536 O.2     1  UNL1       -0.2738
     17 H          -7.4931  -16.7826   22.5231 H       1  UNL1        0.1549
     18 C         -11.8621  -15.7502   19.3871 C.3     1  UNL1        0.0311
     19 C         -11.4618  -16.2665   20.7374 C.ar    1  UNL1       -0.0209
     20 C         -12.4705  -16.9595   21.6046 C.ar    1  UNL1       -0.0084
     21 C         -12.0702  -17.4758   22.9549 C.ar    1  UNL1       -0.0209
     22 C         -13.0790  -18.1688   23.8221 C.3     1  UNL1        0.0311
     23 C         -10.6612  -17.2990   23.4379 C.ar    1  UNL1        0.0104
     24 C          -9.6524  -16.6060   22.5707 C.ar    1  UNL1        0.0497
     25 C         -10.0527  -16.0897   21.2204 C.ar    1  UNL1        0.0104
     26 C          -3.9115  -18.8334   22.8055 C.3     1  UNL1        0.1738
     27 C          -4.8954  -19.5534   21.9317 C.ar    1  UNL1        0.1459
     28 C          -6.3771  -19.3226   21.8964 C.ar    1  UNL1        0.0382
     29 C          -6.9678  -20.2572   20.8827 C.ar    1  UNL1        0.0435
     30 C          -5.8511  -21.0657   20.2915 C.ar    1  UNL1        0.1792
     31 O          -4.5704  -20.6307   20.9399 O.2     1  UNL1       -0.4527
@<TRIPOS>BOND
     1    18    19    1
     2    19    20   ar
     3    20    21   ar
     4    21    22    1
     5    21    23   ar
     6    23    24   ar
     7    24    14    1
     8    14    15   am
     9    15    16    2
    10    15    13    1
    11    13    12    1
    12    12     1    1
    13     1     2   ar
    14     2     3   ar
    15     3     4   ar
    16     4     6    1
    17     6     7   ar
    18     7     8   ar
    19     8     9   ar
    20     9    10   ar
    21    10    11    1
    22     4     5   ar
    23     5    26    1
    24    26    27    1
    25    27    28   ar
    26    28    29   ar
    27    29    30   ar
    28    30    31   ar
    29    24    25   ar
    30    25    19   ar
    31     5     1   ar
    32    31    27   ar
    33    10     6   ar
    34    14    17    1
@<TRIPOS>MOLECULE
*****
 31 34 0 0 0
SMALL
GASTEIGER

@<TRIPOS>ATOM
      1 C          -5.6634  -16.0897   25.0547 C.ar    1  UNL1        0.1940
      2 N          -4.4701  -16.4923   25.8697 N.ar    1  UNL1       -0.1221
      3 N          -3.5860  -17.3440   25.0077 N.ar    1  UNL1       -0.1281
      4 C          -4.2329  -17.4678   23.6600 C.ar    1  UNL1        0.1698
      5 N          -5.5167  -16.6926   23.6890 N.ar    1  UNL1       -0.2829
      6 C          -3.6910  -18.2325   22.4888 C.ar    1  UNL1        0.0694
      7 C          -4.0895  -19.6199   22.0811 C.ar    1  UNL1        0.0464
      8 C          -3.3003  -19.9889   20.8601 C.ar    1  UNL1        0.1792
      9 O          -2.4141  -18.8295   20.5131 O.2     1  UNL1       -0.4546
     10 C          -2.6556  -17.7440   21.5197 C.ar    1  UNL1        0.1263
     11 C          -1.9802  -16.4051   21.5516 C.3     1  UNL1        0.0726
     12 S          -6.8031  -15.2345   25.5231 S.3     1  UNL1       -0.0658
     13 C          -7.9995  -15.8675   26.1694 C.3     1  UNL1        0.1501
     14 N          -9.6026  -15.8425   24.1250 N.am    1  UNL1       -0.2832
     15 C          -9.0382  -16.5441   25.3246 C.2     1  UNL1        0.2376
     16 O          -9.5124  -17.9222   25.6796 O.2     1  UNL1       -0.2738
     17 H          -9.2914  -14.9380   23.8921 H       1  UNL1        0.1549
     18 C         -14.1989  -18.2279   23.6960 C.3     1  UNL1        0.0311
     19 C         -12.9394  -17.7117   23.0658 C.ar    1  UNL1       -0.0209
     20 C         -12.7185  -17.8721   21.5909 C.ar    1  UNL1       -0.0084
     21 C         -11.4590  -17.3559   20.9606 C.ar    1  UNL1       -0.0209
     22 C         -11.2382  -17.5162   19.4856 C.3     1  UNL1        0.0311
     23 C         -10.4204  -16.6794   21.8053 C.ar    1  UNL1        0.0104
     24 C         -10.6413  -16.5190   23.2802 C.ar    1  UNL1        0.0497
     25 C         -11.9008  -17.0352   23.9105 C.ar    1  UNL1        0.0104
     26 C          -6.4841  -16.5460   22.5521 C.3     1  UNL1        0.1738
     27 C          -7.1357  -17.7607   21.9604 C.ar    1  UNL1        0.1459
     28 C          -7.8439  -18.8410   22.7229 C.ar    1  UNL1        0.0382
     29 C          -8.3394  -19.8562   21.7362 C.ar    1  UNL1        0.0435
     30 C          -7.9373  -19.4035   20.3638 C.ar    1  UNL1        0.1792
     31 O          -7.1934  -18.1084   20.5025 O.2     1  UNL1       -0.4527
@<TRIPOS>BOND
     1    18    19    1
     2    19    20   ar
     3    20    21   ar
     4    21    22    1
     5    21    23   ar
     6    23    24   ar
     7    24    14    1
     8    14    15   am
     9    15    16    2
    10    15    13    1
    11    13    12    1
    12    12     1    1
    13     1     2   ar
    14     2     3   ar
    15     3     4   ar
    16     4     6    1
    17     6     7   ar
    18     7     8   ar
    19     8     9   ar
    20     9    10   ar
    21    10    11    1
    22     4     5   ar
    23     5    26    1
    24    26    27    1
    25    27    28   ar
    26    28    29   ar
    27    29    30   ar
    28    30    31   ar
    29    24    25   ar
    30    25    19   ar
    31     5     1   ar
    32    31    27   ar
    33    10     6   ar
    34    14    17    1
@<TRIPOS>MOLECULE
*****
 31 34 0 0 0
SMALL
GASTEIGER

@<TRIPOS>ATOM
      1 C          -8.1309  -16.1259   25.1357 C.ar    1  UNL1        0.1940
      2 N          -8.8474  -14.8081   25.1281 N.ar    1  UNL1       -0.1221
      3 N         -10.0753  -14.9530   24.2788 N.ar    1  UNL1       -0.1281
      4 C         -10.1176  -16.3604   23.7615 C.ar    1  UNL1        0.1698
      5 N          -8.9159  -17.0852   24.2911 N.ar    1  UNL1       -0.2829
      6 C         -11.1759  -16.9410   22.8710 C.ar    1  UNL1        0.0694
      7 C         -12.2072  -17.9537   23.2717 C.ar    1  UNL1        0.0464
      8 C         -13.0573  -18.2494   22.0718 C.ar    1  UNL1        0.1792
      9 O         -12.5513  -17.4193   20.9294 O.2     1  UNL1       -0.4546
     10 C         -11.3885  -16.6107   21.4233 C.ar    1  UNL1        0.1263
     11 C         -10.5803  -15.6420   20.6121 C.3     1  UNL1        0.0726
     12 S          -6.8536  -16.4308   25.8607 S.3     1  UNL1       -0.0658
     13 C          -5.5804  -15.7488   25.4560 C.3     1  UNL1        0.1501
     14 N          -4.2396  -17.4605   24.0339 N.am    1  UNL1       -0.2832
     15 C          -4.9050  -16.1231   24.1700 C.2     1  UNL1        0.2376
     16 O          -4.8951  -15.1600   23.0200 O.2     1  UNL1       -0.2738
     17 H          -4.2461  -18.0926   24.7887 H       1  UNL1        0.1549
     18 C          -0.5929  -16.5701   20.4410 C.3     1  UNL1        0.0311
     19 C          -1.7408  -17.3896   20.9515 C.ar    1  UNL1       -0.0209
     20 C          -2.2134  -18.5834   20.1760 C.ar    1  UNL1       -0.0084
     21 C          -3.3614  -19.4030   20.6865 C.ar    1  UNL1       -0.0209
     22 C          -3.8339  -20.5968   19.9109 C.3     1  UNL1        0.0311
     23 C          -4.0368  -19.0287   21.9724 C.ar    1  UNL1        0.0104
     24 C          -3.5642  -17.8348   22.7479 C.ar    1  UNL1        0.0497
     25 C          -2.4162  -17.0153   22.2374 C.ar    1  UNL1        0.0104
     26 C          -8.5615  -18.5179   24.0232 C.3     1  UNL1        0.1738
     27 C          -8.0348  -18.9212   22.6778 C.ar    1  UNL1        0.1459
     28 C          -7.8411  -18.0143   21.4988 C.ar    1  UNL1        0.0382
     29 C          -7.2958  -18.8348   20.3676 C.ar    1  UNL1        0.0435
     30 C          -7.1525  -20.2487   20.8476 C.ar    1  UNL1        0.1792
     31 O          -7.6092  -20.3020   22.2753 O.2     1  UNL1       -0.4527
@<TRIPOS>BOND
     1    18    19    1
     2    19    20   ar
     3    20    21   ar
     4    21    22    1
     5    21    23   ar
     6    23    24   ar
     7    24    14    1
     8    14    15   am
     9    15    16    2
    10    15    13    1
    11    13    12    1
    12    12     1    1
    13     1     2   ar
    14     2     3   ar
    15     3     4   ar
    16     4     6    1
    17     6     7   ar
    18     7     8   ar
    19     8     9   ar
    20     9    10   ar
    21    10    11    1
    22     4     5   ar
    23     5    26    1
    24    26    27    1
    25    27    28   ar
    26    28    29   ar
    27    29    30   ar
    28    30    31   ar
    29    24    25   ar
    30    25    19   ar
    31     5     1   ar
    32    31    27   ar
    33    10     6   ar
    34    14    17    1
@<TRIPOS>MOLECULE
*****
 31 34 0 0 0
SMALL
GASTEIGER

@<TRIPOS>ATOM
      1 C           2.7448   -0.1728   18.2908 C.ar    1  UNL1        0.1940
      2 N           3.6388   -0.2670   17.0900 N.ar    1  UNL1       -0.1221
      3 N           4.7639   -1.2019   17.4220 N.ar    1  UNL1       -0.1281
      4 C           4.5651   -1.6854   18.8280 C.ar    1  UNL1        0.1698
      5 N           3.3173   -1.0494   19.3649 N.ar    1  UNL1       -0.2829
      6 C           5.4576   -2.6378   19.5673 C.ar    1  UNL1        0.0694
      7 C           6.6905   -2.2718   20.3394 C.ar    1  UNL1        0.0464
      8 C           7.2687   -3.5311   20.9135 C.ar    1  UNL1        0.1792
      9 O           6.3933   -4.6755   20.4962 O.2     1  UNL1       -0.4546
     10 C           5.2740   -4.1233   19.6642 C.ar    1  UNL1        0.1263
     11 C           4.1656   -4.9173   19.0390 C.3     1  UNL1        0.0726
     12 S           1.4972    0.6531   18.3986 S.3     1  UNL1       -0.0658
     13 C           1.4717    1.8606   19.2881 C.3     1  UNL1        0.1501
     14 N           0.9481    2.7947   21.6552 N.am    1  UNL1       -0.2832
     15 C           0.6238    1.8629   20.5255 C.2     1  UNL1        0.2376
     16 O          -0.5485    0.9332   20.6330 O.2     1  UNL1       -0.2738
     17 H           1.7175    3.4049   21.5846 H       1  UNL1        0.1549
     18 C           0.0634    1.1587   26.5071 C.3     1  UNL1        0.0311
     19 C          -0.3421    1.9790   25.3185 C.ar    1  UNL1       -0.0209
     20 C          -1.5955    2.8015   25.3673 C.ar    1  UNL1       -0.0084
     21 C          -2.0011    3.6218   24.1787 C.ar    1  UNL1       -0.0209
     22 C          -3.2545    4.4443   24.2276 C.3     1  UNL1        0.0311
     23 C          -1.1532    3.6195   22.9414 C.ar    1  UNL1        0.0104
     24 C           0.1002    2.7970   22.8926 C.ar    1  UNL1        0.0497
     25 C           0.5057    1.9768   24.0812 C.ar    1  UNL1        0.0104
     26 C           2.7428   -1.2540   20.7354 C.3     1  UNL1        0.1738
     27 C           3.2201   -0.4129   21.8819 C.ar    1  UNL1        0.1459
     28 C           3.2879   -0.8377   23.3189 C.ar    1  UNL1        0.0382
     29 C           3.8231    0.3134   24.1179 C.ar    1  UNL1        0.0435
     30 C           4.0860    1.4498   23.1747 C.ar    1  UNL1        0.1792
     31 O           3.7134    1.0009   21.7929 O.2     1  UNL1       -0.4527
@<TRIPOS>BOND
     1    18    19    1
     2    19    20   ar
     3    20    21   ar
     4    21    22    1
     5    21    23   ar
     6    23    24   ar
     7    24    14    1
     8    14    15   am
     9    15    16    2
    10    15    13    1
    11    13    12    1
    12    12     1    1
    13     1     2   ar
    14     2     3   ar
    15     3     4   ar
    16     4     6    1
    17     6     7   ar
    18     7     8   ar
    19     8     9   ar
    20     9    10   ar
    21    10    11    1
    22     4     5   ar
    23     5    26    1
    24    26    27    1
    25    27    28   ar
    26    28    29   ar
    27    29    30   ar
    28    30    31   ar
    29    24    25   ar
    30    25    19   ar
    31     5     1   ar
    32    31    27   ar
    33    10     6   ar
    34    14    17    1
@<TRIPOS>MOLECULE
*****
 31 34 0 0 0
SMALL
GASTEIGER

@<TRIPOS>ATOM
      1 C           3.1498    0.0078   18.3508 C.ar    1  UNL1        0.1940
      2 N           4.2847    0.1994   17.3889 N.ar    1  UNL1       -0.1221
      3 N           5.3789   -0.7544   17.7669 N.ar    1  UNL1       -0.1281
      4 C           4.9201   -1.5356   18.9625 C.ar    1  UNL1        0.1698
      5 N           3.5425   -1.0645   19.3234 N.ar    1  UNL1       -0.2829
      6 C           5.7019   -2.6009   19.6726 C.ar    1  UNL1        0.0694
      7 C           6.9368   -2.3869   20.4967 C.ar    1  UNL1        0.0464
      8 C           7.3840   -3.7209   21.0166 C.ar    1  UNL1        0.1792
      9 O           6.4255   -4.7594   20.5139 O.2     1  UNL1       -0.4546
     10 C           5.3859   -4.0672   19.6832 C.ar    1  UNL1        0.1263
     11 C           4.2328   -4.7257   18.9856 C.3     1  UNL1        0.0726
     12 S           1.8503    0.7569   18.3418 S.3     1  UNL1       -0.0658
     13 C           1.6057    1.8462   19.3435 C.3     1  UNL1        0.1501
     14 N          -0.4129    3.2655   20.1567 N.am    1  UNL1       -0.2832
     15 C           0.2807    1.9406   20.0404 C.2     1  UNL1        0.2376
     16 O          -0.3506    0.7100   20.6210 O.2     1  UNL1       -0.2738
     17 H           0.0015    4.0731   19.7757 H       1  UNL1        0.1549
     18 C          -5.6012    3.4643   19.9516 C.3     1  UNL1        0.0311
     19 C          -4.3320    3.4593   20.7510 C.ar    1  UNL1       -0.0209
     20 C          -4.3877    3.5486   22.2473 C.ar    1  UNL1       -0.0084
     21 C          -3.1185    3.5435   23.0468 C.ar    1  UNL1       -0.0209
     22 C          -3.1743    3.6328   24.5431 C.3     1  UNL1        0.0311
     23 C          -1.7936    3.4491   22.3499 C.ar    1  UNL1        0.0104
     24 C          -1.7379    3.3598   20.8536 C.ar    1  UNL1        0.0497
     25 C          -3.0071    3.3649   20.0542 C.ar    1  UNL1        0.0104
     26 C           2.7048   -1.5760   20.4576 C.3     1  UNL1        0.1738
     27 C           3.0036   -1.1471   21.8636 C.ar    1  UNL1        0.1459
     28 C           3.8952   -1.8643   22.8335 C.ar    1  UNL1        0.0382
     29 C           3.9060   -1.0862   24.1158 C.ar    1  UNL1        0.0435
     30 C           3.0211    0.1120   23.9384 C.ar    1  UNL1        0.1792
     31 O           2.4635    0.0743   22.5465 O.2     1  UNL1       -0.4527
@<TRIPOS>BOND
     1    18    19    1
     2    19    20   ar
     3    20    21   ar
     4    21    22    1
     5    21    23   ar
     6    23    24   ar
     7    24    14    1
     8    14    15   am
     9    15    16    2
    10    15    13    1
    11    13    12    1
    12    12     1    1
    13     1     2   ar
    14     2     3   ar
    15     3     4   ar
    16     4     6    1
    17     6     7   ar
    18     7     8   ar
    19     8     9   ar
    20     9    10   ar
    21    10    11    1
    22     4     5   ar
    23     5    26    1
    24    26    27    1
    25    27    28   ar
    26    28    29   ar
    27    29    30   ar
    28    30    31   ar
    29    24    25   ar
    30    25    19   ar
    31     5     1   ar
    32    31    27   ar
    33    10     6   ar
    34    14    17    1
@<TRIPOS>MOLECULE
*****
 31 34 0 0 0
SMALL
GASTEIGER

@<TRIPOS>ATOM
      1 C          -0.9625    2.9905   21.0481 C.ar    1  UNL1        0.1940
      2 N          -2.1490    2.7122   20.1736 N.ar    1  UNL1       -0.1221
      3 N          -3.3859    3.0715   20.9423 N.ar    1  UNL1       -0.1281
      4 C          -2.9638    3.5719   22.2920 C.ar    1  UNL1        0.1698
      5 N          -1.4661    3.5218   22.3574 N.ar    1  UNL1       -0.2829
      6 C          -3.8788    4.0401   23.3845 C.ar    1  UNL1        0.0694
      7 C          -4.8068    3.1776   24.1875 C.ar    1  UNL1        0.0464
      8 C          -5.5280    4.0575   25.1650 C.ar    1  UNL1        0.1792
      9 O          -5.0458    5.4639   24.9661 O.2     1  UNL1       -0.4546
     10 C          -4.0265    5.4531   23.8657 C.ar    1  UNL1        0.1263
     11 C          -3.2851    6.6459   23.3390 C.3     1  UNL1        0.0726
     12 S           0.4752    2.7752   20.6784 S.3     1  UNL1       -0.0658
     13 C           0.8377    1.7570   19.6383 C.3     1  UNL1        0.1501
     14 N           2.8671    0.1866   20.0452 N.am    1  UNL1       -0.2832
     15 C           1.3860    0.4237   20.0530 C.2     1  UNL1        0.2376
     16 O           0.4531   -0.6723   20.4755 O.2     1  UNL1       -0.2738
     17 H           3.4793    0.9060   19.7679 H       1  UNL1        0.1549
     18 C           4.1370   -4.7159   18.8820 C.3     1  UNL1        0.0311
     19 C           4.0503   -3.5979   19.8783 C.ar    1  UNL1       -0.0209
     20 C           4.5119   -3.8131   21.2891 C.ar    1  UNL1       -0.0084
     21 C           4.4252   -2.6950   22.2854 C.ar    1  UNL1       -0.0209
     22 C           4.8868   -2.9103   23.6963 C.3     1  UNL1        0.0311
     23 C           3.8770   -1.3618   21.8708 C.ar    1  UNL1        0.0104
     24 C           3.4154   -1.1467   20.4599 C.ar    1  UNL1        0.0497
     25 C           3.5021   -2.2647   19.4637 C.ar    1  UNL1        0.0104
     26 C          -0.6204    3.9311   23.5267 C.3     1  UNL1        0.1738
     27 C          -0.6434    3.1210   24.7889 C.ar    1  UNL1        0.1459
     28 C          -1.3234    3.5037   26.0700 C.ar    1  UNL1        0.0382
     29 C          -1.0906    2.4052   27.0645 C.ar    1  UNL1        0.0435
     30 C          -0.2666    1.3436   26.3981 C.ar    1  UNL1        0.1792
     31 O           0.0097    1.7860   24.9917 O.2     1  UNL1       -0.4527
@<TRIPOS>BOND
     1    18    19    1
     2    19    20   ar
     3    20    21   ar
     4    21    22    1
     5    21    23   ar
     6    23    24   ar
     7    24    14    1
     8    14    15   am
     9    15    16    2
    10    15    13    1
    11    13    12    1
    12    12     1    1
    13     1     2   ar
    14     2     3   ar
    15     3     4   ar
    16     4     6    1
    17     6     7   ar
    18     7     8   ar
    19     8     9   ar
    20     9    10   ar
    21    10    11    1
    22     4     5   ar
    23     5    26    1
    24    26    27    1
    25    27    28   ar
    26    28    29   ar
    27    29    30   ar
    28    30    31   ar
    29    24    25   ar
    30    25    19   ar
    31     5     1   ar
    32    31    27   ar
    33    10     6   ar
    34    14    17    1
@<TRIPOS>MOLECULE
*****
 31 34 0 0 0
SMALL
GASTEIGER

@<TRIPOS>ATOM
      1 C          -5.3918  -16.8370   23.8239 C.ar    1  UNL1        0.1940
      2 N          -3.9296  -17.1073   24.0215 N.ar    1  UNL1       -0.1221
      3 N          -3.5395  -18.2343   23.1117 N.ar    1  UNL1       -0.1281
      4 C          -4.7605  -18.6604   22.3518 C.ar    1  UNL1        0.1698
      5 N          -5.9053  -17.7968   22.7919 N.ar    1  UNL1       -0.2829
      6 C          -4.8254  -19.7575   21.3309 C.ar    1  UNL1        0.0694
      7 C          -5.8490  -20.8527   21.2774 C.ar    1  UNL1        0.0464
      8 C          -5.5343  -21.7240   20.0977 C.ar    1  UNL1        0.1792
      9 O          -4.3162  -21.1673   19.4221 O.2     1  UNL1       -0.4546
     10 C          -3.8782  -19.9520   20.1842 C.ar    1  UNL1        0.1263
     11 C          -2.6997  -19.0835   19.8571 C.3     1  UNL1        0.0726
     12 S          -6.1987  -15.7905   24.5336 S.3     1  UNL1       -0.0658
     13 C          -6.9486  -14.7586   23.7445 C.3     1  UNL1        0.1501
     14 N          -9.3501  -15.7425   23.6213 N.am    1  UNL1       -0.2832
     15 C          -8.1495  -15.1573   22.9387 C.2     1  UNL1        0.2376
     16 O          -8.1495  -14.9708   21.4503 O.2     1  UNL1       -0.2738
     17 H          -9.3500  -15.8649   24.5982 H       1  UNL1        0.1549
     18 C         -13.9604  -18.1162   23.2891 C.3     1  UNL1        0.0311
     19 C         -12.8560  -17.3280   22.6494 C.ar    1  UNL1       -0.0209
     20 C         -12.9524  -16.9385   21.2042 C.ar    1  UNL1       -0.0084
     21 C         -11.8481  -16.1503   20.5645 C.ar    1  UNL1       -0.0209
     22 C         -11.9445  -15.7608   19.1192 C.3     1  UNL1        0.0311
     23 C         -10.6473  -15.7516   21.3702 C.ar    1  UNL1        0.0104
     24 C         -10.5509  -16.1411   22.8155 C.ar    1  UNL1        0.0497
     25 C         -11.6553  -16.9293   23.4551 C.ar    1  UNL1        0.0104
     26 C          -7.3159  -17.8787   22.2885 C.3     1  UNL1        0.1738
     27 C          -8.3315  -18.6942   23.0323 C.ar    1  UNL1        0.1459
     28 C          -9.1394  -19.8249   22.4676 C.ar    1  UNL1        0.0382
     29 C         -10.0248  -20.3517   23.5578 C.ar    1  UNL1        0.0435
     30 C          -9.7642  -19.5466   24.7963 C.ar    1  UNL1        0.1792
     31 O          -8.7177  -18.5222   24.4715 O.2     1  UNL1       -0.4527
@<TRIPOS>BOND
     1    18    19    1
     2    19    20   ar
     3    20    21   ar
     4    21    22    1
     5    21    23   ar
     6    23    24   ar
     7    24    14    1
     8    14    15   am
     9    15    16    2
    10    15    13    1
    11    13    12    1
    12    12     1    1
    13     1     2   ar
    14     2     3   ar
    15     3     4   ar
    16     4     6    1
    17     6     7   ar
    18     7     8   ar
    19     8     9   ar
    20     9    10   ar
    21    10    11    1
    22     4     5   ar
    23     5    26    1
    24    26    27    1
    25    27    28   ar
    26    28    29   ar
    27    29    30   ar
    28    30    31   ar
    29    24    25   ar
    30    25    19   ar
    31     5     1   ar
    32    31    27   ar
    33    10     6   ar
    34    14    17    1
