@<TRIPOS>MOLECULE
*****
 33 38 0 0 0
SMALL
GASTEIGER

@<TRIPOS>ATOM
      1 C          -9.8452  -17.4099   21.6416 C.ar    1  UNL1        0.0436
      2 C         -11.1373  -16.8155   21.1651 C.ar    1  UNL1        0.0142
      3 C         -11.7831  -17.3306   19.9130 C.ar    1  UNL1        0.0010
      4 C         -11.1367  -18.4399   19.1375 C.ar    1  UNL1       -0.0032
      5 C          -9.8446  -19.0343   19.6140 C.ar    1  UNL1       -0.0091
      6 C          -9.1988  -18.5193   20.8661 C.ar    1  UNL1       -0.0101
      7 C          -7.9067  -19.1136   21.3427 C.3     1  UNL1        0.0444
      8 C          -7.2603  -20.2230   20.5672 C.3     1  UNL1        0.0749
      9 N          -7.9060  -20.7380   19.3151 N.3     1  UNL1       -0.2934
     10 C          -9.1982  -20.1437   18.8385 C.3     1  UNL1        0.0954
     11 H          -8.0753  -21.7335   19.4591 H       1  UNL1        0.1236
     12 C          -6.5664  -14.7949   27.9995 C.3     1  UNL1        0.0896
     13 N          -7.2121  -15.3099   26.7474 N.3     1  UNL1       -0.2714
     14 C          -8.4269  -16.1872   26.6785 C.3     1  UNL1        0.0739
     15 C          -8.7220  -16.4575   25.2329 C.3     1  UNL1        0.0387
     16 C          -9.6551  -17.1667   24.2968 C.3     1  UNL1        0.0922
     17 N          -9.1995  -16.8949   22.8938 N.pl3   1  UNL1       -0.3076
     18 C          -7.9847  -16.0176   22.9627 C.3     1  UNL1        0.0922
     19 C          -7.6896  -15.7473   24.4083 C.3     1  UNL1        0.0387
     20 C          -6.7565  -15.0380   25.3444 C.3     1  UNL1        0.0739
     21 C          -5.9682  -20.8174   21.0438 C.3     1  UNL1        0.0886
     22 N          -4.6642  -20.1826   20.6606 N.3     1  UNL1       -0.2667
     23 C          -3.8772  -20.7250   19.5045 C.3     1  UNL1        0.0899
     24 C          -4.1473  -19.0056   21.4335 C.3     1  UNL1        0.0978
     25 C          -4.8613  -18.5489   22.6711 C.3     1  UNL1        0.0224
     26 C          -4.3444  -17.3719   23.4440 C.3     1  UNL1        0.0065
     27 C          -3.1134  -16.6516   22.9794 C.3     1  UNL1        0.0277
     28 C          -2.3994  -17.1083   21.7418 C.ar    1  UNL1       -0.0073
     29 C          -1.1684  -16.3880   21.2772 C.ar    1  UNL1       -0.0015
     30 C          -0.4543  -16.8448   20.0396 C.ar    1  UNL1        0.0203
     31 C          -0.9713  -18.0218   19.2667 C.ar    1  UNL1        0.0985
     32 N          -2.2022  -18.7421   19.7313 N.ar    1  UNL1       -0.2471
     33 C          -2.9163  -18.2853   20.9689 C.ar    1  UNL1        0.0695
@<TRIPOS>BOND
     1    12    13    1
     2    13    14    1
     3    15    14    1
     4    15    16    1
     5    16    17    1
     6    17     1    1
     7     1     2   ar
     8     2     3   ar
     9     3     4   ar
    10     4     5   ar
    11     5     6   ar
    12     6     7    1
    13     7     8    1
    14     8    21    1
    15    21    22    1
    16    22    23    1
    17    24    22    1
    18    24    25    1
    19    25    26    1
    20    26    27    1
    21    27    28    1
    22    28    29   ar
    23    29    30   ar
    24    30    31   ar
    25    31    32   ar
    26    32    33   ar
    27     8     9    1
    28     9    10    1
    29    17    18    1
    30    19    18    1
    31    19    20    1
    32    20    13    1
    33    19    15    1
    34     6     1   ar
    35    33    24    1
    36    10     5    1
    37    33    28   ar
    38     9    11    1
@<TRIPOS>MOLECULE
*****
 33 38 0 0 0
SMALL
GASTEIGER

@<TRIPOS>ATOM
      1 C          -6.2977  -20.2653   20.9868 C.ar    1  UNL1        0.0436
      2 C          -6.2337  -21.2614   19.8672 C.ar    1  UNL1        0.0142
      3 C          -4.9113  -21.6190   19.2562 C.ar    1  UNL1        0.0010
      4 C          -3.6529  -20.9804   19.7649 C.ar    1  UNL1       -0.0032
      5 C          -3.7170  -19.9843   20.8845 C.ar    1  UNL1       -0.0091
      6 C          -5.0394  -19.6268   21.4954 C.ar    1  UNL1       -0.0101
      7 C          -5.1035  -18.6306   22.6151 C.3     1  UNL1        0.0444
      8 C          -3.8451  -17.9920   23.1238 C.3     1  UNL1        0.0749
      9 N          -2.5226  -18.3496   22.5128 N.3     1  UNL1       -0.2934
     10 C          -2.4586  -19.3457   21.3931 C.3     1  UNL1        0.0954
     11 H          -1.9396  -18.7150   23.2657 H       1  UNL1        0.1236
     12 C         -13.0127  -18.4495   24.0891 C.3     1  UNL1        0.0896
     13 N         -11.6903  -18.8071   23.4781 N.3     1  UNL1       -0.2714
     14 C         -11.3393  -18.7204   22.0224 C.3     1  UNL1        0.0739
     15 C          -9.9188  -19.1739   21.8602 C.3     1  UNL1        0.0387
     16 C          -8.8239  -19.4006   20.8603 C.3     1  UNL1        0.0922
     17 N          -7.6202  -19.9077   21.5978 N.pl3   1  UNL1       -0.3076
     18 C          -7.9711  -19.9945   23.0536 C.3     1  UNL1        0.0922
     19 C          -9.3917  -19.5410   23.2158 C.3     1  UNL1        0.0387
     20 C         -10.4866  -19.3143   24.2157 C.3     1  UNL1        0.0739
     21 C          -3.9092  -16.9959   24.2434 C.3     1  UNL1        0.0886
     22 N          -4.7800  -15.7811   24.1176 N.3     1  UNL1       -0.2667
     23 C          -4.3944  -14.6756   23.1798 C.3     1  UNL1        0.0899
     24 C          -6.0365  -15.6717   24.9295 C.3     1  UNL1        0.0978
     25 C          -5.9558  -15.5180   26.4194 C.3     1  UNL1        0.0224
     26 C          -7.2123  -15.4086   27.2313 C.3     1  UNL1        0.0065
     27 C          -8.5496  -15.4529   26.5533 C.3     1  UNL1        0.0277
     28 C          -8.6304  -15.6066   25.0635 C.ar    1  UNL1       -0.0073
     29 C          -9.9677  -15.6510   24.3855 C.ar    1  UNL1       -0.0015
     30 C         -10.0484  -15.8047   22.8955 C.ar    1  UNL1        0.0203
     31 C          -8.7919  -15.9140   22.0836 C.ar    1  UNL1        0.0985
     32 N          -7.4546  -15.8697   22.7616 N.ar    1  UNL1       -0.2471
     33 C          -7.3738  -15.7160   24.2515 C.ar    1  UNL1        0.0695
@<TRIPOS>BOND
     1    12    13    1
     2    13    14    1
     3    15    14    1
     4    15    16    1
     5    16    17    1
     6    17     1    1
     7     1     2   ar
     8     2     3   ar
     9     3     4   ar
    10     4     5   ar
    11     5     6   ar
    12     6     7    1
    13     7     8    1
    14     8    21    1
    15    21    22    1
    16    22    23    1
    17    24    22    1
    18    24    25    1
    19    25    26    1
    20    26    27    1
    21    27    28    1
    22    28    29   ar
    23    29    30   ar
    24    30    31   ar
    25    31    32   ar
    26    32    33   ar
    27     8     9    1
    28     9    10    1
    29    17    18    1
    30    19    18    1
    31    19    20    1
    32    20    13    1
    33    19    15    1
    34     6     1   ar
    35    33    24    1
    36    10     5    1
    37    33    28   ar
    38     9    11    1
@<TRIPOS>MOLECULE
*****
 33 38 0 0 0
SMALL
GASTEIGER

@<TRIPOS>ATOM
      1 C           2.9761   -1.2495   20.4819 C.ar    1  UNL1        0.0436
      2 C           3.1712   -1.9843   19.1889 C.ar    1  UNL1        0.0142
      3 C           3.9932   -3.2386   19.1558 C.ar    1  UNL1        0.0010
      4 C           4.6199   -3.7581   20.4157 C.ar    1  UNL1       -0.0032
      5 C           4.4248   -3.0232   21.7087 C.ar    1  UNL1       -0.0091
      6 C           3.6028   -1.7690   21.7418 C.ar    1  UNL1       -0.0101
      7 C           3.4076   -1.0340   23.0348 C.3     1  UNL1        0.0444
      8 C           4.0344   -1.5535   24.2947 C.3     1  UNL1        0.0749
      9 N           4.8563   -2.8078   24.2616 N.3     1  UNL1       -0.2934
     10 C           5.0515   -3.5427   22.9686 C.3     1  UNL1        0.0954
     11 H           4.4196   -3.4633   24.9098 H       1  UNL1        0.1236
     12 C          -1.1972    5.1197   20.6501 C.3     1  UNL1        0.0896
     13 N          -0.3754    3.8654   20.6170 N.3     1  UNL1       -0.2714
     14 C           1.1224    3.7934   20.5797 C.3     1  UNL1        0.0739
     15 C           1.5165    2.3464   20.5550 C.3     1  UNL1        0.0387
     16 C           2.6857    1.4075   20.5167 C.3     1  UNL1        0.0922
     17 N           2.1541    0.0049   20.5150 N.pl3   1  UNL1       -0.3076
     18 C           0.6563    0.0768   20.5523 C.3     1  UNL1        0.0922
     19 C           0.2622    1.5239   20.5770 C.3     1  UNL1        0.0387
     20 C          -0.9070    2.4627   20.6153 C.3     1  UNL1        0.0739
     21 C           3.8392   -0.8186   25.5877 C.3     1  UNL1        0.0886
     22 N           3.5285    0.6488   25.5769 N.3     1  UNL1       -0.2667
     23 C           4.6439    1.6517   25.5933 C.3     1  UNL1        0.0899
     24 C           2.1025    1.1133   25.5497 C.3     1  UNL1        0.0978
     25 C           1.5460    1.7543   24.3130 C.3     1  UNL1        0.0224
     26 C           0.1200    2.2189   24.2858 C.3     1  UNL1        0.0065
     27 C          -0.7495    2.0424   25.4953 C.3     1  UNL1        0.0277
     28 C          -0.1930    1.4014   26.7320 C.ar    1  UNL1       -0.0073
     29 C          -1.0625    1.2249   27.9415 C.ar    1  UNL1       -0.0015
     30 C          -0.5059    0.5839   29.1782 C.ar    1  UNL1        0.0203
     31 C           0.9201    0.1194   29.2054 C.ar    1  UNL1        0.0985
     32 N           1.7896    0.2958   27.9959 N.ar    1  UNL1       -0.2471
     33 C           1.2331    0.9368   26.7592 C.ar    1  UNL1        0.0695
@<TRIPOS>BOND
     1    12    13    1
     2    13    14    1
     3    15    14    1
     4    15    16    1
     5    16    17    1
     6    17     1    1
     7     1     2   ar
     8     2     3   ar
     9     3     4   ar
    10     4     5   ar
    11     5     6   ar
    12     6     7    1
    13     7     8    1
    14     8    21    1
    15    21    22    1
    16    22    23    1
    17    24    22    1
    18    24    25    1
    19    25    26    1
    20    26    27    1
    21    27    28    1
    22    28    29   ar
    23    29    30   ar
    24    30    31   ar
    25    31    32   ar
    26    32    33   ar
    27     8     9    1
    28     9    10    1
    29    17    18    1
    30    19    18    1
    31    19    20    1
    32    20    13    1
    33    19    15    1
    34     6     1   ar
    35    33    24    1
    36    10     5    1
    37    33    28   ar
    38     9    11    1
@<TRIPOS>MOLECULE
*****
 33 38 0 0 0
SMALL
GASTEIGER

@<TRIPOS>ATOM
      1 C          -6.4876  -20.3325   20.8748 C.ar    1  UNL1        0.0436
      2 C          -6.4217  -21.4439   19.8697 C.ar    1  UNL1        0.0142
      3 C          -5.0943  -21.8954   19.3367 C.ar    1  UNL1        0.0010
      4 C          -3.8328  -21.2354   19.8089 C.ar    1  UNL1       -0.0032
      5 C          -3.8987  -20.1240   20.8140 C.ar    1  UNL1       -0.0091
      6 C          -5.2261  -19.6725   21.3470 C.ar    1  UNL1       -0.0101
      7 C          -5.2920  -18.5611   22.3522 C.3     1  UNL1        0.0444
      8 C          -4.0305  -17.9011   22.8244 C.3     1  UNL1        0.0749
      9 N          -2.7030  -18.3526   22.2913 N.3     1  UNL1       -0.2934
     10 C          -2.6371  -19.4640   21.2862 C.3     1  UNL1        0.0954
     11 H          -2.1485  -18.6488   23.0946 H       1  UNL1        0.1236
     12 C         -13.2280  -18.0399   23.5810 C.3     1  UNL1        0.0896
     13 N         -11.9006  -18.4914   23.0481 N.3     1  UNL1       -0.2714
     14 C         -11.4241  -18.3492   21.6329 C.3     1  UNL1        0.0739
     15 C         -10.0456  -18.9343   21.5469 C.3     1  UNL1        0.0387
     16 C          -8.8992  -19.2080   20.6191 C.3     1  UNL1        0.0922
     17 N          -7.8151  -19.8810   21.4078 N.pl3   1  UNL1       -0.3076
     18 C          -8.2916  -20.0232   22.8230 C.3     1  UNL1        0.0922
     19 C          -9.6701  -19.4381   22.9090 C.3     1  UNL1        0.0387
     20 C         -10.8165  -19.1644   23.8367 C.3     1  UNL1        0.0739
     21 C          -4.0964  -16.7897   23.8295 C.3     1  UNL1        0.0886
     22 N          -4.9423  -15.5812   23.5571 N.3     1  UNL1       -0.2667
     23 C          -4.3080  -14.3213   23.0467 C.3     1  UNL1        0.0899
     24 C          -6.4224  -15.6327   23.7951 C.3     1  UNL1        0.0978
     25 C          -7.3593  -15.8607   22.6460 C.3     1  UNL1        0.0224
     26 C          -8.8394  -15.9122   22.8840 C.3     1  UNL1        0.0065
     27 C          -9.3826  -15.7356   24.2710 C.3     1  UNL1        0.0277
     28 C          -8.4458  -15.5076   25.4200 C.ar    1  UNL1       -0.0073
     29 C          -8.9890  -15.3310   26.8070 C.ar    1  UNL1       -0.0015
     30 C          -8.0520  -15.1030   27.9560 C.ar    1  UNL1        0.0203
     31 C          -6.5720  -15.0516   27.7181 C.ar    1  UNL1        0.0985
     32 N          -6.0287  -15.2281   26.3311 N.ar    1  UNL1       -0.2471
     33 C          -6.9656  -15.4561   25.1821 C.ar    1  UNL1        0.0695
@<TRIPOS>BOND
     1    12    13    1
     2    13    14    1
     3    15    14    1
     4    15    16    1
     5    16    17    1
     6    17     1    1
     7     1     2   ar
     8     2     3   ar
     9     3     4   ar
    10     4     5   ar
    11     5     6   ar
    12     6     7    1
    13     7     8    1
    14     8    21    1
    15    21    22    1
    16    22    23    1
    17    24    22    1
    18    24    25    1
    19    25    26    1
    20    26    27    1
    21    27    28    1
    22    28    29   ar
    23    29    30   ar
    24    30    31   ar
    25    31    32   ar
    26    32    33   ar
    27     8     9    1
    28     9    10    1
    29    17    18    1
    30    19    18    1
    31    19    20    1
    32    20    13    1
    33    19    15    1
    34     6     1   ar
    35    33    24    1
    36    10     5    1
    37    33    28   ar
    38     9    11    1
@<TRIPOS>MOLECULE
*****
 33 38 0 0 0
SMALL
GASTEIGER

@<TRIPOS>ATOM
      1 C           8.3338   -5.8641   27.8366 C.ar    1  UNL1        0.0436
      2 C           9.1602   -7.0849   28.1135 C.ar    1  UNL1        0.0142
      3 C           9.5338   -8.0078   26.9917 C.ar    1  UNL1        0.0010
      4 C           9.0811   -7.7100   25.5930 C.ar    1  UNL1       -0.0032
      5 C           8.2547   -6.4892   25.3161 C.ar    1  UNL1       -0.0091
      6 C           7.8811   -5.5662   26.4380 C.ar    1  UNL1       -0.0101
      7 C           7.0547   -4.3453   26.1612 C.3     1  UNL1        0.0444
      8 C           6.6019   -4.0474   24.7625 C.3     1  UNL1        0.0749
      9 N           6.9756   -4.9705   23.6406 N.3     1  UNL1       -0.2934
     10 C           7.8019   -6.1913   23.9175 C.3     1  UNL1        0.0954
     11 H           7.4924   -4.4131   22.9605 H       1  UNL1        0.1236
     12 C           6.4365   -1.1776   33.5330 C.3     1  UNL1        0.0896
     13 N           6.8102   -2.1005   32.4112 N.3     1  UNL1       -0.2714
     14 C           6.1901   -3.4359   32.1244 C.3     1  UNL1        0.0739
     15 C           6.8662   -4.0108   30.9152 C.3     1  UNL1        0.0387
     16 C           6.9008   -5.1914   29.9905 C.3     1  UNL1        0.0922
     17 N           7.9602   -4.9411   28.9585 N.pl3   1  UNL1       -0.3076
     18 C           8.5803   -3.6057   29.2453 C.3     1  UNL1        0.0922
     19 C           7.9042   -3.0308   30.4545 C.3     1  UNL1        0.0387
     20 C           7.8695   -1.8502   31.3791 C.3     1  UNL1        0.0739
     21 C           5.7756   -2.8266   24.4857 C.3     1  UNL1        0.0886
     22 N           6.0007   -2.0374   23.2301 N.3     1  UNL1       -0.2667
     23 C           7.3458   -1.4329   22.9553 C.3     1  UNL1        0.0899
     24 C           4.8809   -1.8528   22.2494 C.3     1  UNL1        0.0978
     25 C           3.8968   -0.7362   22.4362 C.3     1  UNL1        0.0224
     26 C           2.7770   -0.5515   21.4554 C.3     1  UNL1        0.0065
     27 C           2.6412   -1.4834   20.2879 C.3     1  UNL1        0.0277
     28 C           3.6253   -2.5999   20.1010 C.ar    1  UNL1       -0.0073
     29 C           3.4895   -3.5318   18.9335 C.ar    1  UNL1       -0.0015
     30 C           4.4736   -4.6484   18.7467 C.ar    1  UNL1        0.0203
     31 C           5.5934   -4.8330   19.7274 C.ar    1  UNL1        0.0985
     32 N           5.7292   -3.9012   20.8950 N.ar    1  UNL1       -0.2471
     33 C           4.7451   -2.7846   21.0818 C.ar    1  UNL1        0.0695
@<TRIPOS>BOND
     1    12    13    1
     2    13    14    1
     3    15    14    1
     4    15    16    1
     5    16    17    1
     6    17     1    1
     7     1     2   ar
     8     2     3   ar
     9     3     4   ar
    10     4     5   ar
    11     5     6   ar
    12     6     7    1
    13     7     8    1
    14     8    21    1
    15    21    22    1
    16    22    23    1
    17    24    22    1
    18    24    25    1
    19    25    26    1
    20    26    27    1
    21    27    28    1
    22    28    29   ar
    23    29    30   ar
    24    30    31   ar
    25    31    32   ar
    26    32    33   ar
    27     8     9    1
    28     9    10    1
    29    17    18    1
    30    19    18    1
    31    19    20    1
    32    20    13    1
    33    19    15    1
    34     6     1   ar
    35    33    24    1
    36    10     5    1
    37    33    28   ar
    38     9    11    1
@<TRIPOS>MOLECULE
*****
 33 38 0 0 0
SMALL
GASTEIGER

@<TRIPOS>ATOM
      1 C           8.3528   -6.0645   27.7894 C.ar    1  UNL1        0.0436
      2 C           9.1180   -7.2968   28.1710 C.ar    1  UNL1        0.0142
      3 C           9.5248   -8.2834   27.1169 C.ar    1  UNL1        0.0010
      4 C           9.1664   -8.0376   25.6812 C.ar    1  UNL1       -0.0032
      5 C           8.4012   -6.8052   25.2997 C.ar    1  UNL1       -0.0091
      6 C           7.9944   -5.8186   26.3538 C.ar    1  UNL1       -0.0101
      7 C           7.2291   -4.5862   25.9723 C.3     1  UNL1        0.0444
      8 C           6.8707   -4.3404   24.5366 C.3     1  UNL1        0.0749
      9 N           7.2775   -5.3270   23.4825 N.3     1  UNL1       -0.2934
     10 C           8.0428   -6.5594   23.8640 C.3     1  UNL1        0.0954
     11 H           7.8529   -4.8194   22.8104 H       1  UNL1        0.1236
     12 C           6.2870   -1.0549   33.1418 C.3     1  UNL1        0.0896
     13 N           6.6939   -2.0414   32.0878 N.3     1  UNL1       -0.2714
     14 C           6.1520   -3.4305   31.9241 C.3     1  UNL1        0.0739
     15 C           6.8372   -4.0597   30.7475 C.3     1  UNL1        0.0387
     16 C           6.9259   -5.3071   29.9191 C.3     1  UNL1        0.0922
     17 N           7.9460   -5.0778   28.8436 N.pl3   1  UNL1       -0.3076
     18 C           8.4878   -3.6887   29.0072 C.3     1  UNL1        0.0922
     19 C           7.8026   -3.0595   30.1838 C.3     1  UNL1        0.0387
     20 C           7.7140   -1.8121   31.0122 C.3     1  UNL1        0.0739
     21 C           6.1055   -3.1080   24.1550 C.3     1  UNL1        0.0886
     22 N           6.3656   -2.4418   22.8365 N.3     1  UNL1       -0.2667
     23 C           7.5568   -1.5453   22.6712 C.3     1  UNL1        0.0899
     24 C           5.4346   -2.6722   21.6832 C.3     1  UNL1        0.0978
     25 C           5.7127   -3.7732   20.7031 C.3     1  UNL1        0.0224
     26 C           4.7817   -4.0036   19.5498 C.3     1  UNL1        0.0065
     27 C           3.5725   -3.1330   19.3766 C.3     1  UNL1        0.0277
     28 C           3.2943   -2.0321   20.3567 C.ar    1  UNL1       -0.0073
     29 C           2.0851   -1.1616   20.1835 C.ar    1  UNL1       -0.0015
     30 C           1.8069   -0.0607   21.1636 C.ar    1  UNL1        0.0203
     31 C           2.7379    0.1697   22.3169 C.ar    1  UNL1        0.0985
     32 N           3.9472   -0.7008   22.4901 N.ar    1  UNL1       -0.2471
     33 C           4.2253   -1.8017   21.5100 C.ar    1  UNL1        0.0695
@<TRIPOS>BOND
     1    12    13    1
     2    13    14    1
     3    15    14    1
     4    15    16    1
     5    16    17    1
     6    17     1    1
     7     1     2   ar
     8     2     3   ar
     9     3     4   ar
    10     4     5   ar
    11     5     6   ar
    12     6     7    1
    13     7     8    1
    14     8    21    1
    15    21    22    1
    16    22    23    1
    17    24    22    1
    18    24    25    1
    19    25    26    1
    20    26    27    1
    21    27    28    1
    22    28    29   ar
    23    29    30   ar
    24    30    31   ar
    25    31    32   ar
    26    32    33   ar
    27     8     9    1
    28     9    10    1
    29    17    18    1
    30    19    18    1
    31    19    20    1
    32    20    13    1
    33    19    15    1
    34     6     1   ar
    35    33    24    1
    36    10     5    1
    37    33    28   ar
    38     9    11    1
@<TRIPOS>MOLECULE
*****
 33 38 0 0 0
SMALL
GASTEIGER

@<TRIPOS>ATOM
      1 C           3.3477    0.2520   20.8360 C.ar    1  UNL1        0.0436
      2 C           2.4298    1.3103   20.3001 C.ar    1  UNL1        0.0142
      3 C           2.1119    1.3555   18.8348 C.ar    1  UNL1        0.0010
      4 C           2.7121    0.3424   17.9056 C.ar    1  UNL1       -0.0032
      5 C           3.6301   -0.7158   18.4416 C.ar    1  UNL1       -0.0091
      6 C           3.9479   -0.7610   19.9068 C.ar    1  UNL1       -0.0101
      7 C           4.8659   -1.8194   20.4429 C.3     1  UNL1        0.0444
      8 C           5.4661   -2.8324   19.5136 C.3     1  UNL1        0.0749
      9 N           5.1482   -2.7872   18.0483 N.3     1  UNL1       -0.2934
     10 C           4.2303   -1.7289   17.5123 C.3     1  UNL1        0.0954
     11 H           4.7315   -3.6870   17.8095 H       1  UNL1        0.1236
     12 C           4.9615    0.0222   28.2761 C.3     1  UNL1        0.0896
     13 N           4.6437    0.0674   26.8109 N.3     1  UNL1       -0.2714
     14 C           3.5377   -0.6786   26.1252 C.3     1  UNL1        0.0739
     15 C           3.5865   -0.3404   24.6646 C.3     1  UNL1        0.0387
     16 C           2.9332   -0.5924   23.3381 C.3     1  UNL1        0.0922
     17 N           3.6656    0.2068   22.3013 N.pl3   1  UNL1       -0.3076
     18 C           4.7716    0.9528   22.9871 C.3     1  UNL1        0.0922
     19 C           4.7227    0.6146   24.4476 C.3     1  UNL1        0.0387
     20 C           5.3761    0.8667   25.7741 C.3     1  UNL1        0.0739
     21 C           6.3841   -3.8907   20.0496 C.3     1  UNL1        0.0886
     22 N           7.4476   -3.5280   21.0433 N.3     1  UNL1       -0.2667
     23 C           8.7479   -2.9474   20.5718 C.3     1  UNL1        0.0899
     24 C           7.2109   -3.7458   22.5083 C.3     1  UNL1        0.0978
     25 C           6.4948   -2.7037   23.3155 C.3     1  UNL1        0.0224
     26 C           6.2581   -2.9216   24.7805 C.3     1  UNL1        0.0065
     27 C           6.7374   -4.1815   25.4385 C.3     1  UNL1        0.0277
     28 C           7.4534   -5.2235   24.6315 C.ar    1  UNL1       -0.0073
     29 C           7.9327   -6.4834   25.2895 C.ar    1  UNL1       -0.0015
     30 C           8.6488   -7.5254   24.4824 C.ar    1  UNL1        0.0203
     31 C           8.8855   -7.3076   23.0173 C.ar    1  UNL1        0.0985
     32 N           8.4062   -6.0477   22.3593 N.ar    1  UNL1       -0.2471
     33 C           7.6902   -5.0057   23.1663 C.ar    1  UNL1        0.0695
@<TRIPOS>BOND
     1    12    13    1
     2    13    14    1
     3    15    14    1
     4    15    16    1
     5    16    17    1
     6    17     1    1
     7     1     2   ar
     8     2     3   ar
     9     3     4   ar
    10     4     5   ar
    11     5     6   ar
    12     6     7    1
    13     7     8    1
    14     8    21    1
    15    21    22    1
    16    22    23    1
    17    24    22    1
    18    24    25    1
    19    25    26    1
    20    26    27    1
    21    27    28    1
    22    28    29   ar
    23    29    30   ar
    24    30    31   ar
    25    31    32   ar
    26    32    33   ar
    27     8     9    1
    28     9    10    1
    29    17    18    1
    30    19    18    1
    31    19    20    1
    32    20    13    1
    33    19    15    1
    34     6     1   ar
    35    33    24    1
    36    10     5    1
    37    33    28   ar
    38     9    11    1
@<TRIPOS>MOLECULE
*****
 33 38 0 0 0
SMALL
GASTEIGER

@<TRIPOS>ATOM
      1 C           6.8607   -3.8943   23.7885 C.ar    1  UNL1        0.0436
      2 C           7.0334   -5.1619   24.5716 C.ar    1  UNL1        0.0142
      3 C           8.0187   -6.1969   24.1155 C.ar    1  UNL1        0.0010
      4 C           8.8312   -5.9642   22.8763 C.ar    1  UNL1       -0.0032
      5 C           8.6584   -4.6966   22.0932 C.ar    1  UNL1       -0.0091
      6 C           7.6732   -3.6616   22.5493 C.ar    1  UNL1       -0.0101
      7 C           7.5004   -2.3940   21.7662 C.3     1  UNL1        0.0444
      8 C           8.3129   -2.1613   20.5270 C.3     1  UNL1        0.0749
      9 N           9.2982   -3.1963   20.0708 N.3     1  UNL1       -0.2934
     10 C           9.4710   -4.4639   20.8539 C.3     1  UNL1        0.0954
     11 H          10.2108   -2.7416   20.0417 H       1  UNL1        0.1236
     12 C           1.8579    1.3612   26.1047 C.3     1  UNL1        0.0896
     13 N           2.8431    0.3262   25.6485 N.3     1  UNL1       -0.2714
     14 C           4.0349   -0.1573   26.4204 C.3     1  UNL1        0.0739
     15 C           4.7379   -1.1893   25.5894 C.3     1  UNL1        0.0387
     16 C           5.9090   -2.1260   25.5528 C.3     1  UNL1        0.0922
     17 N           5.8754   -2.8593   24.2447 N.pl3   1  UNL1       -0.3076
     18 C           4.6836   -2.3758   23.4727 C.3     1  UNL1        0.0922
     19 C           3.9806   -1.3438   24.3038 C.3     1  UNL1        0.0387
     20 C           2.8096   -0.4071   24.3404 C.3     1  UNL1        0.0739
     21 C           8.1402   -0.8937   19.7439 C.3     1  UNL1        0.0886
     22 N           7.0118   -0.7653   18.7640 N.3     1  UNL1       -0.2667
     23 C           7.1299    0.1778   17.6035 C.3     1  UNL1        0.0899
     24 C           5.7653   -1.5800   18.9446 C.3     1  UNL1        0.0978
     25 C           5.7262   -3.0047   18.4770 C.3     1  UNL1        0.0224
     26 C           4.4798   -3.8194   18.6576 C.3     1  UNL1        0.0065
     27 C           3.2724   -3.2093   19.3057 C.3     1  UNL1        0.0277
     28 C           3.3114   -1.7846   19.7732 C.ar    1  UNL1       -0.0073
     29 C           2.1040   -1.1746   20.4213 C.ar    1  UNL1       -0.0015
     30 C           2.1432    0.2502   20.8889 C.ar    1  UNL1        0.0203
     31 C           3.3896    1.0649   20.7083 C.ar    1  UNL1        0.0985
     32 N           4.5970    0.4548   20.0602 N.ar    1  UNL1       -0.2471
     33 C           4.5579   -0.9699   19.5927 C.ar    1  UNL1        0.0695
@<TRIPOS>BOND
     1    12    13    1
     2    13    14    1
     3    15    14    1
     4    15    16    1
     5    16    17    1
     6    17     1    1
     7     1     2   ar
     8     2     3   ar
     9     3     4   ar
    10     4     5   ar
    11     5     6   ar
    12     6     7    1
    13     7     8    1
    14     8    21    1
    15    21    22    1
    16    22    23    1
    17    24    22    1
    18    24    25    1
    19    25    26    1
    20    26    27    1
    21    27    28    1
    22    28    29   ar
    23    29    30   ar
    24    30    31   ar
    25    31    32   ar
    26    32    33   ar
    27     8     9    1
    28     9    10    1
    29    17    18    1
    30    19    18    1
    31    19    20    1
    32    20    13    1
    33    19    15    1
    34     6     1   ar
    35    33    24    1
    36    10     5    1
    37    33    28   ar
    38     9    11    1
@<TRIPOS>MOLECULE
*****
 33 38 0 0 0
SMALL
GASTEIGER

@<TRIPOS>ATOM
      1 C           4.1768    1.1330   36.3203 C.ar    1  UNL1        0.0436
      2 C           4.6077    0.9662   37.7473 C.ar    1  UNL1        0.0142
      3 C           4.0773    1.8896   38.8037 C.ar    1  UNL1        0.0010
      4 C           3.1162    2.9799   38.4331 C.ar    1  UNL1       -0.0032
      5 C           2.6854    3.1468   37.0060 C.ar    1  UNL1       -0.0091
      6 C           3.2157    2.2234   35.9496 C.ar    1  UNL1       -0.0101
      7 C           2.7848    2.3902   34.5225 C.3     1  UNL1        0.0444
      8 C           1.8237    3.4805   34.1519 C.3     1  UNL1        0.0749
      9 N           1.2934    4.4040   35.2083 N.3     1  UNL1       -0.2934
     10 C           1.7242    4.2371   36.6354 C.3     1  UNL1        0.0954
     11 H           0.2774    4.3141   35.1950 H       1  UNL1        0.1236
     12 C           6.8693   -3.5560   30.9561 C.3     1  UNL1        0.0896
     13 N           6.3391   -2.6326   32.0125 N.3     1  UNL1       -0.2714
     14 C           5.0427   -2.7892   32.7506 C.3     1  UNL1        0.0739
     15 C           4.9145   -1.6438   33.7105 C.3     1  UNL1        0.0387
     16 C           4.0341   -1.0327   34.7600 C.3     1  UNL1        0.0922
     17 N           4.7071    0.2096   35.2638 N.pl3   1  UNL1       -0.3076
     18 C           6.0035    0.3662   34.5258 C.3     1  UNL1        0.0922
     19 C           6.1317   -0.7792   33.5658 C.3     1  UNL1        0.0387
     20 C           7.0121   -1.3903   32.5164 C.3     1  UNL1        0.0739
     21 C           1.3928    3.6474   32.7248 C.3     1  UNL1        0.0886
     22 N           2.3264    3.2757   31.6111 N.3     1  UNL1       -0.2667
     23 C           3.4798    4.1716   31.2688 C.3     1  UNL1        0.0899
     24 C           2.1066    2.0082   30.8398 C.3     1  UNL1        0.0978
     25 C           2.7355    0.7283   31.3052 C.3     1  UNL1        0.0224
     26 C           2.5158   -0.5392   30.5338 C.3     1  UNL1        0.0065
     27 C           1.6671   -0.5270   29.2971 C.3     1  UNL1        0.0277
     28 C           1.0381    0.7528   28.8317 C.ar    1  UNL1       -0.0073
     29 C           0.1894    0.7650   27.5949 C.ar    1  UNL1       -0.0015
     30 C          -0.4395    2.0449   27.1295 C.ar    1  UNL1        0.0203
     31 C          -0.2197    3.3124   27.9009 C.ar    1  UNL1        0.0985
     32 N           0.6290    3.3002   29.1376 N.ar    1  UNL1       -0.2471
     33 C           1.2579    2.0204   29.6030 C.ar    1  UNL1        0.0695
@<TRIPOS>BOND
     1    12    13    1
     2    13    14    1
     3    15    14    1
     4    15    16    1
     5    16    17    1
     6    17     1    1
     7     1     2   ar
     8     2     3   ar
     9     3     4   ar
    10     4     5   ar
    11     5     6   ar
    12     6     7    1
    13     7     8    1
    14     8    21    1
    15    21    22    1
    16    22    23    1
    17    24    22    1
    18    24    25    1
    19    25    26    1
    20    26    27    1
    21    27    28    1
    22    28    29   ar
    23    29    30   ar
    24    30    31   ar
    25    31    32   ar
    26    32    33   ar
    27     8     9    1
    28     9    10    1
    29    17    18    1
    30    19    18    1
    31    19    20    1
    32    20    13    1
    33    19    15    1
    34     6     1   ar
    35    33    24    1
    36    10     5    1
    37    33    28   ar
    38     9    11    1
