@<TRIPOS>MOLECULE
*****
 37 40 0 0 0
SMALL
GASTEIGER

@<TRIPOS>ATOM
      1 C           8.2169   -6.7161   24.4581 C.3     1  UNL1        0.0553
      2 C           7.5820   -5.4924   23.8671 C.ar    1  UNL1        0.0939
      3 N           7.6632   -5.0625   22.4323 N.ar    1  UNL1       -0.1721
      4 N           6.8858   -3.7881   22.2855 N.ar    1  UNL1       -0.2463
      5 C           6.3242   -3.4303   23.6296 C.ar    1  UNL1        0.1112
      6 C           6.7545   -4.4836   24.6071 C.ar    1  UNL1        0.0850
      7 N           6.4165   -4.5214   26.0680 N.am    1  UNL1       -0.2769
      8 C           7.4197   -4.0577   27.0821 C.2     1  UNL1        0.2706
      9 O           8.7609   -3.5561   26.6353 O.2     1  UNL1       -0.2680
     10 H           5.5363   -4.8507   26.3613 H       1  UNL1        0.1553
     11 C           7.0817   -4.0956   28.5430 C.ar    1  UNL1        0.1764
     12 C           6.7950   -2.9075   29.4127 C.ar    1  UNL1        0.0688
     13 C           6.5072   -3.4057   30.7980 C.ar    1  UNL1        0.1945
     14 O           6.6161   -4.9017   30.7844 O.2     1  UNL1       -0.3517
     15 N           6.9712   -5.3281   29.3908 N.ar    1  UNL1       -0.0722
     16 C           6.1698   -2.5570   31.9879 C.ar    1  UNL1        0.1184
     17 C           7.1834   -1.5964   32.5356 C.ar    1  UNL1        0.0223
     18 C           6.8460   -0.7477   33.7255 C.ar    1  UNL1        0.0032
     19 C           5.4950   -0.8596   34.3676 C.ar    1  UNL1        0.0207
     20 C           4.4814   -1.8201   33.8199 C.ar    1  UNL1        0.0989
     21 N           4.8189   -2.6688   32.6300 N.ar    1  UNL1       -0.2407
     22 C           6.7023   -3.0083   21.0173 C.3     1  UNL1        0.1274
     23 C           7.7940   -2.9812   19.9889 C.3     1  UNL1        0.0312
     24 C           5.4271   -2.2557   20.7775 C.ar    1  UNL1        0.0038
     25 C           5.2527   -0.8767   21.3412 C.ar    1  UNL1       -0.0025
     26 C           3.9775   -0.1242   21.1014 C.ar    1  UNL1        0.0036
     27 C           2.8767   -0.7507   20.2978 C.ar    1  UNL1        0.0714
     28 C           3.0511   -2.1297   19.7341 C.ar    1  UNL1        0.0074
     29 C           4.3263   -2.8822   19.9739 C.ar    1  UNL1        0.0692
     30 C           1.6015    0.0019   20.0580 C.3     1  UNL1        0.4186
     31 F           0.3263    0.7545   19.8182 F       1  UNL1       -0.1659
     32 F           0.8307   -1.2832   20.1233 F       1  UNL1       -0.1659
     33 F           2.3722    1.2870   19.9927 F       1  UNL1       -0.1659
     34 C           4.5007   -4.2613   19.4102 C.3     1  UNL1        0.4183
     35 F           4.6751   -5.6404   18.8465 F       1  UNL1       -0.1659
     36 F           3.9094   -4.8463   20.6584 F       1  UNL1       -0.1659
     37 F           5.0919   -3.6764   18.1619 F       1  UNL1       -0.1659
@<TRIPOS>BOND
     1     1     2    1
     2     2     3   ar
     3     3     4   ar
     4     4    22    1
     5    22    23    1
     6    22    24    1
     7    24    25   ar
     8    25    26   ar
     9    26    27   ar
    10    27    30    1
    11    30    31    1
    12    30    32    1
    13    30    33    1
    14    27    28   ar
    15    28    29   ar
    16    29    34    1
    17    34    35    1
    18    34    36    1
    19    34    37    1
    20     4     5   ar
    21     5     6   ar
    22     6     7    1
    23     7     8   am
    24     8     9    2
    25     8    11    1
    26    11    12   ar
    27    12    13   ar
    28    13    16    1
    29    16    17   ar
    30    17    18   ar
    31    18    19   ar
    32    19    20   ar
    33    20    21   ar
    34    13    14   ar
    35    14    15   ar
    36     6     2   ar
    37    15    11   ar
    38    29    24   ar
    39    21    16   ar
    40     7    10    1
@<TRIPOS>MOLECULE
*****
 37 40 0 0 0
SMALL
GASTEIGER

@<TRIPOS>ATOM
      1 C          -0.5978    1.9667   24.9176 C.3     1  UNL1        0.0553
      2 C           0.7210    1.4729   24.4011 C.ar    1  UNL1        0.0939
      3 N           1.1931    1.5433   22.9790 N.ar    1  UNL1       -0.1721
      4 N           2.5632    0.9359   22.9149 N.ar    1  UNL1       -0.2463
      5 C           2.9377    0.4901   24.2972 C.ar    1  UNL1        0.1112
      6 C           1.7992    0.8220   25.2158 C.ar    1  UNL1        0.0850
      7 N           1.7480    0.5507   26.6901 N.am    1  UNL1       -0.2769
      8 C           1.9239    1.6758   27.6663 C.2     1  UNL1        0.2706
      9 O           2.1511    3.0723   27.1683 O.2     1  UNL1       -0.2680
     10 H           1.5989   -0.3659   27.0171 H       1  UNL1        0.1553
     11 C           1.8727    1.4044   29.1407 C.ar    1  UNL1        0.1764
     12 C           2.9724    0.8039   29.9654 C.ar    1  UNL1        0.0688
     13 C           2.4922    0.7142   31.3836 C.ar    1  UNL1        0.1945
     14 O           1.0957    1.2593   31.4354 O.2     1  UNL1       -0.3517
     15 N           0.7128    1.6859   30.0492 N.ar    1  UNL1       -0.0722
     16 C           3.2716    0.1743   32.5459 C.ar    1  UNL1        0.1184
     17 C           3.6539    1.0806   33.6784 C.ar    1  UNL1        0.0223
     18 C           4.4333    0.5406   34.8408 C.ar    1  UNL1        0.0032
     19 C           4.8304   -0.9056   34.8706 C.ar    1  UNL1        0.0207
     20 C           4.4480   -1.8118   33.7381 C.ar    1  UNL1        0.0989
     21 N           3.6686   -1.2719   32.5758 N.ar    1  UNL1       -0.2407
     22 C           3.4099    0.7984   21.6844 C.3     1  UNL1        0.1274
     23 C           4.0133    2.0159   21.0493 C.3     1  UNL1        0.0312
     24 C           3.6533   -0.5568   21.0890 C.ar    1  UNL1        0.0038
     25 C           4.7948   -1.3973   21.5791 C.ar    1  UNL1       -0.0025
     26 C           5.0381   -2.7524   20.9837 C.ar    1  UNL1        0.0036
     27 C           4.1398   -3.2670   19.8982 C.ar    1  UNL1        0.0714
     28 C           2.9983   -2.4264   19.4081 C.ar    1  UNL1        0.0074
     29 C           2.7550   -1.0713   20.0035 C.ar    1  UNL1        0.0692
     30 C           4.3832   -4.6221   19.3028 C.3     1  UNL1        0.4186
     31 F           4.6265   -5.9772   18.7075 F       1  UNL1       -0.1659
     32 F           3.6122   -5.2532   20.4241 F       1  UNL1       -0.1659
     33 F           5.1542   -3.9910   18.1816 F       1  UNL1       -0.1659
     34 C           1.6133   -0.2307   19.5134 C.3     1  UNL1        0.4183
     35 F           0.4718    0.6098   19.0232 F       1  UNL1       -0.1659
     36 F           2.5201    0.4141   18.5074 F       1  UNL1       -0.1659
     37 F           0.7066   -0.8756   20.5193 F       1  UNL1       -0.1659
@<TRIPOS>BOND
     1     1     2    1
     2     2     3   ar
     3     3     4   ar
     4     4    22    1
     5    22    23    1
     6    22    24    1
     7    24    25   ar
     8    25    26   ar
     9    26    27   ar
    10    27    30    1
    11    30    31    1
    12    30    32    1
    13    30    33    1
    14    27    28   ar
    15    28    29   ar
    16    29    34    1
    17    34    35    1
    18    34    36    1
    19    34    37    1
    20     4     5   ar
    21     5     6   ar
    22     6     7    1
    23     7     8   am
    24     8     9    2
    25     8    11    1
    26    11    12   ar
    27    12    13   ar
    28    13    16    1
    29    16    17   ar
    30    17    18   ar
    31    18    19   ar
    32    19    20   ar
    33    20    21   ar
    34    13    14   ar
    35    14    15   ar
    36     6     2   ar
    37    15    11   ar
    38    29    24   ar
    39    21    16   ar
    40     7    10    1
@<TRIPOS>MOLECULE
*****
 37 40 0 0 0
SMALL
GASTEIGER

@<TRIPOS>ATOM
      1 C           3.0769   -0.6188   31.0015 C.3     1  UNL1        0.0553
      2 C           3.9142    0.0185   32.0704 C.ar    1  UNL1        0.0939
      3 N           3.4508    1.0508   33.0552 N.ar    1  UNL1       -0.1721
      4 N           4.6121    1.4057   33.9357 N.ar    1  UNL1       -0.2463
      5 C           5.7933    0.5929   33.4951 C.ar    1  UNL1        0.1112
      6 C           5.3620   -0.2644   32.3423 C.ar    1  UNL1        0.0850
      7 N           6.2266   -1.2344   31.5930 N.am    1  UNL1       -0.2769
      8 C           6.1621   -2.6985   31.9124 C.2     1  UNL1        0.2706
      9 O           5.2329   -3.1927   32.9813 O.2     1  UNL1       -0.2680
     10 H           6.8364   -0.9101   30.8914 H       1  UNL1        0.1553
     11 C           7.0267   -3.6685   31.1631 C.ar    1  UNL1        0.1764
     12 C           6.6557   -4.3864   29.8994 C.ar    1  UNL1        0.0688
     13 C           7.8138   -5.2525   29.5012 C.ar    1  UNL1        0.1945
     14 O           8.9006   -5.0699   30.5188 O.2     1  UNL1       -0.3517
     15 N           8.4142   -4.0909   31.5459 N.ar    1  UNL1       -0.0722
     16 C           7.8745   -6.1446   28.2968 C.ar    1  UNL1        0.1184
     17 C           7.3496   -5.6604   26.9776 C.ar    1  UNL1        0.0223
     18 C           7.4103   -6.5525   25.7732 C.ar    1  UNL1        0.0032
     19 C           7.9959   -7.9288   25.8881 C.ar    1  UNL1        0.0207
     20 C           8.5207   -8.4129   27.2072 C.ar    1  UNL1        0.0989
     21 N           8.4600   -7.5208   28.4116 N.ar    1  UNL1       -0.2407
     22 C           4.5952    2.3991   35.0595 C.3     1  UNL1        0.1274
     23 C           5.4407    3.6356   34.9802 C.3     1  UNL1        0.0312
     24 C           3.7329    2.1560   36.2626 C.ar    1  UNL1        0.0038
     25 C           2.5258    3.0126   36.5056 C.ar    1  UNL1       -0.0025
     26 C           1.6635    2.7694   37.7086 C.ar    1  UNL1        0.0036
     27 C           2.0083    1.6697   38.6686 C.ar    1  UNL1        0.0714
     28 C           3.2154    0.8130   38.4256 C.ar    1  UNL1        0.0074
     29 C           4.0777    1.0562   37.2226 C.ar    1  UNL1        0.0692
     30 C           1.1460    1.4265   39.8717 C.3     1  UNL1        0.4186
     31 F           0.2837    1.1833   41.0747 F       1  UNL1       -0.1659
     32 F           0.5397    2.7892   39.7125 F       1  UNL1       -0.1659
     33 F           1.7522    0.0638   40.0308 F       1  UNL1       -0.1659
     34 C           5.2849    0.1996   36.9795 C.3     1  UNL1        0.4183
     35 F           6.4920   -0.6570   36.7365 F       1  UNL1       -0.1659
     36 F           6.1421    1.2072   37.6864 F       1  UNL1       -0.1659
     37 F           4.4276   -0.8080   36.2726 F       1  UNL1       -0.1659
@<TRIPOS>BOND
     1     1     2    1
     2     2     3   ar
     3     3     4   ar
     4     4    22    1
     5    22    23    1
     6    22    24    1
     7    24    25   ar
     8    25    26   ar
     9    26    27   ar
    10    27    30    1
    11    30    31    1
    12    30    32    1
    13    30    33    1
    14    27    28   ar
    15    28    29   ar
    16    29    34    1
    17    34    35    1
    18    34    36    1
    19    34    37    1
    20     4     5   ar
    21     5     6   ar
    22     6     7    1
    23     7     8   am
    24     8     9    2
    25     8    11    1
    26    11    12   ar
    27    12    13   ar
    28    13    16    1
    29    16    17   ar
    30    17    18   ar
    31    18    19   ar
    32    19    20   ar
    33    20    21   ar
    34    13    14   ar
    35    14    15   ar
    36     6     2   ar
    37    15    11   ar
    38    29    24   ar
    39    21    16   ar
    40     7    10    1
@<TRIPOS>MOLECULE
*****
 37 40 0 0 0
SMALL
GASTEIGER

@<TRIPOS>ATOM
      1 C           2.0679    0.8790   26.7410 C.3     1  UNL1        0.0553
      2 C           2.0144    0.9892   25.2460 C.ar    1  UNL1        0.0939
      3 N           3.1505    0.7295   24.3016 N.ar    1  UNL1       -0.1721
      4 N           2.6538    0.9581   22.9048 N.ar    1  UNL1       -0.2463
      5 C           1.2106    1.3591   22.9860 C.ar    1  UNL1        0.1112
      6 C           0.8155    1.3783   24.4329 C.ar    1  UNL1        0.0850
      7 N          -0.5405    1.7256   24.9720 N.am    1  UNL1       -0.2769
      8 C          -1.0225    3.1454   24.9317 C.2     1  UNL1        0.2706
      9 O          -0.1485    4.2179   24.3522 O.2     1  UNL1       -0.2680
     10 H          -1.1141    1.0216   25.3523 H       1  UNL1        0.1553
     11 C          -2.3785    3.4927   25.4708 C.ar    1  UNL1        0.1764
     12 C          -3.5134    4.0840   24.6883 C.ar    1  UNL1        0.0688
     13 C          -4.6740    4.2664   25.6209 C.ar    1  UNL1        0.1945
     14 O          -4.2564    3.7879   26.9797 O.2     1  UNL1       -0.3517
     15 N          -2.8377    3.3097   26.8870 N.ar    1  UNL1       -0.0722
     16 C          -6.0166    4.8287   25.2582 C.ar    1  UNL1        0.1184
     17 C          -6.6888    4.4041   23.9862 C.ar    1  UNL1        0.0223
     18 C          -8.0313    4.9664   23.6236 C.ar    1  UNL1        0.0032
     19 C          -8.7016    5.9532   24.5330 C.ar    1  UNL1        0.0207
     20 C          -8.0294    6.3777   25.8049 C.ar    1  UNL1        0.0989
     21 N          -6.6869    5.8155   26.1676 N.ar    1  UNL1       -0.2407
     22 C           3.4588    0.8115   21.6477 C.3     1  UNL1        0.1274
     23 C           4.0214    2.0264   20.9714 C.3     1  UNL1        0.0312
     24 C           3.7012   -0.5501   21.0668 C.ar    1  UNL1        0.0038
     25 C           4.8334   -1.3920   21.5759 C.ar    1  UNL1       -0.0025
     26 C           5.0757   -2.7535   20.9950 C.ar    1  UNL1        0.0036
     27 C           4.1859   -3.2732   19.9050 C.ar    1  UNL1        0.0714
     28 C           3.0536   -2.4313   19.3959 C.ar    1  UNL1        0.0074
     29 C           2.8113   -1.0697   19.9768 C.ar    1  UNL1        0.0692
     30 C           4.4283   -4.6348   19.3242 C.3     1  UNL1        0.4186
     31 F           4.6706   -5.9963   18.7433 F       1  UNL1       -0.1659
     32 F           5.8660   -4.5582   19.7446 F       1  UNL1       -0.1659
     33 F           2.9905   -4.7113   18.9037 F       1  UNL1       -0.1659
     34 C           1.6790   -0.2278   19.4677 C.3     1  UNL1        0.4183
     35 F           0.5468    0.6141   18.9586 F       1  UNL1       -0.1659
     36 F           0.7679   -0.8323   20.4945 F       1  UNL1       -0.1659
     37 F           2.5902    0.3767   18.4409 F       1  UNL1       -0.1659
@<TRIPOS>BOND
     1     1     2    1
     2     2     3   ar
     3     3     4   ar
     4     4    22    1
     5    22    23    1
     6    22    24    1
     7    24    25   ar
     8    25    26   ar
     9    26    27   ar
    10    27    30    1
    11    30    31    1
    12    30    32    1
    13    30    33    1
    14    27    28   ar
    15    28    29   ar
    16    29    34    1
    17    34    35    1
    18    34    36    1
    19    34    37    1
    20     4     5   ar
    21     5     6   ar
    22     6     7    1
    23     7     8   am
    24     8     9    2
    25     8    11    1
    26    11    12   ar
    27    12    13   ar
    28    13    16    1
    29    16    17   ar
    30    17    18   ar
    31    18    19   ar
    32    19    20   ar
    33    20    21   ar
    34    13    14   ar
    35    14    15   ar
    36     6     2   ar
    37    15    11   ar
    38    29    24   ar
    39    21    16   ar
    40     7    10    1
@<TRIPOS>MOLECULE
*****
 37 40 0 0 0
SMALL
GASTEIGER

@<TRIPOS>ATOM
      1 C           8.2378   -4.7563   23.0912 C.3     1  UNL1        0.0553
      2 C           6.8811   -4.2632   22.6836 C.ar    1  UNL1        0.0939
      3 N           6.3320   -4.2456   21.2878 N.ar    1  UNL1       -0.1721
      4 N           4.9468   -3.6727   21.3418 N.ar    1  UNL1       -0.2463
      5 C           4.6397   -3.3362   22.7709 C.ar    1  UNL1        0.1112
      6 C           5.8352   -3.7011   23.6002 C.ar    1  UNL1        0.0850
      7 N           5.9623   -3.5334   25.0854 N.am    1  UNL1       -0.2769
      8 C           6.7607   -2.3940   25.6458 C.2     1  UNL1        0.2706
      9 O           7.4319   -1.4222   24.7212 O.2     1  UNL1       -0.2680
     10 H           5.5218   -4.1713   25.6923 H       1  UNL1        0.1553
     11 C           6.8878   -2.2263   27.1310 C.ar    1  UNL1        0.1764
     12 C           5.7553   -2.0479   28.0983 C.ar    1  UNL1        0.0688
     13 C           6.3373   -1.9189   29.4747 C.ar    1  UNL1        0.1945
     14 O           7.8295   -2.0175   29.3581 O.2     1  UNL1       -0.3517
     15 N           8.1698   -2.2075   27.9096 N.ar    1  UNL1       -0.0722
     16 C           5.5631   -1.7252   30.7448 C.ar    1  UNL1        0.1184
     17 C           5.7676   -2.6623   31.8981 C.ar    1  UNL1        0.0223
     18 C           4.9933   -2.4686   33.1682 C.ar    1  UNL1        0.0032
     19 C           4.0146   -1.3379   33.2849 C.ar    1  UNL1        0.0207
     20 C           3.8102   -0.4008   32.1316 C.ar    1  UNL1        0.0989
     21 N           4.5844   -0.5945   30.8616 N.ar    1  UNL1       -0.2407
     22 C           4.0297   -3.4716   20.1719 C.3     1  UNL1        0.1274
     23 C           3.4887   -4.6580   19.4304 C.3     1  UNL1        0.0312
     24 C           3.6535   -2.0841   19.7437 C.ar    1  UNL1        0.0038
     25 C           2.3351   -1.5022   20.1599 C.ar    1  UNL1       -0.0025
     26 C           1.9590   -0.1148   19.7316 C.ar    1  UNL1        0.0036
     27 C           2.9013    0.6908   18.8871 C.ar    1  UNL1        0.0714
     28 C           4.2197    0.1090   18.4710 C.ar    1  UNL1        0.0074
     29 C           4.5958   -1.2785   18.8992 C.ar    1  UNL1        0.0692
     30 C           2.5251    2.0783   18.4589 C.3     1  UNL1        0.4186
     31 F           2.1490    3.4658   18.0306 F       1  UNL1       -0.1659
     32 F           1.1569    1.5916   18.0835 F       1  UNL1       -0.1659
     33 F           3.8934    2.5651   18.8342 F       1  UNL1       -0.1659
     34 C           5.9142   -1.8604   18.4830 C.3     1  UNL1        0.4183
     35 F           7.2326   -2.4423   18.0668 F       1  UNL1       -0.1659
     36 F           5.2595   -2.4899   17.2893 F       1  UNL1       -0.1659
     37 F           6.5689   -1.2310   19.6768 F       1  UNL1       -0.1659
@<TRIPOS>BOND
     1     1     2    1
     2     2     3   ar
     3     3     4   ar
     4     4    22    1
     5    22    23    1
     6    22    24    1
     7    24    25   ar
     8    25    26   ar
     9    26    27   ar
    10    27    30    1
    11    30    31    1
    12    30    32    1
    13    30    33    1
    14    27    28   ar
    15    28    29   ar
    16    29    34    1
    17    34    35    1
    18    34    36    1
    19    34    37    1
    20     4     5   ar
    21     5     6   ar
    22     6     7    1
    23     7     8   am
    24     8     9    2
    25     8    11    1
    26    11    12   ar
    27    12    13   ar
    28    13    16    1
    29    16    17   ar
    30    17    18   ar
    31    18    19   ar
    32    19    20   ar
    33    20    21   ar
    34    13    14   ar
    35    14    15   ar
    36     6     2   ar
    37    15    11   ar
    38    29    24   ar
    39    21    16   ar
    40     7    10    1
@<TRIPOS>MOLECULE
*****
 37 40 0 0 0
SMALL
GASTEIGER

@<TRIPOS>ATOM
      1 C           8.7861   -1.8933   21.8100 C.3     1  UNL1        0.0553
      2 C           7.3581   -2.2305   21.4983 C.ar    1  UNL1        0.0939
      3 N           6.6557   -1.9756   20.1976 N.ar    1  UNL1       -0.1721
      4 N           5.2453   -2.4693   20.3280 N.ar    1  UNL1       -0.2463
      5 C           5.0760   -3.0293   21.7092 C.ar    1  UNL1        0.1112
      6 C           6.3818   -2.8817   22.4325 C.ar    1  UNL1        0.0850
      7 N           6.6620   -3.3101   23.8424 N.am    1  UNL1       -0.2769
      8 C           7.2901   -4.6457   24.1097 C.2     1  UNL1        0.2706
      9 O           7.6380   -5.5530   22.9670 O.2     1  UNL1       -0.2680
     10 H           6.4337   -2.7146   24.5924 H       1  UNL1        0.1553
     11 C           7.5703   -5.0741   25.5196 C.ar    1  UNL1        0.1764
     12 C           6.9683   -4.4791   26.7580 C.ar    1  UNL1        0.0688
     13 C           7.5277   -5.2099   27.9425 C.ar    1  UNL1        0.1945
     14 O           8.4753   -6.2566   27.4362 O.2     1  UNL1       -0.3517
     15 N           8.5017   -6.1726   25.9387 N.ar    1  UNL1       -0.0722
     16 C           7.1973   -4.9412   29.3808 C.ar    1  UNL1        0.1184
     17 C           6.8230   -3.5561   29.8183 C.ar    1  UNL1        0.0223
     18 C           6.4926   -3.2874   31.2566 C.ar    1  UNL1        0.0032
     19 C           6.5366   -4.4039   32.2574 C.ar    1  UNL1        0.0207
     20 C           6.9110   -5.7889   31.8199 C.ar    1  UNL1        0.0989
     21 N           7.2413   -6.0576   30.3816 N.ar    1  UNL1       -0.2407
     22 C           4.1895   -2.4129   19.2639 C.3     1  UNL1        0.1274
     23 C           4.1058   -3.4984   18.2321 C.3     1  UNL1        0.0312
     24 C           3.2174   -1.2709   19.2317 C.ar    1  UNL1        0.0038
     25 C           1.9995   -1.2978   20.1069 C.ar    1  UNL1       -0.0025
     26 C           1.0275   -0.1558   20.0746 C.ar    1  UNL1        0.0036
     27 C           1.2734    1.0129   19.1671 C.ar    1  UNL1        0.0714
     28 C           2.4912    1.0398   18.2919 C.ar    1  UNL1        0.0074
     29 C           3.4633   -0.1022   18.3242 C.ar    1  UNL1        0.0692
     30 C           0.3013    2.1549   19.1349 C.3     1  UNL1        0.4186
     31 F          -0.6708    3.2969   19.1026 F       1  UNL1       -0.1659
     32 F          -0.4669    1.5330   20.2632 F       1  UNL1       -0.1659
     33 F           1.0694    2.7769   18.0066 F       1  UNL1       -0.1659
     34 C           4.6812   -0.0754   17.4490 C.3     1  UNL1        0.4183
     35 F           5.8991   -0.0485   16.5738 F       1  UNL1       -0.1659
     36 F           5.4508    0.6067   18.5409 F       1  UNL1       -0.1659
     37 F           3.9116   -0.7574   16.3570 F       1  UNL1       -0.1659
@<TRIPOS>BOND
     1     1     2    1
     2     2     3   ar
     3     3     4   ar
     4     4    22    1
     5    22    23    1
     6    22    24    1
     7    24    25   ar
     8    25    26   ar
     9    26    27   ar
    10    27    30    1
    11    30    31    1
    12    30    32    1
    13    30    33    1
    14    27    28   ar
    15    28    29   ar
    16    29    34    1
    17    34    35    1
    18    34    36    1
    19    34    37    1
    20     4     5   ar
    21     5     6   ar
    22     6     7    1
    23     7     8   am
    24     8     9    2
    25     8    11    1
    26    11    12   ar
    27    12    13   ar
    28    13    16    1
    29    16    17   ar
    30    17    18   ar
    31    18    19   ar
    32    19    20   ar
    33    20    21   ar
    34    13    14   ar
    35    14    15   ar
    36     6     2   ar
    37    15    11   ar
    38    29    24   ar
    39    21    16   ar
    40     7    10    1
@<TRIPOS>MOLECULE
*****
 37 40 0 0 0
SMALL
GASTEIGER

@<TRIPOS>ATOM
      1 C           2.7193   -0.5673   30.8716 C.3     1  UNL1        0.0553
      2 C           3.5654   -0.2937   32.0796 C.ar    1  UNL1        0.0939
      3 N           3.4993    0.9309   32.9433 N.ar    1  UNL1       -0.1721
      4 N           4.5192    0.7850   34.0334 N.ar    1  UNL1       -0.2463
      5 C           5.2157   -0.5299   33.8435 C.ar    1  UNL1        0.1112
      6 C           4.6262   -1.1965   32.6359 C.ar    1  UNL1        0.0850
      7 N           5.0272   -2.5316   32.0820 N.am    1  UNL1       -0.2769
      8 C           6.2819   -2.6607   31.2704 C.2     1  UNL1        0.2706
      9 O           7.1358   -1.4547   31.0127 O.2     1  UNL1       -0.2680
     10 H           4.4667   -3.3231   32.2512 H       1  UNL1        0.1553
     11 C           6.6829   -3.9957   30.7165 C.ar    1  UNL1        0.1764
     12 C           6.9804   -4.3002   29.2782 C.ar    1  UNL1        0.0688
     13 C           7.3381   -5.7534   29.1764 C.ar    1  UNL1        0.1945
     14 O           7.2617   -6.3470   30.5518 O.2     1  UNL1       -0.3517
     15 N           6.8567   -5.2607   31.5037 N.ar    1  UNL1       -0.0722
     16 C           7.7074   -6.4845   27.9198 C.ar    1  UNL1        0.1184
     17 C           7.3154   -5.9256   26.5841 C.ar    1  UNL1        0.0223
     18 C           7.6847   -6.6568   25.3275 C.ar    1  UNL1        0.0032
     19 C           8.4461   -7.9469   25.4066 C.ar    1  UNL1        0.0207
     20 C           8.8380   -8.5057   26.7423 C.ar    1  UNL1        0.0989
     21 N           8.4687   -7.7745   27.9988 N.ar    1  UNL1       -0.2407
     22 C           4.7944    1.7792   35.1223 C.3     1  UNL1        0.1274
     23 C           6.0021    2.6650   35.0415 C.3     1  UNL1        0.0312
     24 C           3.8616    1.8877   36.2921 C.ar    1  UNL1        0.0038
     25 C           3.9518    0.8999   37.4173 C.ar    1  UNL1       -0.0025
     26 C           3.0191    1.0084   38.5870 C.ar    1  UNL1        0.0036
     27 C           1.9962    2.1046   38.6316 C.ar    1  UNL1        0.0714
     28 C           1.9061    3.0924   37.5064 C.ar    1  UNL1        0.0074
     29 C           2.8388    2.9839   36.3367 C.ar    1  UNL1        0.0692
     30 C           1.0635    2.2131   39.8013 C.3     1  UNL1        0.4186
     31 F           0.1308    2.3215   40.9711 F       1  UNL1       -0.1659
     32 F           1.9498    3.2583   40.4112 F       1  UNL1       -0.1659
     33 F           0.1773    1.1678   39.1915 F       1  UNL1       -0.1659
     34 C           2.7487    3.9717   35.2114 C.3     1  UNL1        0.4183
     35 F           2.6586    4.9595   34.0862 F       1  UNL1       -0.1659
     36 F           3.7213    4.8674   35.9197 F       1  UNL1       -0.1659
     37 F           1.7760    3.0761   34.5030 F       1  UNL1       -0.1659
@<TRIPOS>BOND
     1     1     2    1
     2     2     3   ar
     3     3     4   ar
     4     4    22    1
     5    22    23    1
     6    22    24    1
     7    24    25   ar
     8    25    26   ar
     9    26    27   ar
    10    27    30    1
    11    30    31    1
    12    30    32    1
    13    30    33    1
    14    27    28   ar
    15    28    29   ar
    16    29    34    1
    17    34    35    1
    18    34    36    1
    19    34    37    1
    20     4     5   ar
    21     5     6   ar
    22     6     7    1
    23     7     8   am
    24     8     9    2
    25     8    11    1
    26    11    12   ar
    27    12    13   ar
    28    13    16    1
    29    16    17   ar
    30    17    18   ar
    31    18    19   ar
    32    19    20   ar
    33    20    21   ar
    34    13    14   ar
    35    14    15   ar
    36     6     2   ar
    37    15    11   ar
    38    29    24   ar
    39    21    16   ar
    40     7    10    1
@<TRIPOS>MOLECULE
*****
 37 40 0 0 0
SMALL
GASTEIGER

@<TRIPOS>ATOM
      1 C           7.3338   -5.8200   29.6908 C.3     1  UNL1        0.0553
      2 C           7.0380   -4.3799   29.9886 C.ar    1  UNL1        0.0939
      3 N           7.2480   -3.6905   31.3041 N.ar    1  UNL1       -0.1721
      4 N           6.8201   -2.2609   31.1518 N.ar    1  UNL1       -0.2463
      5 C           6.3457   -2.0668   29.7421 C.ar    1  UNL1        0.1112
      6 C           6.4803   -3.3764   29.0232 C.ar    1  UNL1        0.0850
      7 N           6.1205   -3.6368   27.5905 N.am    1  UNL1       -0.2769
      8 C           7.1987   -3.7368   26.5527 C.2     1  UNL1        0.2706
      9 O           8.6369   -3.5766   26.9475 O.2     1  UNL1       -0.2680
     10 H           5.1765   -3.7420   27.3314 H       1  UNL1        0.1553
     11 C           6.8389   -3.9972   25.1200 C.ar    1  UNL1        0.1764
     12 C           5.8247   -3.2408   24.3142 C.ar    1  UNL1        0.0688
     13 C           5.7890   -3.8358   22.9377 C.ar    1  UNL1        0.1945
     14 O           6.7811   -4.9598   22.8927 O.2     1  UNL1       -0.3517
     15 N           7.4300   -5.0596   24.2414 N.ar    1  UNL1       -0.0722
     16 C           4.9146   -3.3856   21.8050 C.ar    1  UNL1        0.1184
     17 C           4.1864   -2.0772   21.8938 C.ar    1  UNL1        0.0223
     18 C           3.3121   -1.6271   20.7612 C.ar    1  UNL1        0.0032
     19 C           3.1660   -2.4854   19.5397 C.ar    1  UNL1        0.0207
     20 C           3.8942   -3.7938   19.4509 C.ar    1  UNL1        0.0989
     21 N           4.7685   -4.2439   20.5835 N.ar    1  UNL1       -0.2407
     22 C           6.8597   -1.2099   32.2214 C.3     1  UNL1        0.1274
     23 C           7.9888   -1.1867   33.2086 C.3     1  UNL1        0.0312
     24 C           5.7702   -0.1822   32.3037 C.ar    1  UNL1        0.0038
     25 C           6.0071    1.2052   31.7851 C.ar    1  UNL1       -0.0025
     26 C           4.9176    2.2328   31.8675 C.ar    1  UNL1        0.0036
     27 C           3.5911    1.8731   32.4684 C.ar    1  UNL1        0.0714
     28 C           3.3542    0.4857   32.9870 C.ar    1  UNL1        0.0074
     29 C           4.4437   -0.5419   32.9046 C.ar    1  UNL1        0.0692
     30 C           2.5016    2.9008   32.5507 C.3     1  UNL1        0.4186
     31 F           1.4121    3.9285   32.6330 F       1  UNL1       -0.1659
     32 F           1.6021    1.8948   33.2055 F       1  UNL1       -0.1659
     33 F           3.4011    3.9068   31.8959 F       1  UNL1       -0.1659
     34 C           4.2068   -1.9294   33.4232 C.3     1  UNL1        0.4183
     35 F           3.9700   -3.3168   33.9418 F       1  UNL1       -0.1659
     36 F           4.6362   -1.4911   34.7919 F       1  UNL1       -0.1659
     37 F           3.7774   -2.3678   32.0545 F       1  UNL1       -0.1659
@<TRIPOS>BOND
     1     1     2    1
     2     2     3   ar
     3     3     4   ar
     4     4    22    1
     5    22    23    1
     6    22    24    1
     7    24    25   ar
     8    25    26   ar
     9    26    27   ar
    10    27    30    1
    11    30    31    1
    12    30    32    1
    13    30    33    1
    14    27    28   ar
    15    28    29   ar
    16    29    34    1
    17    34    35    1
    18    34    36    1
    19    34    37    1
    20     4     5   ar
    21     5     6   ar
    22     6     7    1
    23     7     8   am
    24     8     9    2
    25     8    11    1
    26    11    12   ar
    27    12    13   ar
    28    13    16    1
    29    16    17   ar
    30    17    18   ar
    31    18    19   ar
    32    19    20   ar
    33    20    21   ar
    34    13    14   ar
    35    14    15   ar
    36     6     2   ar
    37    15    11   ar
    38    29    24   ar
    39    21    16   ar
    40     7    10    1
@<TRIPOS>MOLECULE
*****
 37 40 0 0 0
SMALL
GASTEIGER

@<TRIPOS>ATOM
      1 C          -4.9785    3.6293   18.7140 C.3     1  UNL1        0.0553
      2 C          -3.6496    3.9102   19.3505 C.ar    1  UNL1        0.0939
      3 N          -2.3062    3.5926   18.7636 N.ar    1  UNL1       -0.1721
      4 N          -1.2571    4.0441   19.7360 N.ar    1  UNL1       -0.2463
      5 C          -1.9522    4.6407   20.9238 C.ar    1  UNL1        0.1112
      6 C          -3.4308    4.5579   20.6856 C.ar    1  UNL1        0.0850
      7 N          -4.5024    5.0386   21.6186 N.am    1  UNL1       -0.2769
      8 C          -5.1673    4.0755   22.5568 C.2     1  UNL1        0.2706
      9 O          -4.7606    2.6317   22.5620 O.2     1  UNL1       -0.2680
     10 H          -4.7694    5.9862   21.6152 H       1  UNL1        0.1553
     11 C          -6.2389    4.5561   23.4898 C.ar    1  UNL1        0.1764
     12 C          -7.7124    4.5676   23.2090 C.ar    1  UNL1        0.0688
     13 C          -8.4094    5.1282   24.4131 C.ar    1  UNL1        0.1945
     14 O          -7.3667    5.4631   25.4381 O.2     1  UNL1       -0.3517
     15 N          -6.0253    5.1095   24.8675 N.ar    1  UNL1       -0.0722
     16 C          -9.8893    5.3202   24.5654 C.ar    1  UNL1        0.1184
     17 C         -10.7754    4.1392   24.8301 C.ar    1  UNL1        0.0223
     18 C         -12.2553    4.3312   24.9824 C.ar    1  UNL1        0.0032
     19 C         -12.8489    5.7041   24.8701 C.ar    1  UNL1        0.0207
     20 C         -11.9628    6.8851   24.6055 C.ar    1  UNL1        0.0989
     21 N         -10.4829    6.6931   24.4531 N.ar    1  UNL1       -0.2407
     22 C           0.2265    3.9207   19.5527 C.3     1  UNL1        0.1274
     23 C           1.0584    5.1474   19.3226 C.3     1  UNL1        0.0312
     24 C           0.8782    2.5704   19.5995 C.ar    1  UNL1        0.0038
     25 C           1.0857    1.7934   18.3334 C.ar    1  UNL1       -0.0025
     26 C           1.7374    0.4432   18.3802 C.ar    1  UNL1        0.0036
     27 C           2.1816   -0.1300   19.6933 C.ar    1  UNL1        0.0714
     28 C           1.9742    0.6470   20.9594 C.ar    1  UNL1        0.0074
     29 C           1.3225    1.9972   20.9126 C.ar    1  UNL1        0.0692
     30 C           2.8333   -1.4802   19.7401 C.3     1  UNL1        0.4186
     31 F           3.4850   -2.8304   19.7869 F       1  UNL1       -0.1659
     32 F           2.3498   -1.6648   21.1480 F       1  UNL1       -0.1659
     33 F           3.3169   -1.2956   18.3323 F       1  UNL1       -0.1659
     34 C           1.1150    2.7743   22.1788 C.3     1  UNL1        0.4183
     35 F           0.9076    3.5513   23.4449 F       1  UNL1       -0.1659
     36 F           2.4495    3.4334   21.9928 F       1  UNL1       -0.1659
     37 F          -0.2195    2.1151   22.3647 F       1  UNL1       -0.1659
@<TRIPOS>BOND
     1     1     2    1
     2     2     3   ar
     3     3     4   ar
     4     4    22    1
     5    22    23    1
     6    22    24    1
     7    24    25   ar
     8    25    26   ar
     9    26    27   ar
    10    27    30    1
    11    30    31    1
    12    30    32    1
    13    30    33    1
    14    27    28   ar
    15    28    29   ar
    16    29    34    1
    17    34    35    1
    18    34    36    1
    19    34    37    1
    20     4     5   ar
    21     5     6   ar
    22     6     7    1
    23     7     8   am
    24     8     9    2
    25     8    11    1
    26    11    12   ar
    27    12    13   ar
    28    13    16    1
    29    16    17   ar
    30    17    18   ar
    31    18    19   ar
    32    19    20   ar
    33    20    21   ar
    34    13    14   ar
    35    14    15   ar
    36     6     2   ar
    37    15    11   ar
    38    29    24   ar
    39    21    16   ar
    40     7    10    1
