@<TRIPOS>MOLECULE
*****
 29 30 0 0 0
SMALL
GASTEIGER

@<TRIPOS>ATOM
      1 C          -7.9036  -18.7800   22.7349 C.ar    1  UNL1       -0.0185
      2 C          -7.3659  -20.0686   22.1868 C.ar    1  UNL1       -0.0041
      3 C          -5.9447  -20.1473   21.7136 C.ar    1  UNL1        0.0057
      4 C          -5.0612  -18.9375   21.7884 C.ar    1  UNL1        0.0696
      5 C          -5.5988  -17.6489   22.3365 C.ar    1  UNL1        0.0095
      6 C          -7.0201  -17.5702   22.8098 C.ar    1  UNL1        0.0677
      7 C         -14.6735  -18.0528   23.6778 C.3     1  UNL1        0.0948
      8 C         -13.5884  -18.4650   24.6278 C.2     1  UNL1        0.2261
      9 O         -13.9246  -18.7984   26.0511 O.2     1  UNL1       -0.2749
     10 N         -12.1672  -18.5438   24.1546 N.am    1  UNL1       -0.2795
     11 C         -11.8311  -18.2103   22.7313 C.3     1  UNL1        0.0937
     12 C         -10.4099  -18.2891   22.2581 C.3     1  UNL1        0.0259
     13 C          -9.3248  -18.7012   23.2081 C.3     1  UNL1        0.0257
     14 C          -9.6609  -19.0347   24.6314 C.3     1  UNL1        0.0259
     15 C         -11.0821  -18.9559   25.1047 C.3     1  UNL1        0.0937
     16 C          -3.6399  -19.0162   21.3152 C.2     1  UNL1        0.3078
     17 O          -2.7554  -20.1346   21.7806 O.2     1  UNL1       -0.2516
     18 N          -3.1033  -17.9766   20.3766 N.am    1  UNL1       -0.1708
     19 H          -3.6839  -17.2425   20.0711 H       1  UNL1        0.2545
     20 C          -1.6821  -18.0553   19.9033 C.2     1  UNL1        0.3751
     21 N          -0.5761  -18.2960   20.8876 N.pl3   1  UNL1       -0.1313
     22 N          -1.3669  -17.8934   18.4457 N.pl3   1  UNL1       -0.2906
     23 H          -0.7830  -18.4023   21.8442 H       1  UNL1        0.3060
     24 H          -2.0928  -17.7354   17.7997 H       1  UNL1        0.2545
     25 H          -0.4341  -17.9451   18.1351 H       1  UNL1        0.2545
     26 C          -7.5577  -16.2815   23.3579 C.3     1  UNL1        0.4183
     27 F          -8.0954  -14.9929   23.9059 F       1  UNL1       -0.1659
     28 F          -7.0394  -16.6437   24.7180 F       1  UNL1       -0.1659
     29 F          -8.0760  -15.9193   21.9977 F       1  UNL1       -0.1659
@<TRIPOS>BOND
     1     7     8    1
     2     8     9    2
     3     8    10   am
     4    10    11    1
     5    11    12    1
     6    12    13    1
     7    13     1    1
     8     1     2   ar
     9     2     3   ar
    10     3     4   ar
    11     4    16    1
    12    16    17    2
    13    16    18   am
    14    18    20    1
    15    20    21    2
    16    20    22    1
    17     4     5   ar
    18     5     6   ar
    19     6    26    1
    20    26    27    1
    21    26    28    1
    22    26    29    1
    23    13    14    1
    24    14    15    1
    25    15    10    1
    26     6     1   ar
    27    18    19    1
    28    21    23    1
    29    22    24    1
    30    22    25    1
@<TRIPOS>MOLECULE
*****
 29 30 0 0 0
SMALL
GASTEIGER

@<TRIPOS>ATOM
      1 C          -8.1573  -18.4990   22.2940 C.ar    1  UNL1       -0.0185
      2 C          -9.0581  -19.6907   22.1587 C.ar    1  UNL1       -0.0041
      3 C         -10.4891  -19.6030   22.5996 C.ar    1  UNL1        0.0057
      4 C         -11.0194  -18.3237   23.1758 C.ar    1  UNL1        0.0696
      5 C         -10.1186  -17.1320   23.3112 C.ar    1  UNL1        0.0095
      6 C          -8.6876  -17.2196   22.8703 C.ar    1  UNL1        0.0677
      7 C          -2.1044  -18.9894   19.0735 C.3     1  UNL1        0.0948
      8 C          -2.4331  -18.8494   20.5303 C.2     1  UNL1        0.2261
      9 O          -1.3307  -18.7971   21.5462 O.2     1  UNL1       -0.2749
     10 N          -3.8641  -18.7618   20.9713 N.am    1  UNL1       -0.2795
     11 C          -4.9665  -18.8141   19.9554 C.3     1  UNL1        0.0937
     12 C          -6.3975  -18.7265   20.3963 C.3     1  UNL1        0.0259
     13 C          -6.7262  -18.5866   21.8531 C.3     1  UNL1        0.0257
     14 C          -5.6239  -18.5342   22.8690 C.3     1  UNL1        0.0259
     15 C          -4.1928  -18.6218   22.4281 C.3     1  UNL1        0.0937
     16 C         -12.4505  -18.2361   23.6168 C.2     1  UNL1        0.3078
     17 O         -13.4934  -17.7063   22.6779 O.2     1  UNL1       -0.2516
     18 N         -12.8386  -18.6783   24.9965 N.am    1  UNL1       -0.1708
     19 H         -12.1540  -19.0261   25.6127 H       1  UNL1        0.2545
     20 C         -14.2696  -18.5907   25.4374 C.2     1  UNL1        0.3751
     21 N         -14.6042  -18.5733   26.8995 N.pl3   1  UNL1       -0.1313
     22 N         -15.3661  -18.5205   24.4162 N.pl3   1  UNL1       -0.2906
     23 H         -13.8846  -18.6194   27.5697 H       1  UNL1        0.3060
     24 H         -15.1465  -18.5319   23.4565 H       1  UNL1        0.2545
     25 H         -16.3054  -18.4630   24.7055 H       1  UNL1        0.2545
     26 C          -7.7867  -16.0278   23.0056 C.3     1  UNL1        0.4183
     27 F          -6.8860  -14.8361   23.1409 F       1  UNL1       -0.1659
     28 F          -7.4328  -16.4537   24.3996 F       1  UNL1       -0.1659
     29 F          -8.1407  -15.6020   21.6116 F       1  UNL1       -0.1659
@<TRIPOS>BOND
     1     7     8    1
     2     8     9    2
     3     8    10   am
     4    10    11    1
     5    11    12    1
     6    12    13    1
     7    13     1    1
     8     1     2   ar
     9     2     3   ar
    10     3     4   ar
    11     4    16    1
    12    16    17    2
    13    16    18   am
    14    18    20    1
    15    20    21    2
    16    20    22    1
    17     4     5   ar
    18     5     6   ar
    19     6    26    1
    20    26    27    1
    21    26    28    1
    22    26    29    1
    23    13    14    1
    24    14    15    1
    25    15    10    1
    26     6     1   ar
    27    18    19    1
    28    21    23    1
    29    22    24    1
    30    22    25    1
@<TRIPOS>MOLECULE
*****
 29 30 0 0 0
SMALL
GASTEIGER

@<TRIPOS>ATOM
      1 C          -8.3030  -18.5604   22.2005 C.ar    1  UNL1       -0.0185
      2 C          -9.2333  -19.7188   21.9937 C.ar    1  UNL1       -0.0041
      3 C         -10.6536  -19.6341   22.4686 C.ar    1  UNL1        0.0057
      4 C         -11.1437  -18.3911   23.1503 C.ar    1  UNL1        0.0696
      5 C         -10.2134  -17.2327   23.3570 C.ar    1  UNL1        0.0095
      6 C          -8.7931  -17.3174   22.8821 C.ar    1  UNL1        0.0677
      7 C          -1.4945  -18.7985   21.2854 C.3     1  UNL1        0.0948
      8 C          -2.6217  -18.8990   20.3009 C.2     1  UNL1        0.2261
      9 O          -2.3286  -19.0841   18.8416 O.2     1  UNL1       -0.2749
     10 N          -4.0421  -18.8143   20.7758 N.am    1  UNL1       -0.2795
     11 C          -4.3352  -18.6292   22.2352 C.3     1  UNL1        0.0937
     12 C          -5.7555  -18.5446   22.7101 C.3     1  UNL1        0.0259
     13 C          -6.8827  -18.6450   21.7256 C.3     1  UNL1        0.0257
     14 C          -6.5896  -18.8302   20.2662 C.3     1  UNL1        0.0259
     15 C          -5.1693  -18.9148   19.7913 C.3     1  UNL1        0.0937
     16 C         -12.5640  -18.3064   23.6251 C.2     1  UNL1        0.3078
     17 O         -13.6548  -17.9342   22.6652 O.2     1  UNL1       -0.2516
     18 N         -12.8935  -18.5940   25.0599 N.am    1  UNL1       -0.1708
     19 H         -12.1775  -18.8383   25.6900 H       1  UNL1        0.2545
     20 C         -14.3138  -18.5094   25.5348 C.2     1  UNL1        0.3751
     21 N         -15.4417  -18.6802   24.5609 N.pl3   1  UNL1       -0.1313
     22 N         -14.6062  -18.2539   26.9838 N.pl3   1  UNL1       -0.2906
     23 H         -15.2498  -18.8479   23.6099 H       1  UNL1        0.3060
     24 H         -13.8659  -18.1417   27.6230 H       1  UNL1        0.2545
     25 H         -15.5384  -18.1983   27.2955 H       1  UNL1        0.2545
     26 C          -7.8629  -16.1589   23.0889 C.3     1  UNL1        0.4183
     27 F          -6.9326  -15.0005   23.2957 F       1  UNL1       -0.1659
     28 F          -8.1788  -15.6591   21.7103 F       1  UNL1       -0.1659
     29 F          -7.5469  -16.6587   24.4674 F       1  UNL1       -0.1659
@<TRIPOS>BOND
     1     7     8    1
     2     8     9    2
     3     8    10   am
     4    10    11    1
     5    11    12    1
     6    12    13    1
     7    13     1    1
     8     1     2   ar
     9     2     3   ar
    10     3     4   ar
    11     4    16    1
    12    16    17    2
    13    16    18   am
    14    18    20    1
    15    20    21    2
    16    20    22    1
    17     4     5   ar
    18     5     6   ar
    19     6    26    1
    20    26    27    1
    21    26    28    1
    22    26    29    1
    23    13    14    1
    24    14    15    1
    25    15    10    1
    26     6     1   ar
    27    18    19    1
    28    21    23    1
    29    22    24    1
    30    22    25    1
@<TRIPOS>MOLECULE
*****
 29 30 0 0 0
SMALL
GASTEIGER

@<TRIPOS>ATOM
      1 C          -6.7247  -18.3273   22.1658 C.ar    1  UNL1       -0.0185
      2 C          -5.6851  -17.6170   22.9811 C.ar    1  UNL1       -0.0041
      3 C          -4.2323  -17.7667   22.6390 C.ar    1  UNL1        0.0057
      4 C          -3.8191  -18.6267   21.4816 C.ar    1  UNL1        0.0696
      5 C          -4.8587  -19.3370   20.6663 C.ar    1  UNL1        0.0095
      6 C          -6.3115  -19.1873   21.0084 C.ar    1  UNL1        0.0677
      7 C         -13.1934  -18.7090   24.4594 C.3     1  UNL1        0.0948
      8 C         -12.5358  -17.7284   23.5343 C.2     1  UNL1        0.2261
      9 O         -13.3309  -16.5980   22.9513 O.2     1  UNL1       -0.2749
     10 N         -11.0830  -17.8781   23.1922 N.am    1  UNL1       -0.2795
     11 C         -10.2878  -19.0085   23.7751 C.3     1  UNL1        0.0937
     12 C          -8.8351  -19.1582   23.4330 C.3     1  UNL1        0.0259
     13 C          -8.1774  -18.1776   22.5079 C.3     1  UNL1        0.0257
     14 C          -8.9726  -17.0472   21.9250 C.3     1  UNL1        0.0259
     15 C         -10.4254  -16.8975   22.2671 C.3     1  UNL1        0.0937
     16 C          -2.3664  -18.7765   21.1395 C.2     1  UNL1        0.3078
     17 O          -1.6294  -20.0243   21.5266 O.2     1  UNL1       -0.2516
     18 N          -1.6505  -17.6784   20.4103 N.am    1  UNL1       -0.1708
     19 H          -2.1342  -16.8594   20.1563 H       1  UNL1        0.2545
     20 C          -0.1977  -17.8281   20.0682 C.2     1  UNL1        0.3751
     21 N           0.3564  -19.1789   19.7242 N.pl3   1  UNL1       -0.1313
     22 N           0.7009  -16.6270   20.0701 N.pl3   1  UNL1       -0.2906
     23 H          -0.2334  -19.9671   19.7230 H       1  UNL1        0.3060
     24 H           0.3371  -15.7405   20.2959 H       1  UNL1        0.2545
     25 H           1.6544  -16.7253   19.8456 H       1  UNL1        0.2545
     26 C          -7.3511  -19.8976   20.1931 C.3     1  UNL1        0.4183
     27 F          -8.3906  -20.6079   19.3778 F       1  UNL1       -0.1659
     28 F          -7.5771  -18.6489   19.3933 F       1  UNL1       -0.1659
     29 F          -7.1251  -21.1463   20.9928 F       1  UNL1       -0.1659
@<TRIPOS>BOND
     1     7     8    1
     2     8     9    2
     3     8    10   am
     4    10    11    1
     5    11    12    1
     6    12    13    1
     7    13     1    1
     8     1     2   ar
     9     2     3   ar
    10     3     4   ar
    11     4    16    1
    12    16    17    2
    13    16    18   am
    14    18    20    1
    15    20    21    2
    16    20    22    1
    17     4     5   ar
    18     5     6   ar
    19     6    26    1
    20    26    27    1
    21    26    28    1
    22    26    29    1
    23    13    14    1
    24    14    15    1
    25    15    10    1
    26     6     1   ar
    27    18    19    1
    28    21    23    1
    29    22    24    1
    30    22    25    1
@<TRIPOS>MOLECULE
*****
 29 30 0 0 0
SMALL
GASTEIGER

@<TRIPOS>ATOM
      1 C         -15.6612   -4.2823   18.7532 C.ar    1  UNL1       -0.0185
      2 C         -17.0722   -4.7320   18.5156 C.ar    1  UNL1       -0.0041
      3 C         -17.4368   -6.1775   18.6819 C.ar    1  UNL1        0.0057
      4 C         -16.3903   -7.1733   19.0859 C.ar    1  UNL1        0.0696
      5 C         -14.9792   -6.7235   19.3236 C.ar    1  UNL1        0.0095
      6 C         -14.6146   -5.2780   19.1572 C.ar    1  UNL1        0.0677
      7 C         -13.4893    1.9554   16.8496 C.3     1  UNL1        0.0948
      8 C         -14.2029    1.4996   18.0877 C.2     1  UNL1        0.2261
      9 O         -14.5519    2.4893   19.1595 O.2     1  UNL1       -0.2749
     10 N         -14.5674    0.0541   18.2541 N.am    1  UNL1       -0.2795
     11 C         -14.2184   -0.9355   17.1823 C.3     1  UNL1        0.0937
     12 C         -14.5830   -2.3810   17.3487 C.3     1  UNL1        0.0259
     13 C         -15.2966   -2.8368   18.5868 C.3     1  UNL1        0.0257
     14 C         -15.6456   -1.8471   19.6586 C.3     1  UNL1        0.0259
     15 C         -15.2810   -0.4017   19.4922 C.3     1  UNL1        0.0937
     16 C         -16.7549   -8.6187   19.2523 C.2     1  UNL1        0.3078
     17 O         -16.2658   -9.3829   20.4468 O.2     1  UNL1       -0.2516
     18 N         -17.6085   -9.3001   18.2242 N.am    1  UNL1       -0.1708
     19 H         -17.9295   -8.7985   17.4402 H       1  UNL1        0.2545
     20 C         -17.9730  -10.7455   18.3905 C.2     1  UNL1        0.3751
     21 N         -19.3429  -11.2223   18.0083 N.pl3   1  UNL1       -0.1313
     22 N         -16.9677  -11.7142   18.9392 N.pl3   1  UNL1       -0.2906
     23 H         -20.0027  -10.5865   17.6482 H       1  UNL1        0.3060
     24 H         -16.0686  -11.4013   19.1900 H       1  UNL1        0.2545
     25 H         -17.2069  -12.6630   19.0484 H       1  UNL1        0.2545
     26 C         -13.2035   -4.8283   19.3948 C.3     1  UNL1        0.4183
     27 F         -11.7924   -4.3786   19.6325 F       1  UNL1       -0.1659
     28 F         -12.8515   -5.1854   17.9811 F       1  UNL1       -0.1659
     29 F         -13.5554   -4.4713   20.8085 F       1  UNL1       -0.1659
@<TRIPOS>BOND
     1     7     8    1
     2     8     9    2
     3     8    10   am
     4    10    11    1
     5    11    12    1
     6    12    13    1
     7    13     1    1
     8     1     2   ar
     9     2     3   ar
    10     3     4   ar
    11     4    16    1
    12    16    17    2
    13    16    18   am
    14    18    20    1
    15    20    21    2
    16    20    22    1
    17     4     5   ar
    18     5     6   ar
    19     6    26    1
    20    26    27    1
    21    26    28    1
    22    26    29    1
    23    13    14    1
    24    14    15    1
    25    15    10    1
    26     6     1   ar
    27    18    19    1
    28    21    23    1
    29    22    24    1
    30    22    25    1
@<TRIPOS>MOLECULE
*****
 29 30 0 0 0
SMALL
GASTEIGER

@<TRIPOS>ATOM
      1 C         -14.0857   -2.3071   18.9527 C.ar    1  UNL1       -0.0185
      2 C         -12.6754   -1.8461   18.7325 C.ar    1  UNL1       -0.0041
      3 C         -11.5497   -2.8370   18.7591 C.ar    1  UNL1        0.0057
      4 C         -11.8342   -4.2889   19.0058 C.ar    1  UNL1        0.0696
      5 C         -13.2445   -4.7499   19.2259 C.ar    1  UNL1        0.0095
      6 C         -14.3702   -3.7590   19.1994 C.ar    1  UNL1        0.0677
      7 C         -19.1393    2.1314   17.5343 C.3     1  UNL1        0.0948
      8 C         -18.5888    1.6567   18.8464 C.2     1  UNL1        0.2261
      9 O         -19.1641    2.1729   20.1319 O.2     1  UNL1       -0.2749
     10 N         -17.4630    0.6657   18.8730 N.am    1  UNL1       -0.2795
     11 C         -16.8878    0.1495   17.5875 C.3     1  UNL1        0.0937
     12 C         -15.7620   -0.8414   17.6140 C.3     1  UNL1        0.0259
     13 C         -15.2115   -1.3161   18.9261 C.3     1  UNL1        0.0257
     14 C         -15.7867   -0.7999   20.2116 C.3     1  UNL1        0.0259
     15 C         -16.9125    0.1910   20.1850 C.3     1  UNL1        0.0937
     16 C         -10.7084   -5.2798   19.0323 C.2     1  UNL1        0.3078
     17 O          -9.3417   -4.8505   19.4771 O.2     1  UNL1       -0.2516
     18 N         -10.9493   -6.7000   18.6142 N.am    1  UNL1       -0.1708
     19 H         -11.8464   -6.9818   18.3223 H       1  UNL1        0.2545
     20 C          -9.8236   -7.6910   18.6408 C.2     1  UNL1        0.3751
     21 N          -9.7606   -8.7823   17.6137 N.pl3   1  UNL1       -0.1313
     22 N          -8.7607   -7.5905   19.6945 N.pl3   1  UNL1       -0.2906
     23 H         -10.4582   -8.8482   16.9221 H       1  UNL1        0.3060
     24 H          -8.8020   -6.8742   20.3686 H       1  UNL1        0.2545
     25 H          -8.0218   -8.2409   19.7120 H       1  UNL1        0.2545
     26 C         -15.7806   -4.2200   19.4195 C.3     1  UNL1        0.4183
     27 F         -17.1909   -4.6811   19.6398 F       1  UNL1       -0.1659
     28 F         -15.9883   -4.2932   17.9358 F       1  UNL1       -0.1659
     29 F         -15.5729   -4.1468   20.9033 F       1  UNL1       -0.1659
@<TRIPOS>BOND
     1     7     8    1
     2     8     9    2
     3     8    10   am
     4    10    11    1
     5    11    12    1
     6    12    13    1
     7    13     1    1
     8     1     2   ar
     9     2     3   ar
    10     3     4   ar
    11     4    16    1
    12    16    17    2
    13    16    18   am
    14    18    20    1
    15    20    21    2
    16    20    22    1
    17     4     5   ar
    18     5     6   ar
    19     6    26    1
    20    26    27    1
    21    26    28    1
    22    26    29    1
    23    13    14    1
    24    14    15    1
    25    15    10    1
    26     6     1   ar
    27    18    19    1
    28    21    23    1
    29    22    24    1
    30    22    25    1
@<TRIPOS>MOLECULE
*****
 29 30 0 0 0
SMALL
GASTEIGER

@<TRIPOS>ATOM
      1 C           5.2548   -0.8425   34.2374 C.ar    1  UNL1       -0.0185
      2 C           4.5173   -2.0265   33.6861 C.ar    1  UNL1       -0.0041
      3 C           5.2160   -2.9837   32.7666 C.ar    1  UNL1        0.0057
      4 C           6.6522   -2.7569   32.3983 C.ar    1  UNL1        0.0696
      5 C           7.3898   -1.5728   32.9496 C.ar    1  UNL1        0.0095
      6 C           6.6911   -0.6156   33.8691 C.ar    1  UNL1        0.0677
      7 C           1.6485    4.1135   37.3491 C.3     1  UNL1        0.0948
      8 C           2.4600    2.9864   37.9156 C.2     1  UNL1        0.2261
      9 O           2.5728    2.8164   39.4016 O.2     1  UNL1       -0.2749
     10 N           3.1587    2.0292   36.9960 N.am    1  UNL1       -0.2795
     11 C           3.0459    2.1991   35.5100 C.3     1  UNL1        0.0937
     12 C           3.7446    1.2419   34.5905 C.3     1  UNL1        0.0259
     13 C           4.5561    0.1148   35.1570 C.3     1  UNL1        0.0257
     14 C           4.6689   -0.0552   36.6430 C.3     1  UNL1        0.0259
     15 C           3.9702    0.9020   37.5625 C.3     1  UNL1        0.0937
     16 C           7.3510   -3.7141   31.4788 C.2     1  UNL1        0.3078
     17 O           8.8280   -3.5901   31.2486 O.2     1  UNL1       -0.2516
     18 N           6.5726   -4.7952   30.7894 N.am    1  UNL1       -0.1708
     19 H           5.6032   -4.8766   30.9404 H       1  UNL1        0.2545
     20 C           7.2714   -5.7524   29.8698 C.2     1  UNL1        0.3751
     21 N           6.6973   -6.0457   28.5155 N.pl3   1  UNL1       -0.1313
     22 N           8.5442   -6.4164   30.3047 N.pl3   1  UNL1       -0.2906
     23 H           5.8619   -5.6099   28.2300 H       1  UNL1        0.3060
     24 H           8.9210   -6.2239   31.1937 H       1  UNL1        0.2545
     25 H           9.0028   -7.0447   29.7012 H       1  UNL1        0.2545
     26 C           7.4287    0.5686   34.4204 C.3     1  UNL1        0.4183
     27 F           8.1663    1.7526   34.9717 F       1  UNL1       -0.1659
     28 F           6.9742    1.3948   33.2539 F       1  UNL1       -0.1659
     29 F           7.8832   -0.2577   35.5869 F       1  UNL1       -0.1659
@<TRIPOS>BOND
     1     7     8    1
     2     8     9    2
     3     8    10   am
     4    10    11    1
     5    11    12    1
     6    12    13    1
     7    13     1    1
     8     1     2   ar
     9     2     3   ar
    10     3     4   ar
    11     4    16    1
    12    16    17    2
    13    16    18   am
    14    18    20    1
    15    20    21    2
    16    20    22    1
    17     4     5   ar
    18     5     6   ar
    19     6    26    1
    20    26    27    1
    21    26    28    1
    22    26    29    1
    23    13    14    1
    24    14    15    1
    25    15    10    1
    26     6     1   ar
    27    18    19    1
    28    21    23    1
    29    22    24    1
    30    22    25    1
@<TRIPOS>MOLECULE
*****
 29 30 0 0 0
SMALL
GASTEIGER

@<TRIPOS>ATOM
      1 C          -8.0917  -18.4013   22.2114 C.ar    1  UNL1       -0.0185
      2 C          -8.4288  -17.6790   23.4820 C.ar    1  UNL1       -0.0041
      3 C          -9.8561  -17.5803   23.9327 C.ar    1  UNL1        0.0057
      4 C         -10.9463  -18.2039   23.1127 C.ar    1  UNL1        0.0696
      5 C         -10.6093  -18.9262   21.8420 C.ar    1  UNL1        0.0095
      6 C          -9.1820  -19.0249   21.3914 C.ar    1  UNL1        0.0677
      7 C          -2.0595  -18.8367   18.9445 C.3     1  UNL1        0.0948
      8 C          -2.3826  -18.7961   20.4087 C.2     1  UNL1        0.2261
      9 O          -1.2784  -18.8541   21.4222 O.2     1  UNL1       -0.2749
     10 N          -3.8099  -18.6974   20.8594 N.am    1  UNL1       -0.2795
     11 C          -4.9141  -18.6393   19.8458 C.3     1  UNL1        0.0937
     12 C          -6.3414  -18.5406   20.2965 C.3     1  UNL1        0.0259
     13 C          -6.6645  -18.5000   21.7607 C.3     1  UNL1        0.0257
     14 C          -5.5602  -18.5580   22.7742 C.3     1  UNL1        0.0259
     15 C          -4.1330  -18.6567   22.3236 C.3     1  UNL1        0.0937
     16 C         -12.3736  -18.1052   23.5634 C.2     1  UNL1        0.3078
     17 O         -13.3996  -17.4713   22.6715 O.2     1  UNL1       -0.2516
     18 N         -12.7749  -18.6404   24.9059 N.am    1  UNL1       -0.1708
     19 H         -12.1015  -19.0565   25.4913 H       1  UNL1        0.2545
     20 C         -14.2022  -18.5417   25.3566 C.2     1  UNL1        0.3751
     21 N         -15.3142  -18.6581   24.3566 N.pl3   1  UNL1       -0.1313
     22 N         -14.5175  -18.3266   26.8072 N.pl3   1  UNL1       -0.2906
     23 H         -15.1073  -18.7993   23.4045 H       1  UNL1        0.3060
     24 H         -13.7876  -18.2502   27.4635 H       1  UNL1        0.2545
     25 H         -15.4543  -18.2618   27.1031 H       1  UNL1        0.2545
     26 C          -8.8450  -19.7473   20.1207 C.3     1  UNL1        0.4183
     27 F          -8.5080  -20.4696   18.8500 F       1  UNL1       -0.1659
     28 F          -8.0941  -20.7805   20.9071 F       1  UNL1       -0.1659
     29 F          -9.5959  -18.7141   19.3342 F       1  UNL1       -0.1659
@<TRIPOS>BOND
     1     7     8    1
     2     8     9    2
     3     8    10   am
     4    10    11    1
     5    11    12    1
     6    12    13    1
     7    13     1    1
     8     1     2   ar
     9     2     3   ar
    10     3     4   ar
    11     4    16    1
    12    16    17    2
    13    16    18   am
    14    18    20    1
    15    20    21    2
    16    20    22    1
    17     4     5   ar
    18     5     6   ar
    19     6    26    1
    20    26    27    1
    21    26    28    1
    22    26    29    1
    23    13    14    1
    24    14    15    1
    25    15    10    1
    26     6     1   ar
    27    18    19    1
    28    21    23    1
    29    22    24    1
    30    22    25    1
@<TRIPOS>MOLECULE
*****
 29 30 0 0 0
SMALL
GASTEIGER

@<TRIPOS>ATOM
      1 C           6.7551   -4.1223   24.6065 C.ar    1  UNL1       -0.0185
      2 C           7.1079   -5.5288   24.9902 C.ar    1  UNL1       -0.0041
      3 C           7.2731   -5.8928   26.4360 C.ar    1  UNL1        0.0057
      4 C           7.0854   -4.8504   27.4980 C.ar    1  UNL1        0.0696
      5 C           6.7325   -3.4439   27.1143 C.ar    1  UNL1        0.0095
      6 C           6.5674   -3.0798   25.6686 C.ar    1  UNL1        0.0677
      7 C           4.7296   -2.6644   18.2017 C.3     1  UNL1        0.0948
      8 C           6.0946   -2.6661   18.8235 C.2     1  UNL1        0.2261
      9 O           7.2945   -2.3037   17.9996 O.2     1  UNL1       -0.2749
     10 N           6.2597   -3.0301   20.2692 N.am    1  UNL1       -0.2795
     11 C           5.0599   -3.3925   21.0932 C.3     1  UNL1        0.0937
     12 C           5.2250   -3.7565   22.5389 C.3     1  UNL1        0.0259
     13 C           6.5900   -3.7582   23.1608 C.3     1  UNL1        0.0257
     14 C           7.7899   -3.3959   22.3368 C.3     1  UNL1        0.0259
     15 C           7.6248   -3.0318   20.8911 C.3     1  UNL1        0.0937
     16 C           7.2505   -5.2144   28.9438 C.2     1  UNL1        0.3078
     17 O           7.8907   -6.5174   29.3207 O.2     1  UNL1       -0.2516
     18 N           6.7753   -4.2754   30.0126 N.am    1  UNL1       -0.1708
     19 H           6.3551   -3.4202   29.7653 H       1  UNL1        0.2545
     20 C           6.9405   -4.6395   31.4584 C.2     1  UNL1        0.3751
     21 N           6.5345   -6.0007   31.9401 N.pl3   1  UNL1       -0.1313
     22 N           7.5116   -3.6422   32.4224 N.pl3   1  UNL1       -0.2906
     23 H           6.1597   -6.6553   31.3074 H       1  UNL1        0.3060
     24 H           7.7780   -2.7487   32.1062 H       1  UNL1        0.2545
     25 H           7.6200   -3.8811   33.3713 H       1  UNL1        0.2545
     26 C           6.2146   -1.6732   25.2849 C.3     1  UNL1        0.4183
     27 F           5.8617   -0.2668   24.9013 F       1  UNL1       -0.1659
     28 F           7.6724   -1.3369   25.1773 F       1  UNL1       -0.1659
     29 F           4.7568   -2.0096   25.3926 F       1  UNL1       -0.1659
@<TRIPOS>BOND
     1     7     8    1
     2     8     9    2
     3     8    10   am
     4    10    11    1
     5    11    12    1
     6    12    13    1
     7    13     1    1
     8     1     2   ar
     9     2     3   ar
    10     3     4   ar
    11     4    16    1
    12    16    17    2
    13    16    18   am
    14    18    20    1
    15    20    21    2
    16    20    22    1
    17     4     5   ar
    18     5     6   ar
    19     6    26    1
    20    26    27    1
    21    26    28    1
    22    26    29    1
    23    13    14    1
    24    14    15    1
    25    15    10    1
    26     6     1   ar
    27    18    19    1
    28    21    23    1
    29    22    24    1
    30    22    25    1
