@<TRIPOS>MOLECULE
*****
 30 33 0 0 0
SMALL
GASTEIGER

@<TRIPOS>ATOM
      1 C         -10.1437  -17.2437   24.1922 C.3     1  UNL1        0.2506
      2 C         -10.5185  -18.0418   21.7483 C.2     1  UNL1        0.0335
      3 C          -9.6618  -17.9811   22.9781 C.2     1  UNL1        0.1013
      4 N          -8.3232  -18.6578   22.9938 N.2     1  UNL1       -0.2501
      5 C          -7.8413  -19.3953   21.7797 C.2     1  UNL1        0.0661
      6 C          -6.5028  -20.0720   21.7954 C.3     1  UNL1        0.0718
      7 C          -6.0209  -20.8094   20.5814 C.2     1  UNL1       -0.0198
      8 C          -6.8776  -20.8701   19.3516 C.2     1  UNL1       -0.0040
      9 C          -8.2161  -20.1934   19.3359 C.2     1  UNL1        0.0040
     10 C          -8.6980  -19.4560   20.5499 C.2     1  UNL1        0.0525
     11 C         -10.0366  -18.7792   20.5342 C.2     1  UNL1        0.1940
     12 O         -10.8933  -18.8399   19.3045 O.2     1  UNL1       -0.2868
     13 C         -12.0472  -16.0968   20.9545 C.3     1  UNL1        0.0048
     14 C         -11.8571  -17.3650   21.7326 C.3     1  UNL1        0.0268
     15 C         -13.0055  -17.9564   22.4951 C.3     1  UNL1        0.0048
     16 O          -9.5896  -15.8877   24.5151 O.3     1  UNL1       -0.4689
     17 C          -8.1793  -15.7516   25.0076 C.ar    1  UNL1        0.1422
     18 C          -7.9154  -15.4542   26.4539 C.ar    1  UNL1        0.0371
     19 C          -6.5051  -15.3181   26.9464 C.ar    1  UNL1        0.0062
     20 C          -5.3587  -15.4793   25.9926 C.ar    1  UNL1        0.0371
     21 C          -5.6227  -15.7767   24.5462 C.ar    1  UNL1        0.1416
     22 C          -7.0329  -15.9128   24.0537 C.ar    1  UNL1        0.0738
     23 O          -4.4763  -15.9380   23.5923 O.3     1  UNL1       -0.4754
     24 C          -3.7652  -17.2548   23.4902 C.3     1  UNL1        0.2054
     25 C          -2.9125  -17.5559   22.2934 C.3     1  UNL1        0.0487
     26 C          -2.8985  -18.9381   21.7110 C.3     1  UNL1        0.0359
     27 C          -2.0457  -19.2391   20.5143 C.3     1  UNL1        0.1423
     28 O          -1.2070  -18.1579   19.8999 O.3     1  UNL1       -0.3538
     29 C          -1.2210  -16.7756   20.4823 C.3     1  UNL1        0.1423
     30 C          -2.0737  -16.4746   21.6790 C.3     1  UNL1        0.0359
@<TRIPOS>BOND
     1    13    14    1
     2    14    15    1
     3    14     2    1
     4     2     3    2
     5     3     1    1
     6     1    16    1
     7    16    17    1
     8    17    18   ar
     9    18    19   ar
    10    19    20   ar
    11    20    21   ar
    12    21    23    1
    13    23    24    1
    14    24    25    1
    15    25    26    1
    16    26    27    1
    17    27    28    1
    18    28    29    1
    19    29    30    1
    20    21    22   ar
    21     3     4    1
    22     4     5    2
    23     5     6    1
    24     6     7    1
    25     7     8    2
    26     8     9    1
    27     9    10    2
    28    10    11    1
    29    11    12    2
    30    11     2    1
    31    22    17   ar
    32    10     5    1
    33    30    25    1
@<TRIPOS>MOLECULE
*****
 30 33 0 0 0
SMALL
GASTEIGER

@<TRIPOS>ATOM
      1 C          -9.8189  -16.8607   21.1407 C.3     1  UNL1        0.2506
      2 C         -10.1046  -17.6986   23.5833 C.2     1  UNL1        0.0335
      3 C          -9.4010  -16.8323   22.5811 C.2     1  UNL1        0.1013
      4 N          -8.2795  -15.9377   23.0191 N.2     1  UNL1       -0.2501
      5 C          -7.8616  -15.9094   24.4595 C.2     1  UNL1        0.0661
      6 C          -6.7401  -15.0148   24.8976 C.3     1  UNL1        0.0718
      7 C          -6.3223  -14.9865   26.3379 C.2     1  UNL1       -0.0198
      8 C          -7.0259  -15.8527   27.3401 C.2     1  UNL1       -0.0040
      9 C          -8.1473  -16.7473   26.9021 C.2     1  UNL1        0.0040
     10 C          -8.5652  -16.7757   25.4618 C.2     1  UNL1        0.0525
     11 C          -9.6867  -17.6703   25.0236 C.2     1  UNL1        0.1940
     12 O         -10.3903  -18.5366   26.0259 O.2     1  UNL1       -0.2868
     13 C         -10.9522  -20.0290   22.8082 C.3     1  UNL1        0.0048
     14 C         -11.2261  -18.5933   23.1452 C.3     1  UNL1        0.0268
     15 C         -12.6214  -18.0521   23.0441 C.3     1  UNL1        0.0048
     16 O          -9.7028  -18.1307   20.3510 O.3     1  UNL1       -0.4689
     17 C          -8.4341  -18.9296   20.3977 C.ar    1  UNL1        0.1422
     18 C          -8.1840  -20.0001   19.3773 C.ar    1  UNL1        0.0371
     19 C          -6.9153  -20.7991   19.4240 C.ar    1  UNL1        0.0062
     20 C          -5.8968  -20.5275   20.4912 C.ar    1  UNL1        0.0371
     21 C          -6.1470  -19.4569   21.5116 C.ar    1  UNL1        0.1416
     22 C          -7.4156  -18.6580   21.4649 C.ar    1  UNL1        0.0738
     23 O          -5.1285  -19.1852   22.5788 O.3     1  UNL1       -0.4754
     24 C          -3.6927  -19.5591   22.3578 C.3     1  UNL1        0.2054
     25 C          -2.7665  -18.6027   21.6668 C.3     1  UNL1        0.0487
     26 C          -1.9790  -19.0522   20.4719 C.3     1  UNL1        0.0359
     27 C          -1.0528  -18.0958   19.7809 C.3     1  UNL1        0.1423
     28 O          -0.9141  -16.6898   20.2848 O.3     1  UNL1       -0.3538
     29 C          -1.7016  -16.2402   21.4798 C.3     1  UNL1        0.1423
     30 C          -2.6278  -17.1966   22.1708 C.3     1  UNL1        0.0359
@<TRIPOS>BOND
     1    13    14    1
     2    14    15    1
     3    14     2    1
     4     2     3    2
     5     3     1    1
     6     1    16    1
     7    16    17    1
     8    17    18   ar
     9    18    19   ar
    10    19    20   ar
    11    20    21   ar
    12    21    23    1
    13    23    24    1
    14    24    25    1
    15    25    26    1
    16    26    27    1
    17    27    28    1
    18    28    29    1
    19    29    30    1
    20    21    22   ar
    21     3     4    1
    22     4     5    2
    23     5     6    1
    24     6     7    1
    25     7     8    2
    26     8     9    1
    27     9    10    2
    28    10    11    1
    29    11    12    2
    30    11     2    1
    31    22    17   ar
    32    10     5    1
    33    30    25    1
@<TRIPOS>MOLECULE
*****
 30 33 0 0 0
SMALL
GASTEIGER

@<TRIPOS>ATOM
      1 C         -14.3797   -7.0186   19.0216 C.3     1  UNL1        0.2506
      2 C         -16.8149   -6.1463   19.2643 C.2     1  UNL1        0.0335
      3 C         -15.3381   -5.8849   19.2367 C.2     1  UNL1        0.1013
      4 N         -14.8198   -4.4899   19.4243 N.2     1  UNL1       -0.2501
      5 C         -15.7782   -3.3562   19.6394 C.2     1  UNL1        0.0661
      6 C         -15.2598   -1.9612   19.8270 C.3     1  UNL1        0.0718
      7 C         -16.2182   -0.8276   20.0421 C.2     1  UNL1       -0.0198
      8 C         -17.6950   -1.0890   20.0697 C.2     1  UNL1       -0.0040
      9 C         -18.2134   -2.4840   19.8821 C.2     1  UNL1        0.0040
     10 C         -17.2550   -3.6176   19.6670 C.2     1  UNL1        0.0525
     11 C         -17.7734   -5.0127   19.4794 C.2     1  UNL1        0.1940
     12 O         -19.2501   -5.2740   19.5070 O.2     1  UNL1       -0.2868
     13 C         -17.6158   -8.4034   20.2713 C.3     1  UNL1        0.0048
     14 C         -17.3333   -7.5414   19.0767 C.3     1  UNL1        0.0268
     15 C         -17.5692   -8.0743   17.6946 C.3     1  UNL1        0.0048
     16 O         -13.3590   -6.9399   17.9253 O.3     1  UNL1       -0.4689
     17 C         -12.0915   -6.1657   18.1348 C.ar    1  UNL1        0.1422
     18 C         -10.9343   -6.8002   18.8477 C.ar    1  UNL1        0.0371
     19 C          -9.6667   -6.0260   19.0572 C.ar    1  UNL1        0.0062
     20 C          -9.5563   -4.6173   18.5538 C.ar    1  UNL1        0.0371
     21 C         -10.7136   -3.9828   17.8408 C.ar    1  UNL1        0.1416
     22 C         -11.9812   -4.7570   17.6313 C.ar    1  UNL1        0.0738
     23 O         -10.6033   -2.5741   17.3374 O.3     1  UNL1       -0.4754
     24 C         -11.1720   -1.4433   18.1424 C.3     1  UNL1        0.2054
     25 C         -12.4345   -0.7666   17.6975 C.3     1  UNL1        0.0487
     26 C         -13.3189   -1.4235   16.6795 C.3     1  UNL1        0.0359
     27 C         -14.5815   -0.7468   16.2345 C.3     1  UNL1        0.1423
     28 O         -14.9597    0.5868   16.8076 O.3     1  UNL1       -0.3538
     29 C         -14.0753    1.2438   17.8257 C.3     1  UNL1        0.1423
     30 C         -12.8128    0.5671   18.2706 C.3     1  UNL1        0.0359
@<TRIPOS>BOND
     1    13    14    1
     2    14    15    1
     3    14     2    1
     4     2     3    2
     5     3     1    1
     6     1    16    1
     7    16    17    1
     8    17    18   ar
     9    18    19   ar
    10    19    20   ar
    11    20    21   ar
    12    21    23    1
    13    23    24    1
    14    24    25    1
    15    25    26    1
    16    26    27    1
    17    27    28    1
    18    28    29    1
    19    29    30    1
    20    21    22   ar
    21     3     4    1
    22     4     5    2
    23     5     6    1
    24     6     7    1
    25     7     8    2
    26     8     9    1
    27     9    10    2
    28    10    11    1
    29    11    12    2
    30    11     2    1
    31    22    17   ar
    32    10     5    1
    33    30    25    1
@<TRIPOS>MOLECULE
*****
 30 33 0 0 0
SMALL
GASTEIGER

@<TRIPOS>ATOM
      1 C           6.4298   -2.4172   17.9048 C.3     1  UNL1        0.2506
      2 C           5.4178   -3.3802   20.0954 C.2     1  UNL1        0.0335
      3 C           6.4225   -2.5085   19.4021 C.2     1  UNL1        0.1013
      4 N           7.4198   -1.7281   20.2059 N.2     1  UNL1       -0.2501
      5 C           7.4125   -1.8194   21.7031 C.2     1  UNL1        0.0661
      6 C           8.4099   -1.0389   22.5070 C.3     1  UNL1        0.0718
      7 C           8.4026   -1.1302   24.0041 C.2     1  UNL1       -0.0198
      8 C           7.3979   -2.0020   24.6975 C.2     1  UNL1       -0.0040
      9 C           6.4005   -2.7824   23.8936 C.2     1  UNL1        0.0040
     10 C           6.4079   -2.6911   22.3965 C.2     1  UNL1        0.0525
     11 C           5.4105   -3.4715   21.5926 C.2     1  UNL1        0.1940
     12 O           4.4058   -4.3433   22.2859 O.2     1  UNL1       -0.2868
     13 C           4.7912   -5.5038   18.7359 C.3     1  UNL1        0.0048
     14 C           4.4204   -4.1607   19.2915 C.3     1  UNL1        0.0268
     15 C           3.0523   -3.5980   19.0431 C.3     1  UNL1        0.0048
     16 O           6.4746   -1.0756   17.2354 O.3     1  UNL1       -0.4689
     17 C           5.5492    0.0169   17.6824 C.ar    1  UNL1        0.1422
     18 C           6.0917    1.3821   17.9854 C.ar    1  UNL1        0.0371
     19 C           5.1662    2.4747   18.4325 C.ar    1  UNL1        0.0062
     20 C           3.6982    2.2020   18.5765 C.ar    1  UNL1        0.0371
     21 C           3.1557    0.8367   18.2734 C.ar    1  UNL1        0.1416
     22 C           4.0812   -0.2558   17.8264 C.ar    1  UNL1        0.0738
     23 O           1.6878    0.5640   18.4174 O.3     1  UNL1       -0.4754
     24 C           1.1983   -0.3572   19.4954 C.3     1  UNL1        0.2054
     25 C           1.6115   -0.1315   20.9196 C.3     1  UNL1        0.0487
     26 C           0.9028    0.8951   21.7524 C.3     1  UNL1        0.0359
     27 C           1.3160    1.1208   23.1766 C.3     1  UNL1        0.1423
     28 O           2.4379    0.3199   23.7679 O.3     1  UNL1       -0.3538
     29 C           3.1468   -0.7068   22.9350 C.3     1  UNL1        0.1423
     30 C           2.7335   -0.9325   21.5109 C.3     1  UNL1        0.0359
@<TRIPOS>BOND
     1    13    14    1
     2    14    15    1
     3    14     2    1
     4     2     3    2
     5     3     1    1
     6     1    16    1
     7    16    17    1
     8    17    18   ar
     9    18    19   ar
    10    19    20   ar
    11    20    21   ar
    12    21    23    1
    13    23    24    1
    14    24    25    1
    15    25    26    1
    16    26    27    1
    17    27    28    1
    18    28    29    1
    19    29    30    1
    20    21    22   ar
    21     3     4    1
    22     4     5    2
    23     5     6    1
    24     6     7    1
    25     7     8    2
    26     8     9    1
    27     9    10    2
    28    10    11    1
    29    11    12    2
    30    11     2    1
    31    22    17   ar
    32    10     5    1
    33    30    25    1
