@<TRIPOS>MOLECULE
*****
 22 25 0 0 0
SMALL
GASTEIGER

@<TRIPOS>ATOM
      1 O          -5.6642  -14.7045   25.0130 O.2     1  UNL1       -0.2638
      2 C          -5.6072  -15.8909   24.0969 C.2     1  UNL1        0.3160
      3 N          -4.2882  -16.3597   23.5580 N.am    1  UNL1       -0.1720
      4 C          -4.2311  -17.5462   22.6420 C.ar    1  UNL1        0.0780
      5 C          -2.9121  -18.0149   22.1031 C.ar    1  UNL1        0.0234
      6 C          -2.8552  -19.2013   21.1871 C.ar    1  UNL1        0.0359
      7 BR         -1.5361  -19.6701   20.6481 Br      1  UNL1       -0.0490
      8 C          -4.1172  -19.9190   20.8099 C.ar    1  UNL1        0.0069
      9 C          -5.4362  -19.4502   21.3488 C.ar    1  UNL1        0.0056
     10 C          -5.4932  -18.2638   22.2648 C.ar    1  UNL1        0.0623
     11 C          -6.8122  -17.7950   22.8038 C.2     1  UNL1        0.2419
     12 N          -8.2118  -18.2983   22.6095 N.2     1  UNL1       -0.0302
     13 C          -9.1338  -17.4230   23.4055 C.2     1  UNL1        0.3765
     14 N          -8.3041  -16.3787   24.0917 N.2     1  UNL1       -0.0256
     15 C          -6.8692  -16.6086   23.7198 C.2     1  UNL1        0.2907
     16 C         -10.6241  -17.5667   23.4989 C.ar    1  UNL1        0.0989
     17 C         -11.5159  -16.6767   22.6849 C.ar    1  UNL1        0.0085
     18 C         -13.0060  -16.8205   22.7783 C.ar    1  UNL1        0.0003
     19 C         -13.6043  -17.8542   23.6857 C.ar    1  UNL1        0.0009
     20 C         -12.7126  -18.7442   24.4997 C.ar    1  UNL1        0.0116
     21 C         -11.2224  -18.6004   24.4063 C.ar    1  UNL1        0.0651
     22 CL        -10.3305  -19.4904   25.2203 Cl      1  UNL1       -0.0820
@<TRIPOS>BOND
     1     1     2    2
     2     2     3    1
     3     3     4    2
     4     4     5   ar
     5     5     6   ar
     6     6     7    1
     7     6     8   ar
     8     8     9   ar
     9     9    10   ar
    10    10    11    2
    11    11    12    1
    12    12    13    2
    13    13    16    1
    14    16    17   ar
    15    17    18   ar
    16    18    19   ar
    17    19    20   ar
    18    20    21   ar
    19    21    22    1
    20    13    14    1
    21    14    15    2
    22    15     2    1
    23    10     4   ar
    24    15    11    1
    25    21    16   ar
@<TRIPOS>MOLECULE
*****
 22 25 0 0 0
SMALL
GASTEIGER

@<TRIPOS>ATOM
      1 O          -9.1038  -20.8306   17.8433 O.2     1  UNL1       -0.2638
      2 C          -9.1725  -20.0662   19.1322 C.2     1  UNL1        0.3160
      3 N         -10.4984  -19.8219   19.7896 N.am    1  UNL1       -0.1720
      4 C         -10.5671  -19.0576   21.0785 C.ar    1  UNL1        0.0780
      5 C         -11.8930  -18.8133   21.7358 C.ar    1  UNL1        0.0234
      6 C         -11.9616  -18.0490   23.0247 C.ar    1  UNL1        0.0359
      7 BR        -13.2876  -17.8047   23.6821 Br      1  UNL1       -0.0490
      8 C         -10.7043  -17.5291   23.6562 C.ar    1  UNL1        0.0069
      9 C          -9.3784  -17.7734   22.9988 C.ar    1  UNL1        0.0056
     10 C          -9.3098  -18.5377   21.7100 C.ar    1  UNL1        0.0623
     11 C          -7.9838  -18.7820   21.0526 C.2     1  UNL1        0.2419
     12 N          -6.5866  -18.3945   21.4367 N.2     1  UNL1       -0.0302
     13 C          -5.6544  -18.9193   20.3852 C.2     1  UNL1        0.3765
     14 N          -6.4755  -19.6311   19.3512 N.2     1  UNL1       -0.0256
     15 C          -7.9151  -19.5463   19.7637 C.2     1  UNL1        0.2907
     16 C          -4.1629  -18.7601   20.3702 C.ar    1  UNL1        0.0989
     17 C          -3.4585  -18.4117   19.0926 C.ar    1  UNL1        0.0085
     18 C          -1.9671  -18.2525   19.0777 C.ar    1  UNL1        0.0003
     19 C          -1.1800  -18.4418   20.3405 C.ar    1  UNL1        0.0009
     20 C          -1.8843  -18.7902   21.6182 C.ar    1  UNL1        0.0116
     21 C          -3.3758  -18.9494   21.6330 C.ar    1  UNL1        0.0651
     22 CL         -4.0802  -19.2978   22.9107 Cl      1  UNL1       -0.0820
@<TRIPOS>BOND
     1     1     2    2
     2     2     3    1
     3     3     4    2
     4     4     5   ar
     5     5     6   ar
     6     6     7    1
     7     6     8   ar
     8     8     9   ar
     9     9    10   ar
    10    10    11    2
    11    11    12    1
    12    12    13    2
    13    13    16    1
    14    16    17   ar
    15    17    18   ar
    16    18    19   ar
    17    19    20   ar
    18    20    21   ar
    19    21    22    1
    20    13    14    1
    21    14    15    2
    22    15     2    1
    23    10     4   ar
    24    15    11    1
    25    21    16   ar
@<TRIPOS>MOLECULE
*****
 22 25 0 0 0
SMALL
GASTEIGER

@<TRIPOS>ATOM
      1 O          -9.9949  -14.9884   20.1351 O.2     1  UNL1       -0.2638
      2 C         -10.2578  -15.9982   21.2128 C.2     1  UNL1        0.3160
      3 N         -11.6354  -16.1381   21.7896 N.am    1  UNL1       -0.1720
      4 C         -11.8983  -17.1479   22.8672 C.ar    1  UNL1        0.0780
      5 C         -13.2758  -17.2878   23.4440 C.ar    1  UNL1        0.0234
      6 C         -13.5387  -18.2975   24.5216 C.ar    1  UNL1        0.0359
      7 BR        -14.9163  -18.4374   25.0985 Br      1  UNL1       -0.0490
      8 C         -12.4240  -19.1673   25.0225 C.ar    1  UNL1        0.0069
      9 C         -11.0464  -19.0275   24.4457 C.ar    1  UNL1        0.0056
     10 C         -10.7836  -18.0177   23.3681 C.ar    1  UNL1        0.0623
     11 C          -9.4060  -17.8778   22.7912 C.2     1  UNL1        0.2419
     12 N          -8.1188  -18.5906   23.0825 N.2     1  UNL1       -0.0302
     13 C          -7.0603  -18.0214   22.1849 C.2     1  UNL1        0.3765
     14 N          -7.6934  -16.9568   21.3389 N.2     1  UNL1       -0.0256
     15 C          -9.1431  -16.8681   21.7136 C.2     1  UNL1        0.2907
     16 C          -5.6213  -18.4429   22.1411 C.ar    1  UNL1        0.0989
     17 C          -4.6152  -17.7690   23.0261 C.ar    1  UNL1        0.0085
     18 C          -3.1763  -18.1904   22.9822 C.ar    1  UNL1        0.0003
     19 C          -2.7436  -19.2858   22.0533 C.ar    1  UNL1        0.0009
     20 C          -3.7498  -19.9598   21.1683 C.ar    1  UNL1        0.0116
     21 C          -5.1887  -19.5383   21.2122 C.ar    1  UNL1        0.0651
     22 CL         -6.1950  -20.2122   20.3271 Cl      1  UNL1       -0.0820
@<TRIPOS>BOND
     1     1     2    2
     2     2     3    1
     3     3     4    2
     4     4     5   ar
     5     5     6   ar
     6     6     7    1
     7     6     8   ar
     8     8     9   ar
     9     9    10   ar
    10    10    11    2
    11    11    12    1
    12    12    13    2
    13    13    16    1
    14    16    17   ar
    15    17    18   ar
    16    18    19   ar
    17    19    20   ar
    18    20    21   ar
    19    21    22    1
    20    13    14    1
    21    14    15    2
    22    15     2    1
    23    10     4   ar
    24    15    11    1
    25    21    16   ar
@<TRIPOS>MOLECULE
*****
 22 25 0 0 0
SMALL
GASTEIGER

@<TRIPOS>ATOM
      1 O          -5.6582  -14.6894   25.7040 O.2     1  UNL1       -0.2638
      2 C          -6.3742  -15.6727   24.8262 C.2     1  UNL1        0.3160
      3 N          -7.8399  -15.9243   25.0220 N.am    1  UNL1       -0.1720
      4 C          -8.5560  -16.9076   24.1442 C.ar    1  UNL1        0.0780
      5 C         -10.0217  -17.1592   24.3400 C.ar    1  UNL1        0.0234
      6 C         -10.7376  -18.1425   23.4622 C.ar    1  UNL1        0.0359
      7 BR        -12.2034  -18.3941   23.6580 Br      1  UNL1       -0.0490
      8 C          -9.9879  -18.8742   22.3887 C.ar    1  UNL1        0.0069
      9 C          -8.5222  -18.6226   22.1929 C.ar    1  UNL1        0.0056
     10 C          -7.8062  -17.6393   23.0707 C.ar    1  UNL1        0.0623
     11 C          -6.3404  -17.3877   22.8749 C.2     1  UNL1        0.2419
     12 N          -5.3453  -17.9552   21.9067 N.2     1  UNL1       -0.0302
     13 C          -4.0142  -17.3226   22.1861 C.2     1  UNL1        0.3765
     14 N          -4.1867  -16.3642   23.3269 N.2     1  UNL1       -0.0256
     15 C          -5.6245  -16.4044   23.7527 C.2     1  UNL1        0.2907
     16 C          -2.7350  -17.5998   21.4532 C.ar    1  UNL1        0.0989
     17 C          -1.8036  -16.4730   21.1176 C.ar    1  UNL1        0.0085
     18 C          -0.5245  -16.7503   20.3847 C.ar    1  UNL1        0.0003
     19 C          -0.1769  -18.1543   19.9875 C.ar    1  UNL1        0.0009
     20 C          -1.1084  -19.2811   20.3231 C.ar    1  UNL1        0.0116
     21 C          -2.3874  -19.0039   21.0559 C.ar    1  UNL1        0.0651
     22 CL         -3.3189  -20.1307   21.3916 Cl      1  UNL1       -0.0820
@<TRIPOS>BOND
     1     1     2    2
     2     2     3    1
     3     3     4    2
     4     4     5   ar
     5     5     6   ar
     6     6     7    1
     7     6     8   ar
     8     8     9   ar
     9     9    10   ar
    10    10    11    2
    11    11    12    1
    12    12    13    2
    13    13    16    1
    14    16    17   ar
    15    17    18   ar
    16    18    19   ar
    17    19    20   ar
    18    20    21   ar
    19    21    22    1
    20    13    14    1
    21    14    15    2
    22    15     2    1
    23    10     4   ar
    24    15    11    1
    25    21    16   ar
@<TRIPOS>MOLECULE
*****
 22 25 0 0 0
SMALL
GASTEIGER

@<TRIPOS>ATOM
      1 O         -17.0620   -5.9156   19.6089 O.2     1  UNL1       -0.2638
      2 C         -15.6387   -5.4629   19.4698 C.2     1  UNL1        0.3160
      3 N         -14.5444   -6.4731   19.2909 N.am    1  UNL1       -0.1720
      4 C         -13.1211   -6.0204   19.1518 C.ar    1  UNL1        0.0780
      5 C         -12.0269   -7.0307   18.9728 C.ar    1  UNL1        0.0234
      6 C         -10.6036   -6.5779   18.8337 C.ar    1  UNL1        0.0359
      7 BR         -9.5093   -7.5882   18.6548 Br      1  UNL1       -0.0490
      8 C         -10.2746   -5.1150   18.8736 C.ar    1  UNL1        0.0069
      9 C         -11.3688   -4.1048   19.0526 C.ar    1  UNL1        0.0056
     10 C         -12.7921   -4.5575   19.1916 C.ar    1  UNL1        0.0623
     11 C         -13.8864   -3.5473   19.3706 C.2     1  UNL1        0.2419
     12 N         -13.8667   -2.0494   19.4478 N.2     1  UNL1       -0.0302
     13 C         -15.2779   -1.5763   19.6346 C.2     1  UNL1        0.3765
     14 N         -16.1696   -2.7819   19.6728 N.2     1  UNL1       -0.0256
     15 C         -15.3096   -4.0000   19.5097 C.2     1  UNL1        0.2907
     16 C         -15.7197   -0.1484   19.7609 C.ar    1  UNL1        0.0989
     17 C         -16.8557    0.2072   20.6735 C.ar    1  UNL1        0.0085
     18 C         -17.2974    1.6351   20.7998 C.ar    1  UNL1        0.0003
     19 C         -16.6031    2.7073   20.0135 C.ar    1  UNL1        0.0009
     20 C         -15.4671    2.3517   19.1009 C.ar    1  UNL1        0.0116
     21 C         -15.0254    0.9238   18.9746 C.ar    1  UNL1        0.0651
     22 CL        -13.8893    0.5681   18.0619 Cl      1  UNL1       -0.0820
@<TRIPOS>BOND
     1     1     2    2
     2     2     3    1
     3     3     4    2
     4     4     5   ar
     5     5     6   ar
     6     6     7    1
     7     6     8   ar
     8     8     9   ar
     9     9    10   ar
    10    10    11    2
    11    11    12    1
    12    12    13    2
    13    13    16    1
    14    16    17   ar
    15    17    18   ar
    16    18    19   ar
    17    19    20   ar
    18    20    21   ar
    19    21    22    1
    20    13    14    1
    21    14    15    2
    22    15     2    1
    23    10     4   ar
    24    15    11    1
    25    21    16   ar
@<TRIPOS>MOLECULE
*****
 22 25 0 0 0
SMALL
GASTEIGER

@<TRIPOS>ATOM
      1 O           4.8101   -0.7828   26.2429 O.2     1  UNL1       -0.2638
      2 C           4.5678   -1.2599   24.8416 C.2     1  UNL1        0.3160
      3 N           3.6182   -0.5163   23.9498 N.am    1  UNL1       -0.1720
      4 C           3.3759   -0.9934   22.5484 C.ar    1  UNL1        0.0780
      5 C           2.4263   -0.2498   21.6567 C.ar    1  UNL1        0.0234
      6 C           2.1840   -0.7270   20.2554 C.ar    1  UNL1        0.0359
      7 BR          1.2344    0.0166   19.3635 Br      1  UNL1       -0.0490
      8 C           2.8913   -1.9477   19.7459 C.ar    1  UNL1        0.0069
      9 C           3.8409   -2.6912   20.6377 C.ar    1  UNL1        0.0056
     10 C           4.0832   -2.2141   22.0390 C.ar    1  UNL1        0.0623
     11 C           5.0328   -2.9577   22.9308 C.2     1  UNL1        0.2419
     12 N           5.8677   -4.1837   22.7077 N.2     1  UNL1       -0.0302
     13 C           6.6260   -4.4643   23.9711 C.2     1  UNL1        0.3765
     14 N           6.2598   -3.4117   24.9750 N.2     1  UNL1       -0.0256
     15 C           5.2751   -2.4806   24.3321 C.2     1  UNL1        0.2907
     16 C           7.5827   -5.5985   24.1918 C.ar    1  UNL1        0.0989
     17 C           8.5701   -5.9653   23.1240 C.ar    1  UNL1        0.0085
     18 C           9.5267   -7.0994   23.3448 C.ar    1  UNL1        0.0003
     19 C           9.4958   -7.8666   24.6333 C.ar    1  UNL1        0.0009
     20 C           8.5084   -7.4997   25.7012 C.ar    1  UNL1        0.0116
     21 C           7.5518   -6.3657   25.4804 C.ar    1  UNL1        0.0651
     22 CL          6.5643   -5.9987   26.5483 Cl      1  UNL1       -0.0820
@<TRIPOS>BOND
     1     1     2    2
     2     2     3    1
     3     3     4    2
     4     4     5   ar
     5     5     6   ar
     6     6     7    1
     7     6     8   ar
     8     8     9   ar
     9     9    10   ar
    10    10    11    2
    11    11    12    1
    12    12    13    2
    13    13    16    1
    14    16    17   ar
    15    17    18   ar
    16    18    19   ar
    17    19    20   ar
    18    20    21   ar
    19    21    22    1
    20    13    14    1
    21    14    15    2
    22    15     2    1
    23    10     4   ar
    24    15    11    1
    25    21    16   ar
@<TRIPOS>MOLECULE
*****
 22 25 0 0 0
SMALL
GASTEIGER

@<TRIPOS>ATOM
      1 O           9.5354   -2.7212   18.9286 O.2     1  UNL1       -0.2638
      2 C           8.1312   -2.6014   19.4425 C.2     1  UNL1        0.3160
      3 N           7.1403   -1.7356   18.7225 N.am    1  UNL1       -0.1720
      4 C           5.7361   -1.6159   19.2364 C.ar    1  UNL1        0.0780
      5 C           4.7452   -0.7501   18.5164 C.ar    1  UNL1        0.0234
      6 C           3.3412   -0.6305   19.0304 C.ar    1  UNL1        0.0359
      7 BR          2.3501    0.2354   18.3103 Br      1  UNL1       -0.0490
      8 C           2.9280   -1.3765   20.2643 C.ar    1  UNL1        0.0069
      9 C           3.9189   -2.2423   20.9843 C.ar    1  UNL1        0.0056
     10 C           5.3230   -2.3620   20.4704 C.ar    1  UNL1        0.0623
     11 C           6.3140   -3.2278   21.1904 C.2     1  UNL1        0.2419
     12 N           6.1973   -4.0759   22.4221 N.2     1  UNL1       -0.0302
     13 C           7.5293   -4.7197   22.6694 C.2     1  UNL1        0.3765
     14 N           8.4692   -4.2696   21.5906 N.2     1  UNL1       -0.0256
     15 C           7.7181   -3.3475   20.6765 C.2     1  UNL1        0.2907
     16 C           7.8629   -5.6504   23.7976 C.ar    1  UNL1        0.0989
     17 C           8.6595   -6.8936   23.5337 C.ar    1  UNL1        0.0085
     18 C           8.9930   -7.8242   24.6618 C.ar    1  UNL1        0.0003
     19 C           8.5300   -7.5115   26.0539 C.ar    1  UNL1        0.0009
     20 C           7.7334   -6.2682   26.3178 C.ar    1  UNL1        0.0116
     21 C           7.3999   -5.3377   25.1896 C.ar    1  UNL1        0.0651
     22 CL          6.6032   -4.0943   25.4535 Cl      1  UNL1       -0.0820
@<TRIPOS>BOND
     1     1     2    2
     2     2     3    1
     3     3     4    2
     4     4     5   ar
     5     5     6   ar
     6     6     7    1
     7     6     8   ar
     8     8     9   ar
     9     9    10   ar
    10    10    11    2
    11    11    12    1
    12    12    13    2
    13    13    16    1
    14    16    17   ar
    15    17    18   ar
    16    18    19   ar
    17    19    20   ar
    18    20    21   ar
    19    21    22    1
    20    13    14    1
    21    14    15    2
    22    15     2    1
    23    10     4   ar
    24    15    11    1
    25    21    16   ar
@<TRIPOS>MOLECULE
*****
 22 25 0 0 0
SMALL
GASTEIGER

@<TRIPOS>ATOM
      1 O           9.4528   -0.4262   22.3314 O.2     1  UNL1       -0.2638
      2 C           8.2775   -1.1347   21.7258 C.2     1  UNL1        0.3160
      3 N           7.5788   -0.5465   20.5359 N.am    1  UNL1       -0.1720
      4 C           6.4035   -1.2550   19.9303 C.ar    1  UNL1        0.0780
      5 C           5.7049   -0.6667   18.7404 C.ar    1  UNL1        0.0234
      6 C           4.5296   -1.3752   18.1348 C.ar    1  UNL1        0.0359
      7 BR          3.8309   -0.7870   16.9449 Br      1  UNL1       -0.0490
      8 C           4.0530   -2.6719   18.7191 C.ar    1  UNL1        0.0069
      9 C           4.7517   -3.2602   19.9089 C.ar    1  UNL1        0.0056
     10 C           5.9269   -2.5517   20.5145 C.ar    1  UNL1        0.0623
     11 C           6.6257   -3.1399   21.7044 C.2     1  UNL1        0.2419
     12 N           6.3844   -4.3939   22.4914 N.2     1  UNL1       -0.0302
     13 C           7.4106   -4.4604   23.5834 C.2     1  UNL1        0.3765
     14 N           8.2861   -3.2476   23.4713 N.2     1  UNL1       -0.0256
     15 C           7.8009   -2.4315   22.3100 C.2     1  UNL1        0.2907
     16 C           7.5388   -5.5487   24.6077 C.ar    1  UNL1        0.0989
     17 C           6.9549   -5.3627   25.9768 C.ar    1  UNL1        0.0085
     18 C           7.0832   -6.4510   27.0010 C.ar    1  UNL1        0.0003
     19 C           7.7953   -7.7254   26.6562 C.ar    1  UNL1        0.0009
     20 C           8.3792   -7.9114   25.2871 C.ar    1  UNL1        0.0116
     21 C           8.2510   -6.8231   24.2629 C.ar    1  UNL1        0.0651
     22 CL          8.8349   -7.0091   22.8937 Cl      1  UNL1       -0.0820
@<TRIPOS>BOND
     1     1     2    2
     2     2     3    1
     3     3     4    2
     4     4     5   ar
     5     5     6   ar
     6     6     7    1
     7     6     8   ar
     8     8     9   ar
     9     9    10   ar
    10    10    11    2
    11    11    12    1
    12    12    13    2
    13    13    16    1
    14    16    17   ar
    15    17    18   ar
    16    18    19   ar
    17    19    20   ar
    18    20    21   ar
    19    21    22    1
    20    13    14    1
    21    14    15    2
    22    15     2    1
    23    10     4   ar
    24    15    11    1
    25    21    16   ar
@<TRIPOS>MOLECULE
*****
 22 25 0 0 0
SMALL
GASTEIGER

@<TRIPOS>ATOM
      1 O           5.8320   -1.8841   26.3118 O.2     1  UNL1       -0.2638
      2 C           6.4363   -3.1707   25.8325 C.2     1  UNL1        0.3160
      3 N           6.8791   -4.2062   26.8232 N.am    1  UNL1       -0.1720
      4 C           7.4834   -5.4927   26.3439 C.ar    1  UNL1        0.0780
      5 C           7.9263   -6.5282   27.3346 C.ar    1  UNL1        0.0234
      6 C           8.5306   -7.8147   26.8553 C.ar    1  UNL1        0.0359
      7 BR          8.9735   -8.8503   27.8460 Br      1  UNL1       -0.0490
      8 C           8.6920   -8.0657   25.3852 C.ar    1  UNL1        0.0069
      9 C           8.2491   -7.0302   24.3945 C.ar    1  UNL1        0.0056
     10 C           7.6448   -5.7437   24.8739 C.ar    1  UNL1        0.0623
     11 C           7.2019   -4.7081   23.8831 C.2     1  UNL1        0.2419
     12 N           7.2341   -4.6749   22.3839 N.2     1  UNL1       -0.0302
     13 C           6.6497   -3.3678   21.9366 C.2     1  UNL1        0.3765
     14 N           6.2564   -2.5933   23.1594 N.2     1  UNL1       -0.0256
     15 C           6.5977   -3.4216   24.3625 C.2     1  UNL1        0.2907
     16 C           6.4872   -2.9149   20.5158 C.ar    1  UNL1        0.0989
     17 C           7.5216   -2.0281   19.8884 C.ar    1  UNL1        0.0085
     18 C           7.3590   -1.5752   18.4677 C.ar    1  UNL1        0.0003
     19 C           6.1621   -2.0090   17.6745 C.ar    1  UNL1        0.0009
     20 C           5.1277   -2.8957   18.3019 C.ar    1  UNL1        0.0116
     21 C           5.2903   -3.3486   19.7226 C.ar    1  UNL1        0.0651
     22 CL          4.2559   -4.2354   20.3502 Cl      1  UNL1       -0.0820
@<TRIPOS>BOND
     1     1     2    2
     2     2     3    1
     3     3     4    2
     4     4     5   ar
     5     5     6   ar
     6     6     7    1
     7     6     8   ar
     8     8     9   ar
     9     9    10   ar
    10    10    11    2
    11    11    12    1
    12    12    13    2
    13    13    16    1
    14    16    17   ar
    15    17    18   ar
    16    18    19   ar
    17    19    20   ar
    18    20    21   ar
    19    21    22    1
    20    13    14    1
    21    14    15    2
    22    15     2    1
    23    10     4   ar
    24    15    11    1
    25    21    16   ar
