@<TRIPOS>MOLECULE
*****
 31 35 0 0 0
SMALL
GASTEIGER

@<TRIPOS>ATOM
      1 N          -5.0077  -18.3172   22.5879 N.3     1  UNL1       -0.2712
      2 C          -4.8620  -17.0234   23.3329 C.3     1  UNL1        0.0739
      3 C          -6.2345  -16.4629   23.5613 C.3     1  UNL1        0.0386
      4 C          -7.2284  -17.4102   22.9574 C.3     1  UNL1        0.0945
      5 C          -6.4703  -18.5562   22.3558 C.3     1  UNL1        0.0922
      6 N          -8.7189  -17.2412   22.9555 N.am    1  UNL1       -0.2600
      7 C          -9.5746  -18.1209   23.8180 C.3     1  UNL1        0.1229
      8 C         -11.0651  -17.9519   23.8160 C.ar    1  UNL1        0.0112
      9 C         -11.9207  -18.8316   24.6786 C.ar    1  UNL1       -0.0014
     10 C         -13.4111  -18.6626   24.6766 C.ar    1  UNL1       -0.0002
     11 C         -14.0459  -17.6139   23.8121 C.ar    1  UNL1        0.0013
     12 C         -13.1902  -16.7342   22.9495 C.ar    1  UNL1        0.0144
     13 C         -11.6998  -16.9032   22.9515 C.ar    1  UNL1        0.0492
     14 N         -10.8441  -16.0235   22.0890 N.am    1  UNL1       -0.2684
     15 C          -9.3537  -16.1926   22.0910 C.2     1  UNL1        0.3079
     16 O          -8.4979  -15.3129   21.2284 O.2     1  UNL1       -0.2522
     17 H         -11.2607  -15.3353   21.5216 H       1  UNL1        0.1564
     18 C          -3.8876  -19.2143   22.1516 C.3     1  UNL1        0.0722
     19 C          -3.0046  -18.7781   21.1978 C.2     1  UNL1        0.4048
     20 O          -2.7256  -18.7293   22.6708 O.2     1  UNL1       -0.2262
     21 N          -1.9796  -18.2784   20.2234 N.am    1  UNL1       -0.2493
     22 C          -2.1166  -18.2637   18.7297 C.3     1  UNL1        0.0786
     23 C          -0.8592  -17.6818   18.1546 C.3     1  UNL1        0.0216
     24 C           0.0548  -17.3369   19.2929 C.3     1  UNL1        0.0216
     25 C          -0.6377  -17.7057   20.5715 C.3     1  UNL1        0.0786
     26 C          -1.5585  -18.1661   21.6758 C.3     1  UNL1        0.0214
     27 C          -2.8625  -18.7146   21.1771 C.3     1  UNL1        0.0193
     28 C          -3.1416  -18.7634   19.7041 C.3     1  UNL1        0.0214
     29 O          -4.3087  -19.3267   20.6992 O.3     1  UNL1       -0.4345
     30 C          -5.7967  -21.3773   20.1237 C.3     1  UNL1        0.0513
     31 C          -4.4464  -20.7934   20.4168 C.3     1  UNL1        0.2102
@<TRIPOS>BOND
     1    30    31    1
     2    31    29    1
     3    29    19    1
     4    19    20    2
     5    19    21   am
     6    21    22    1
     7    22    23    1
     8    23    24    1
     9    25    24    1
    10    25    26    1
    11    26    27    1
    12    27    18    1
    13    18     1    1
    14     1     2    1
    15     2     3    1
    16     3     4    1
    17     4     6    1
    18     6     7    1
    19     7     8    1
    20     8     9   ar
    21     9    10   ar
    22    10    11   ar
    23    11    12   ar
    24    12    13   ar
    25    13    14    1
    26    14    15   am
    27    15    16    2
    28     4     5    1
    29    27    28    1
    30    25    21    1
    31     5     1    1
    32    28    22    1
    33    15     6   am
    34    13     8   ar
    35    14    17    1
@<TRIPOS>MOLECULE
*****
 31 35 0 0 0
SMALL
GASTEIGER

@<TRIPOS>ATOM
      1 N          -9.5205  -19.0285   19.8194 N.3     1  UNL1       -0.2712
      2 C          -9.1923  -20.2120   18.9581 C.3     1  UNL1        0.0739
      3 C          -7.7127  -20.4458   19.0357 C.3     1  UNL1        0.0386
      4 C          -7.1263  -19.4068   19.9450 C.3     1  UNL1        0.0945
      5 C          -8.2435  -18.5309   20.4294 C.3     1  UNL1        0.0922
      6 N          -5.6771  -19.2681   20.3065 N.am    1  UNL1       -0.2600
      7 C          -4.7216  -18.6291   19.3429 C.3     1  UNL1        0.1229
      8 C          -3.2724  -18.4903   19.7044 C.ar    1  UNL1        0.0112
      9 C          -2.3169  -17.8513   18.7408 C.ar    1  UNL1       -0.0014
     10 C          -0.8678  -17.7126   19.1023 C.ar    1  UNL1       -0.0002
     11 C          -0.3741  -18.2130   20.4274 C.ar    1  UNL1        0.0013
     12 C          -1.3296  -18.8521   21.3910 C.ar    1  UNL1        0.0144
     13 C          -2.7788  -18.9907   21.0295 C.ar    1  UNL1        0.0492
     14 N          -3.7344  -19.6298   21.9931 N.am    1  UNL1       -0.2684
     15 C          -5.1835  -19.7685   21.6316 C.2     1  UNL1        0.3079
     16 O          -6.1391  -20.4076   22.5952 O.2     1  UNL1       -0.2522
     17 H          -3.4104  -19.9583   22.8628 H       1  UNL1        0.1564
     18 C         -10.8857  -18.4451   20.0332 C.3     1  UNL1        0.0722
     19 C         -11.5116  -18.4126   21.2526 C.2     1  UNL1        0.4048
     20 O         -10.2981  -19.2461   20.9651 O.2     1  UNL1       -0.2262
     21 N         -12.1327  -18.4380   22.6177 N.am    1  UNL1       -0.2493
     22 C         -13.3413  -17.6624   23.0510 C.3     1  UNL1        0.0786
     23 C         -13.6098  -17.9885   24.4904 C.3     1  UNL1        0.0216
     24 C         -12.5670  -18.9656   24.9466 C.3     1  UNL1        0.0216
     25 C         -11.6541  -19.2433   23.7891 C.3     1  UNL1        0.0786
     26 C         -10.9142  -19.3294   22.4760 C.3     1  UNL1        0.0214
     27 C         -11.5068  -18.4705   21.3984 C.3     1  UNL1        0.0193
     28 C         -12.7203  -17.6370   21.6859 C.3     1  UNL1        0.0214
     29 O         -12.1042  -17.5537   20.1749 O.3     1  UNL1       -0.4345
     30 C         -12.0683  -15.2970   18.8879 C.3     1  UNL1        0.0513
     31 C         -11.3526  -16.3572   19.6713 C.3     1  UNL1        0.2102
@<TRIPOS>BOND
     1    30    31    1
     2    31    29    1
     3    29    19    1
     4    19    20    2
     5    19    21   am
     6    21    22    1
     7    22    23    1
     8    23    24    1
     9    25    24    1
    10    25    26    1
    11    26    27    1
    12    27    18    1
    13    18     1    1
    14     1     2    1
    15     2     3    1
    16     3     4    1
    17     4     6    1
    18     6     7    1
    19     7     8    1
    20     8     9   ar
    21     9    10   ar
    22    10    11   ar
    23    11    12   ar
    24    12    13   ar
    25    13    14    1
    26    14    15   am
    27    15    16    2
    28     4     5    1
    29    27    28    1
    30    25    21    1
    31     5     1    1
    32    28    22    1
    33    15     6   am
    34    13     8   ar
    35    14    17    1
@<TRIPOS>MOLECULE
*****
 31 35 0 0 0
SMALL
GASTEIGER

@<TRIPOS>ATOM
      1 N          -5.6736  -18.7841   22.0676 N.3     1  UNL1       -0.2712
      2 C          -5.9425  -19.2958   20.6834 C.3     1  UNL1        0.0739
      3 C          -7.4264  -19.2846   20.4652 C.3     1  UNL1        0.0386
      4 C          -8.0748  -18.7659   21.7144 C.3     1  UNL1        0.0945
      5 C          -6.9915  -18.4565   22.7048 C.3     1  UNL1        0.0922
      6 N          -9.5478  -18.5878   21.9347 N.am    1  UNL1       -0.2600
      7 C         -10.1239  -18.7385   23.3114 C.3     1  UNL1        0.1229
      8 C         -11.5970  -18.5603   23.5316 C.ar    1  UNL1        0.0112
      9 C         -12.1731  -18.7110   24.9083 C.ar    1  UNL1       -0.0014
     10 C         -13.6461  -18.5329   25.1286 C.ar    1  UNL1       -0.0002
     11 C         -14.5430  -18.2041   23.9721 C.ar    1  UNL1        0.0013
     12 C         -13.9669  -18.0534   22.5954 C.ar    1  UNL1        0.0144
     13 C         -12.4939  -18.2315   22.3752 C.ar    1  UNL1        0.0492
     14 N         -11.9177  -18.0809   20.9984 N.am    1  UNL1       -0.2684
     15 C         -10.4447  -18.2590   20.7782 C.2     1  UNL1        0.3079
     16 O          -9.8686  -18.1083   19.4014 O.2     1  UNL1       -0.2522
     17 H         -12.5064  -17.8651   20.2393 H       1  UNL1        0.1564
     18 C          -4.3239  -18.6274   22.7030 C.3     1  UNL1        0.0722
     19 C          -3.2406  -18.2527   21.9508 C.2     1  UNL1        0.4048
     20 O          -3.7290  -19.6672   22.0549 O.2     1  UNL1       -0.2262
     21 N          -2.0453  -17.9325   21.1032 N.am    1  UNL1       -0.2493
     22 C          -1.4448  -16.5725   20.9036 C.3     1  UNL1        0.0786
     23 C          -0.2689  -16.7155   19.9833 C.3     1  UNL1        0.0216
     24 C          -0.1426  -18.1639   19.6142 C.3     1  UNL1        0.0216
     25 C          -1.2405  -18.9160   20.3063 C.3     1  UNL1        0.0786
     26 C          -2.4215  -19.4014   21.1119 C.3     1  UNL1        0.0214
     27 C          -3.1285  -18.3071   21.8553 C.3     1  UNL1        0.0193
     28 C          -2.6402  -16.8927   21.7512 C.3     1  UNL1        0.0214
     29 O          -3.9477  -17.1585   22.6943 O.3     1  UNL1       -0.4345
     30 C          -4.8017  -16.1550   24.9334 C.3     1  UNL1        0.0513
     31 C          -3.9887  -17.1756   24.1937 C.3     1  UNL1        0.2102
@<TRIPOS>BOND
     1    30    31    1
     2    31    29    1
     3    29    19    1
     4    19    20    2
     5    19    21   am
     6    21    22    1
     7    22    23    1
     8    23    24    1
     9    25    24    1
    10    25    26    1
    11    26    27    1
    12    27    18    1
    13    18     1    1
    14     1     2    1
    15     2     3    1
    16     3     4    1
    17     4     6    1
    18     6     7    1
    19     7     8    1
    20     8     9   ar
    21     9    10   ar
    22    10    11   ar
    23    11    12   ar
    24    12    13   ar
    25    13    14    1
    26    14    15   am
    27    15    16    2
    28     4     5    1
    29    27    28    1
    30    25    21    1
    31     5     1    1
    32    28    22    1
    33    15     6   am
    34    13     8   ar
    35    14    17    1
@<TRIPOS>MOLECULE
*****
 31 35 0 0 0
SMALL
GASTEIGER

@<TRIPOS>ATOM
      1 N          -8.8850  -19.0749   21.5387 N.3     1  UNL1       -0.2712
      2 C          -8.3732  -20.2866   22.2599 C.3     1  UNL1        0.0739
      3 C          -6.8826  -20.1632   22.3735 C.3     1  UNL1        0.0386
      4 C          -6.4731  -18.8754   21.7226 C.3     1  UNL1        0.0945
      5 C          -7.7105  -18.2027   21.2066 C.3     1  UNL1        0.0922
      6 N          -5.0720  -18.3520   21.6078 N.am    1  UNL1       -0.2600
      7 C          -4.2026  -18.7810   20.4632 C.3     1  UNL1        0.1229
      8 C          -2.8015  -18.2576   20.3484 C.ar    1  UNL1        0.0112
      9 C          -1.9321  -18.6865   19.2039 C.ar    1  UNL1       -0.0014
     10 C          -0.5311  -18.1631   19.0891 C.ar    1  UNL1       -0.0002
     11 C           0.0005  -17.2108   20.1189 C.ar    1  UNL1        0.0013
     12 C          -0.8690  -16.7818   21.2634 C.ar    1  UNL1        0.0144
     13 C          -2.2700  -17.3052   21.3782 C.ar    1  UNL1        0.0492
     14 N          -3.1395  -16.8763   22.5228 N.am    1  UNL1       -0.2684
     15 C          -4.5405  -17.3996   22.6376 C.2     1  UNL1        0.3079
     16 O          -5.4100  -16.9707   23.7822 O.2     1  UNL1       -0.2522
     17 H          -2.7906  -16.2512   23.1987 H       1  UNL1        0.1564
     18 C         -10.3192  -18.7861   21.2076 C.3     1  UNL1        0.0722
     19 C         -11.2967  -18.6302   22.1562 C.2     1  UNL1        0.4048
     20 O          -9.9641  -19.2602   22.4341 O.2     1  UNL1       -0.2262
     21 N         -12.3086  -18.5001   23.2557 N.am    1  UNL1       -0.2493
     22 C         -13.6757  -17.8958   23.1288 C.3     1  UNL1        0.0786
     23 C         -14.3432  -17.9736   24.4699 C.3     1  UNL1        0.0216
     24 C         -13.3887  -18.6259   25.4256 C.3     1  UNL1        0.0216
     25 C         -12.1312  -18.9513   24.6752 C.3     1  UNL1        0.0786
     26 C         -11.0104  -19.1558   23.6846 C.3     1  UNL1        0.0214
     27 C         -11.3312  -18.6560   22.3072 C.3     1  UNL1        0.0193
     28 C         -12.6638  -18.0259   22.0293 C.3     1  UNL1        0.0214
     29 O         -11.6174  -18.1304   20.7787 O.3     1  UNL1       -0.4345
     30 C         -11.7870  -15.8996   19.4577 C.3     1  UNL1        0.0513
     31 C         -10.9827  -16.8692   20.2719 C.3     1  UNL1        0.2102
@<TRIPOS>BOND
     1    30    31    1
     2    31    29    1
     3    29    19    1
     4    19    20    2
     5    19    21   am
     6    21    22    1
     7    22    23    1
     8    23    24    1
     9    25    24    1
    10    25    26    1
    11    26    27    1
    12    27    18    1
    13    18     1    1
    14     1     2    1
    15     2     3    1
    16     3     4    1
    17     4     6    1
    18     6     7    1
    19     7     8    1
    20     8     9   ar
    21     9    10   ar
    22    10    11   ar
    23    11    12   ar
    24    12    13   ar
    25    13    14    1
    26    14    15   am
    27    15    16    2
    28     4     5    1
    29    27    28    1
    30    25    21    1
    31     5     1    1
    32    28    22    1
    33    15     6   am
    34    13     8   ar
    35    14    17    1
@<TRIPOS>MOLECULE
*****
 31 35 0 0 0
SMALL
GASTEIGER

@<TRIPOS>ATOM
      1 N          -9.0468  -18.3937   21.8064 N.3     1  UNL1       -0.2712
      2 C          -8.8287  -19.6686   22.5663 C.3     1  UNL1        0.0739
      3 C          -7.3911  -20.0647   22.4042 C.3     1  UNL1        0.0386
      4 C          -6.7206  -19.0348   21.5443 C.3     1  UNL1        0.0945
      5 C          -7.7438  -18.0020   21.1747 C.3     1  UNL1        0.0922
      6 N          -5.2797  -19.0371   21.1270 N.am    1  UNL1       -0.2600
      7 C          -4.4129  -17.8479   21.4174 C.3     1  UNL1        0.1229
      8 C          -2.9721  -17.8502   21.0001 C.ar    1  UNL1        0.0112
      9 C          -2.1052  -16.6611   21.2906 C.ar    1  UNL1       -0.0014
     10 C          -0.6645  -16.6634   20.8733 C.ar    1  UNL1       -0.0002
     11 C          -0.0905  -17.8549   20.1656 C.ar    1  UNL1        0.0013
     12 C          -0.9574  -19.0441   19.8751 C.ar    1  UNL1        0.0144
     13 C          -2.3981  -19.0418   20.2924 C.ar    1  UNL1        0.0492
     14 N          -3.2651  -20.2310   20.0020 N.am    1  UNL1       -0.2684
     15 C          -4.7058  -20.2286   20.4193 C.2     1  UNL1        0.3079
     16 O          -5.5727  -21.4178   20.1288 O.2     1  UNL1       -0.2522
     17 H          -2.8884  -21.0130   19.5375 H       1  UNL1        0.1564
     18 C         -10.3405  -17.6426   21.6973 C.3     1  UNL1        0.0722
     19 C         -11.4035  -17.8604   22.5354 C.2     1  UNL1        0.4048
     20 O          -9.9711  -17.9821   22.9636 O.2     1  UNL1       -0.2262
     21 N         -12.5051  -18.1172   23.5203 N.am    1  UNL1       -0.2493
     22 C         -13.9763  -18.0344   23.2391 C.3     1  UNL1        0.0786
     23 C         -14.7095  -18.3679   24.5046 C.3     1  UNL1        0.0216
     24 C         -13.6916  -18.6568   25.5678 C.3     1  UNL1        0.0216
     25 C         -12.3292  -18.5018   24.9594 C.3     1  UNL1        0.0786
     26 C         -11.1114  -18.2779   24.0956 C.3     1  UNL1        0.0214
     27 C         -11.4422  -17.8994   22.6824 C.3     1  UNL1        0.0193
     28 C         -12.8746  -17.7776   22.2541 C.3     1  UNL1        0.0214
     29 O         -11.7342  -17.4818   21.1220 O.3     1  UNL1       -0.4345
     30 C         -11.8049  -15.6755   19.2559 C.3     1  UNL1        0.0513
     31 C         -11.2755  -16.1639   20.5717 C.3     1  UNL1        0.2102
@<TRIPOS>BOND
     1    30    31    1
     2    31    29    1
     3    29    19    1
     4    19    20    2
     5    19    21   am
     6    21    22    1
     7    22    23    1
     8    23    24    1
     9    25    24    1
    10    25    26    1
    11    26    27    1
    12    27    18    1
    13    18     1    1
    14     1     2    1
    15     2     3    1
    16     3     4    1
    17     4     6    1
    18     6     7    1
    19     7     8    1
    20     8     9   ar
    21     9    10   ar
    22    10    11   ar
    23    11    12   ar
    24    12    13   ar
    25    13    14    1
    26    14    15   am
    27    15    16    2
    28     4     5    1
    29    27    28    1
    30    25    21    1
    31     5     1    1
    32    28    22    1
    33    15     6   am
    34    13     8   ar
    35    14    17    1
@<TRIPOS>MOLECULE
*****
 31 35 0 0 0
SMALL
GASTEIGER

@<TRIPOS>ATOM
      1 N         -12.5980   -3.2118   19.2518 N.3     1  UNL1       -0.2712
      2 C         -13.3163   -3.1407   20.5668 C.3     1  UNL1        0.0739
      3 C         -14.1403   -4.3855   20.7127 C.3     1  UNL1        0.0386
      4 C         -13.9313   -5.2260   19.4880 C.3     1  UNL1        0.0945
      5 C         -12.9781   -4.5006   18.5851 C.3     1  UNL1        0.0922
      6 N         -14.5644   -6.5581   19.2142 N.am    1  UNL1       -0.2600
      7 C         -16.0566   -6.7030   19.2606 C.3     1  UNL1        0.1229
      8 C         -16.6897   -8.0351   18.9868 C.ar    1  UNL1        0.0112
      9 C         -18.1819   -8.1800   19.0332 C.ar    1  UNL1       -0.0014
     10 C         -18.8149   -9.5120   18.7594 C.ar    1  UNL1       -0.0002
     11 C         -17.9557  -10.6991   18.4392 C.ar    1  UNL1        0.0013
     12 C         -16.4634  -10.5542   18.3928 C.ar    1  UNL1        0.0144
     13 C         -15.8304   -9.2222   18.6666 C.ar    1  UNL1        0.0492
     14 N         -14.3381   -9.0772   18.6202 N.am    1  UNL1       -0.2684
     15 C         -13.7052   -7.7451   18.8940 C.2     1  UNL1        0.3079
     16 O         -12.2128   -7.6002   18.8476 O.2     1  UNL1       -0.2522
     17 H         -13.7742   -9.8563   18.4100 H       1  UNL1        0.1564
     18 C         -11.6637   -2.1759   18.7004 C.3     1  UNL1        0.0722
     19 C         -12.0879   -0.9796   18.1822 C.2     1  UNL1        0.4048
     20 O         -12.8809   -1.7840   19.1691 O.2     1  UNL1       -0.2262
     21 N         -12.6295    0.3207   17.6668 N.am    1  UNL1       -0.2493
     22 C         -11.9540    1.2290   16.6826 C.3     1  UNL1        0.0786
     23 C         -12.8489    2.4108   16.4526 C.3     1  UNL1        0.0216
     24 C         -14.0774    2.2327   17.2946 C.3     1  UNL1        0.0216
     25 C         -13.9418    0.9409   18.0451 C.3     1  UNL1        0.0786
     26 C         -13.5402   -0.3797   18.6565 C.3     1  UNL1        0.0214
     27 C         -12.2054   -0.8756   18.1850 C.3     1  UNL1        0.0193
     28 C         -11.4123   -0.0712   17.1981 C.3     1  UNL1        0.0214
     29 O         -10.7530   -1.4756   17.7107 O.3     1  UNL1       -0.4345
     30 C          -9.3592   -3.1725   16.3222 C.3     1  UNL1        0.0513
     31 C         -10.6781   -2.5424   16.6589 C.3     1  UNL1        0.2102
@<TRIPOS>BOND
     1    30    31    1
     2    31    29    1
     3    29    19    1
     4    19    20    2
     5    19    21   am
     6    21    22    1
     7    22    23    1
     8    23    24    1
     9    25    24    1
    10    25    26    1
    11    26    27    1
    12    27    18    1
    13    18     1    1
    14     1     2    1
    15     2     3    1
    16     3     4    1
    17     4     6    1
    18     6     7    1
    19     7     8    1
    20     8     9   ar
    21     9    10   ar
    22    10    11   ar
    23    11    12   ar
    24    12    13   ar
    25    13    14    1
    26    14    15   am
    27    15    16    2
    28     4     5    1
    29    27    28    1
    30    25    21    1
    31     5     1    1
    32    28    22    1
    33    15     6   am
    34    13     8   ar
    35    14    17    1
@<TRIPOS>MOLECULE
*****
 31 35 0 0 0
SMALL
GASTEIGER

@<TRIPOS>ATOM
      1 N           6.3373   -1.6605   19.9815 N.3     1  UNL1       -0.2712
      2 C           7.2949   -0.8030   20.7546 C.3     1  UNL1        0.0739
      3 C           8.0067   -1.6783   21.7432 C.3     1  UNL1        0.0386
      4 C           7.4890   -3.0767   21.5810 C.3     1  UNL1        0.0945
      5 C           6.4573   -3.0658   20.4923 C.3     1  UNL1        0.0922
      6 N           7.9263   -4.2757   22.3693 N.am    1  UNL1       -0.2600
      7 C           7.3479   -4.5307   23.7296 C.3     1  UNL1        0.1229
      8 C           7.7851   -5.7297   24.5178 C.ar    1  UNL1        0.0112
      9 C           7.2067   -5.9847   25.8781 C.ar    1  UNL1       -0.0014
     10 C           7.6440   -7.1836   26.6663 C.ar    1  UNL1       -0.0002
     11 C           8.6597   -8.1276   26.0942 C.ar    1  UNL1        0.0013
     12 C           9.2381   -7.8726   24.7339 C.ar    1  UNL1        0.0144
     13 C           8.8008   -6.6737   23.9457 C.ar    1  UNL1        0.0492
     14 N           9.3793   -6.4186   22.5854 N.am    1  UNL1       -0.2684
     15 C           8.9420   -5.2197   21.7972 C.2     1  UNL1        0.3079
     16 O           9.5204   -4.9647   20.4369 O.2     1  UNL1       -0.2522
     17 H          10.0459   -7.0382   22.2099 H       1  UNL1        0.1564
     18 C           5.4207   -1.1946   18.8893 C.3     1  UNL1        0.0722
     19 C           4.1836   -0.6706   19.1622 C.2     1  UNL1        0.4048
     20 O           4.5795   -2.0788   19.4939 O.2     1  UNL1       -0.2262
     21 N           2.8064   -0.1800   19.4973 N.am    1  UNL1       -0.2493
     22 C           2.2703    1.1949   19.2279 C.3     1  UNL1        0.0786
     23 C           0.8559    1.2465   19.7248 C.3     1  UNL1        0.0216
     24 C           0.5178   -0.0964   20.3013 C.3     1  UNL1        0.0216
     25 C           1.7233   -0.9780   20.1607 C.3     1  UNL1        0.0786
     26 C           3.0621   -1.6217   19.8913 C.3     1  UNL1        0.0214
     27 C           4.0434   -0.7040   19.2245 C.3     1  UNL1        0.0193
     28 C           3.6475    0.7043   18.8928 C.3     1  UNL1        0.0214
     29 O           5.1651    0.2472   18.4954 O.3     1  UNL1       -0.4345
     30 C           6.3827    0.9834   16.3216 C.3     1  UNL1        0.0513
     31 C           5.6731   -0.0696   17.1200 C.3     1  UNL1        0.2102
@<TRIPOS>BOND
     1    30    31    1
     2    31    29    1
     3    29    19    1
     4    19    20    2
     5    19    21   am
     6    21    22    1
     7    22    23    1
     8    23    24    1
     9    25    24    1
    10    25    26    1
    11    26    27    1
    12    27    18    1
    13    18     1    1
    14     1     2    1
    15     2     3    1
    16     3     4    1
    17     4     6    1
    18     6     7    1
    19     7     8    1
    20     8     9   ar
    21     9    10   ar
    22    10    11   ar
    23    11    12   ar
    24    12    13   ar
    25    13    14    1
    26    14    15   am
    27    15    16    2
    28     4     5    1
    29    27    28    1
    30    25    21    1
    31     5     1    1
    32    28    22    1
    33    15     6   am
    34    13     8   ar
    35    14    17    1
@<TRIPOS>MOLECULE
*****
 31 35 0 0 0
SMALL
GASTEIGER

@<TRIPOS>ATOM
      1 N          -8.2548  -18.8352   22.7925 N.3     1  UNL1       -0.2712
      2 C          -7.8915  -20.2876   22.6996 C.3     1  UNL1        0.0739
      3 C          -6.4377  -20.3798   22.3418 C.3     1  UNL1        0.0386
      4 C          -5.9026  -18.9844   22.2134 C.3     1  UNL1        0.0945
      5 C          -7.0255  -18.0297   22.4919 C.3     1  UNL1        0.0922
      6 N          -4.4920  -18.6094   21.8673 N.am    1  UNL1       -0.2600
      7 C          -4.0293  -18.6657   20.4416 C.3     1  UNL1        0.1229
      8 C          -2.6187  -18.2907   20.0954 C.ar    1  UNL1        0.0112
      9 C          -2.1560  -18.3470   18.6697 C.ar    1  UNL1       -0.0014
     10 C          -0.7455  -17.9720   18.3236 C.ar    1  UNL1       -0.0002
     11 C           0.2023  -17.5407   19.4033 C.ar    1  UNL1        0.0013
     12 C          -0.2604  -17.4844   20.8290 C.ar    1  UNL1        0.0144
     13 C          -1.6709  -17.8594   21.1751 C.ar    1  UNL1        0.0492
     14 N          -2.1337  -17.8031   22.6008 N.am    1  UNL1       -0.2684
     15 C          -3.5442  -18.1781   22.9469 C.2     1  UNL1        0.3079
     16 O          -4.0069  -18.1218   24.3727 O.2     1  UNL1       -0.2522
     17 H          -1.5116  -17.5201   23.3095 H       1  UNL1        0.1564
     18 C          -9.6095  -18.2848   23.1270 C.3     1  UNL1        0.0722
     19 C         -10.3882  -17.6498   22.1943 C.2     1  UNL1        0.4048
     20 O          -8.9839  -17.2371   22.5222 O.2     1  UNL1       -0.2262
     21 N         -11.1686  -16.8969   21.1581 N.am    1  UNL1       -0.2493
     22 C         -12.5747  -17.1916   20.7267 C.3     1  UNL1        0.0786
     23 C         -12.9552  -16.1938   19.6732 C.3     1  UNL1        0.0216
     24 C         -11.7842  -15.2824   19.4535 C.3     1  UNL1        0.0216
     25 C         -10.6801  -15.7169   20.3713 C.3     1  UNL1        0.0786
     26 C          -9.7661  -16.3660   21.3825 C.3     1  UNL1        0.0214
     27 C         -10.3900  -17.5318   22.0908 C.3     1  UNL1        0.0193
     28 C         -11.7943  -17.9446   21.7629 C.3     1  UNL1        0.0214
     29 O         -11.0120  -18.8157   22.9026 O.3     1  UNL1       -0.4345
     30 C         -12.8239  -18.6728   24.7592 C.3     1  UNL1        0.0513
     31 C         -11.3805  -18.7027   24.3523 C.3     1  UNL1        0.2102
@<TRIPOS>BOND
     1    30    31    1
     2    31    29    1
     3    29    19    1
     4    19    20    2
     5    19    21   am
     6    21    22    1
     7    22    23    1
     8    23    24    1
     9    25    24    1
    10    25    26    1
    11    26    27    1
    12    27    18    1
    13    18     1    1
    14     1     2    1
    15     2     3    1
    16     3     4    1
    17     4     6    1
    18     6     7    1
    19     7     8    1
    20     8     9   ar
    21     9    10   ar
    22    10    11   ar
    23    11    12   ar
    24    12    13   ar
    25    13    14    1
    26    14    15   am
    27    15    16    2
    28     4     5    1
    29    27    28    1
    30    25    21    1
    31     5     1    1
    32    28    22    1
    33    15     6   am
    34    13     8   ar
    35    14    17    1
@<TRIPOS>MOLECULE
*****
 31 35 0 0 0
SMALL
GASTEIGER

@<TRIPOS>ATOM
      1 N          -8.7617  -18.4106   21.9731 N.3     1  UNL1       -0.2712
      2 C          -9.0344  -19.1267   20.6835 C.3     1  UNL1        0.0739
      3 C          -7.7165  -19.4350   20.0368 C.3     1  UNL1        0.0386
      4 C          -6.6293  -18.9095   20.9267 C.3     1  UNL1        0.0945
      5 C          -7.2752  -18.2764   22.1234 C.3     1  UNL1        0.0922
      6 N          -5.1550  -19.0010   20.6658 N.am    1  UNL1       -0.2600
      7 C          -4.2911  -17.7831   20.8082 C.3     1  UNL1        0.1229
      8 C          -2.8168  -17.8746   20.5472 C.ar    1  UNL1        0.0112
      9 C          -1.9529  -16.6567   20.6897 C.ar    1  UNL1       -0.0014
     10 C          -0.4786  -16.7483   20.4287 C.ar    1  UNL1       -0.0002
     11 C           0.1317  -18.0578   20.0254 C.ar    1  UNL1        0.0013
     12 C          -0.7321  -19.2757   19.8830 C.ar    1  UNL1        0.0144
     13 C          -2.2064  -19.1841   20.1439 C.ar    1  UNL1        0.0492
     14 N          -3.0704  -20.4021   20.0015 N.am    1  UNL1       -0.2684
     15 C          -4.5446  -20.3105   20.2624 C.2     1  UNL1        0.3079
     16 O          -5.4086  -21.5285   20.1200 O.2     1  UNL1       -0.2522
     17 H          -2.6698  -21.2616   19.7368 H       1  UNL1        0.1564
     18 C          -9.7941  -17.9157   22.9422 C.3     1  UNL1        0.0722
     19 C          -9.4302  -17.4123   24.1643 C.2     1  UNL1        0.4048
     20 O          -9.2689  -16.6607   22.8763 O.2     1  UNL1       -0.2262
     21 N          -9.0043  -16.7836   25.4579 N.am    1  UNL1       -0.2493
     22 C          -9.1036  -17.4099   26.8173 C.3     1  UNL1        0.0786
     23 C          -8.5649  -16.4315   27.8188 C.3     1  UNL1        0.0216
     24 C          -8.1328  -15.2007   27.0783 C.3     1  UNL1        0.0216
     25 C          -8.4043  -15.4183   25.6191 C.3     1  UNL1        0.0786
     26 C          -8.7809  -15.9067   24.2411 C.3     1  UNL1        0.0214
     27 C          -9.3682  -17.2870   24.2357 C.3     1  UNL1        0.0193
     28 C          -9.5295  -18.0385   25.5238 C.3     1  UNL1        0.0214
     29 O         -10.0175  -18.7926   24.1589 O.3     1  UNL1       -0.4345
     30 C         -12.5932  -18.6524   24.4689 C.3     1  UNL1        0.0513
     31 C         -11.4035  -19.0158   23.6307 C.3     1  UNL1        0.2102
@<TRIPOS>BOND
     1    30    31    1
     2    31    29    1
     3    29    19    1
     4    19    20    2
     5    19    21   am
     6    21    22    1
     7    22    23    1
     8    23    24    1
     9    25    24    1
    10    25    26    1
    11    26    27    1
    12    27    18    1
    13    18     1    1
    14     1     2    1
    15     2     3    1
    16     3     4    1
    17     4     6    1
    18     6     7    1
    19     7     8    1
    20     8     9   ar
    21     9    10   ar
    22    10    11   ar
    23    11    12   ar
    24    12    13   ar
    25    13    14    1
    26    14    15   am
    27    15    16    2
    28     4     5    1
    29    27    28    1
    30    25    21    1
    31     5     1    1
    32    28    22    1
    33    15     6   am
    34    13     8   ar
    35    14    17    1
