@<TRIPOS>MOLECULE
*****
 21 24 0 0 0
SMALL
GASTEIGER

@<TRIPOS>ATOM
      1 O          -5.1701  -15.0543   24.6117 O.2     1  UNL1       -0.2638
      2 C          -5.2062  -16.2682   23.7312 C.2     1  UNL1        0.3160
      3 N          -3.9300  -16.8382   23.1869 N.am    1  UNL1       -0.1720
      4 C          -3.9661  -18.0521   22.3064 C.ar    1  UNL1        0.0775
      5 C          -2.6899  -18.6221   21.7622 C.ar    1  UNL1        0.0167
      6 C          -2.7261  -19.8359   20.8817 C.ar    1  UNL1        0.0013
      7 C          -4.0385  -20.4798   20.5455 C.ar    1  UNL1        0.0002
      8 C          -5.3147  -19.9098   21.0898 C.ar    1  UNL1        0.0051
      9 C          -5.2785  -18.6959   21.9702 C.ar    1  UNL1        0.0623
     10 C          -6.5548  -18.1258   22.5145 C.2     1  UNL1        0.2419
     11 N          -7.9874  -18.5415   22.3567 N.2     1  UNL1       -0.0302
     12 C          -8.8366  -17.5845   23.1396 C.2     1  UNL1        0.3765
     13 N          -7.9289  -16.5774   23.7813 N.2     1  UNL1       -0.0256
     14 C          -6.5186  -16.9120   23.3950 C.2     1  UNL1        0.2907
     15 C         -10.3312  -17.6271   23.2597 C.ar    1  UNL1        0.0989
     16 C         -11.1772  -16.7132   22.4237 C.ar    1  UNL1        0.0085
     17 C         -12.6718  -16.7559   22.5439 C.ar    1  UNL1        0.0003
     18 C         -13.3203  -17.7125   23.5000 C.ar    1  UNL1        0.0009
     19 C         -12.4743  -18.6264   24.3361 C.ar    1  UNL1        0.0116
     20 C         -10.9798  -18.5837   24.2159 C.ar    1  UNL1        0.0651
     21 CL        -10.1337  -19.4977   25.0520 Cl      1  UNL1       -0.0820
@<TRIPOS>BOND
     1     1     2    2
     2     2     3    1
     3     3     4    2
     4     4     5   ar
     5     5     6   ar
     6     6     7   ar
     7     7     8   ar
     8     8     9   ar
     9     9    10    2
    10    10    11    1
    11    11    12    2
    12    12    15    1
    13    15    16   ar
    14    16    17   ar
    15    17    18   ar
    16    18    19   ar
    17    19    20   ar
    18    20    21    1
    19    12    13    1
    20    13    14    2
    21    14     2    1
    22     9     4   ar
    23    14    10    1
    24    20    15   ar
@<TRIPOS>MOLECULE
*****
 21 24 0 0 0
SMALL
GASTEIGER

@<TRIPOS>ATOM
      1 O          -9.2469  -21.1874   24.4905 O.2     1  UNL1       -0.2638
      2 C          -9.5221  -20.0787   23.5182 C.2     1  UNL1        0.3160
      3 N         -10.9104  -19.5270   23.3832 N.am    1  UNL1       -0.1720
      4 C         -11.1856  -18.4183   22.4110 C.ar    1  UNL1        0.0775
      5 C         -12.5739  -17.8666   22.2760 C.ar    1  UNL1        0.0167
      6 C         -12.8491  -16.7580   21.3038 C.ar    1  UNL1        0.0013
      7 C         -11.7360  -16.2011   20.4667 C.ar    1  UNL1        0.0002
      8 C         -10.3477  -16.7528   20.6017 C.ar    1  UNL1        0.0051
      9 C         -10.0725  -17.8614   21.5739 C.ar    1  UNL1        0.0623
     10 C          -8.6842  -18.4131   21.7089 C.2     1  UNL1        0.2419
     11 N          -7.3958  -18.0677   21.0230 N.2     1  UNL1       -0.0302
     12 C          -6.3243  -18.9628   21.5712 C.2     1  UNL1        0.3765
     13 N          -6.9505  -19.8615   22.5960 N.2     1  UNL1       -0.0256
     14 C          -8.4090  -19.5218   22.6811 C.2     1  UNL1        0.2907
     15 C          -4.8800  -18.9598   21.1658 C.ar    1  UNL1        0.0989
     16 C          -4.4835  -19.4360   19.7998 C.ar    1  UNL1        0.0085
     17 C          -3.0393  -19.4329   19.3945 C.ar    1  UNL1        0.0003
     18 C          -1.9917  -18.9536   20.3551 C.ar    1  UNL1        0.0009
     19 C          -2.3883  -18.4775   21.7211 C.ar    1  UNL1        0.0116
     20 C          -3.8324  -18.4805   22.1264 C.ar    1  UNL1        0.0651
     21 CL         -4.2291  -18.0043   23.4925 Cl      1  UNL1       -0.0820
@<TRIPOS>BOND
     1     1     2    2
     2     2     3    1
     3     3     4    2
     4     4     5   ar
     5     5     6   ar
     6     6     7   ar
     7     7     8   ar
     8     8     9   ar
     9     9    10    2
    10    10    11    1
    11    11    12    2
    12    12    15    1
    13    15    16   ar
    14    16    17   ar
    15    17    18   ar
    16    18    19   ar
    17    19    20   ar
    18    20    21    1
    19    12    13    1
    20    13    14    2
    21    14     2    1
    22     9     4   ar
    23    14    10    1
    24    20    15   ar
@<TRIPOS>MOLECULE
*****
 21 24 0 0 0
SMALL
GASTEIGER

@<TRIPOS>ATOM
      1 O          -7.8361  -15.1920   25.0985 O.2     1  UNL1       -0.2638
      2 C          -8.5469  -16.0416   24.0870 C.2     1  UNL1        0.3160
      3 N         -10.0412  -15.9792   23.9725 N.am    1  UNL1       -0.1720
      4 C         -10.7521  -16.8287   22.9610 C.ar    1  UNL1        0.0775
      5 C         -12.2464  -16.7663   22.8465 C.ar    1  UNL1        0.0167
      6 C         -12.9572  -17.6158   21.8351 C.ar    1  UNL1        0.0013
      7 C         -12.1737  -18.5278   20.9382 C.ar    1  UNL1        0.0002
      8 C         -10.6794  -18.5902   21.0526 C.ar    1  UNL1        0.0051
      9 C          -9.9686  -17.7406   22.0641 C.ar    1  UNL1        0.0623
     10 C          -8.4742  -17.8030   22.1786 C.2     1  UNL1        0.2419
     11 N          -7.4432  -18.6005   21.4364 N.2     1  UNL1       -0.0302
     12 C          -6.0951  -18.2439   21.9892 C.2     1  UNL1        0.3765
     13 N          -6.2931  -17.2260   23.0730 N.2     1  UNL1       -0.0256
     14 C          -7.7634  -16.9535   23.1900 C.2     1  UNL1        0.2907
     15 C          -4.7800  -18.8064   21.5374 C.ar    1  UNL1        0.0989
     16 C          -4.6899  -19.5537   20.2399 C.ar    1  UNL1        0.0085
     17 C          -3.3748  -20.1162   19.7882 C.ar    1  UNL1        0.0003
     18 C          -2.1498  -19.9314   20.6340 C.ar    1  UNL1        0.0009
     19 C          -2.2399  -19.1842   21.9314 C.ar    1  UNL1        0.0116
     20 C          -3.5550  -18.6217   22.3831 C.ar    1  UNL1        0.0651
     21 CL         -3.6451  -17.8743   23.6806 Cl      1  UNL1       -0.0820
@<TRIPOS>BOND
     1     1     2    2
     2     2     3    1
     3     3     4    2
     4     4     5   ar
     5     5     6   ar
     6     6     7   ar
     7     7     8   ar
     8     8     9   ar
     9     9    10    2
    10    10    11    1
    11    11    12    2
    12    12    15    1
    13    15    16   ar
    14    16    17   ar
    15    17    18   ar
    16    18    19   ar
    17    19    20   ar
    18    20    21    1
    19    12    13    1
    20    13    14    2
    21    14     2    1
    22     9     4   ar
    23    14    10    1
    24    20    15   ar
@<TRIPOS>MOLECULE
*****
 21 24 0 0 0
SMALL
GASTEIGER

@<TRIPOS>ATOM
      1 O         -14.6953   -2.4341   19.6811 O.2     1  UNL1       -0.2638
      2 C         -13.8648   -3.6541   19.4126 C.2     1  UNL1        0.3160
      3 N         -12.3709   -3.5425   19.3367 N.am    1  UNL1       -0.1720
      4 C         -11.5404   -4.7625   19.0683 C.ar    1  UNL1        0.0775
      5 C         -10.0465   -4.6509   18.9924 C.ar    1  UNL1        0.0167
      6 C          -9.2160   -5.8708   18.7239 C.ar    1  UNL1        0.0013
      7 C          -9.8794   -7.2023   18.5313 C.ar    1  UNL1        0.0002
      8 C         -11.3733   -7.3138   18.6072 C.ar    1  UNL1        0.0051
      9 C         -12.2038   -6.0939   18.8757 C.ar    1  UNL1        0.0623
     10 C         -13.6978   -6.2054   18.9516 C.2     1  UNL1        0.2419
     11 N         -14.6256   -7.3748   18.8046 N.2     1  UNL1       -0.0302
     12 C         -16.0296   -6.8775   18.9822 C.2     1  UNL1        0.3765
     13 N         -15.9694   -5.4009   19.2390 N.2     1  UNL1       -0.0256
     14 C         -14.5282   -4.9855   19.2201 C.2     1  UNL1        0.2907
     15 C         -17.2752   -7.7107   18.9148 C.ar    1  UNL1        0.0989
     16 C         -18.0282   -8.0368   20.1704 C.ar    1  UNL1        0.0085
     17 C         -19.2737   -8.8699   20.1030 C.ar    1  UNL1        0.0003
     18 C         -19.7662   -9.3769   18.7800 C.ar    1  UNL1        0.0009
     19 C         -19.0132   -9.0508   17.5244 C.ar    1  UNL1        0.0116
     20 C         -17.7677   -8.2177   17.5918 C.ar    1  UNL1        0.0651
     21 CL        -17.0146   -7.8916   16.3361 Cl      1  UNL1       -0.0820
@<TRIPOS>BOND
     1     1     2    2
     2     2     3    1
     3     3     4    2
     4     4     5   ar
     5     5     6   ar
     6     6     7   ar
     7     7     8   ar
     8     8     9   ar
     9     9    10    2
    10    10    11    1
    11    11    12    2
    12    12    15    1
    13    15    16   ar
    14    16    17   ar
    15    17    18   ar
    16    18    19   ar
    17    19    20   ar
    18    20    21    1
    19    12    13    1
    20    13    14    2
    21    14     2    1
    22     9     4   ar
    23    14    10    1
    24    20    15   ar
@<TRIPOS>MOLECULE
*****
 21 24 0 0 0
SMALL
GASTEIGER

@<TRIPOS>ATOM
      1 O          -6.4176  -14.7832   25.3361 O.2     1  UNL1       -0.2638
      2 C          -6.9878  -15.9204   24.5412 C.2     1  UNL1        0.3160
      3 N          -8.4165  -16.3320   24.7397 N.am    1  UNL1       -0.1720
      4 C          -8.9868  -17.4693   23.9448 C.ar    1  UNL1        0.0775
      5 C         -10.4154  -17.8809   24.1433 C.ar    1  UNL1        0.0167
      6 C         -10.9856  -19.0180   23.3485 C.ar    1  UNL1        0.0013
      7 C         -10.1271  -19.7436   22.3552 C.ar    1  UNL1        0.0002
      8 C          -8.6984  -19.3320   22.1568 C.ar    1  UNL1        0.0051
      9 C          -8.1282  -18.1948   22.9516 C.ar    1  UNL1        0.0623
     10 C          -6.6995  -17.7832   22.7532 C.2     1  UNL1        0.2419
     11 N          -5.6199  -18.3070   21.8532 N.2     1  UNL1       -0.0302
     12 C          -4.3824  -17.4935   22.0919 C.2     1  UNL1        0.3765
     13 N          -4.6972  -16.4670   23.1393 N.2     1  UNL1       -0.0256
     14 C          -6.1293  -16.6460   23.5480 C.2     1  UNL1        0.2907
     15 C          -3.0618  -17.6748   21.4038 C.ar    1  UNL1        0.0989
     16 C          -2.0907  -16.5339   21.3319 C.ar    1  UNL1        0.0085
     17 C          -0.7702  -16.7152   20.6439 C.ar    1  UNL1        0.0003
     18 C          -0.4208  -18.0374   20.0278 C.ar    1  UNL1        0.0009
     19 C          -1.3919  -19.1783   20.0997 C.ar    1  UNL1        0.0116
     20 C          -2.7124  -18.9970   20.7877 C.ar    1  UNL1        0.0651
     21 CL         -3.6836  -20.1380   20.8596 Cl      1  UNL1       -0.0820
@<TRIPOS>BOND
     1     1     2    2
     2     2     3    1
     3     3     4    2
     4     4     5   ar
     5     5     6   ar
     6     6     7   ar
     7     7     8   ar
     8     8     9   ar
     9     9    10    2
    10    10    11    1
    11    11    12    2
    12    12    15    1
    13    15    16   ar
    14    16    17   ar
    15    17    18   ar
    16    18    19   ar
    17    19    20   ar
    18    20    21    1
    19    12    13    1
    20    13    14    2
    21    14     2    1
    22     9     4   ar
    23    14    10    1
    24    20    15   ar
@<TRIPOS>MOLECULE
*****
 21 24 0 0 0
SMALL
GASTEIGER

@<TRIPOS>ATOM
      1 O         -10.3599   -6.9503   19.0255 O.2     1  UNL1       -0.2638
      2 C         -11.2963   -5.7819   18.9358 C.2     1  UNL1        0.3160
      3 N         -10.7498   -4.3900   18.8181 N.am    1  UNL1       -0.1720
      4 C         -11.6862   -3.2216   18.7283 C.ar    1  UNL1        0.0775
      5 C         -11.1397   -1.8297   18.6107 C.ar    1  UNL1        0.0167
      6 C         -12.0761   -0.6614   18.5209 C.ar    1  UNL1        0.0013
      7 C         -13.5591   -0.8850   18.5488 C.ar    1  UNL1        0.0002
      8 C         -14.1056   -2.2769   18.6665 C.ar    1  UNL1        0.0051
      9 C         -13.1692   -3.4452   18.7562 C.ar    1  UNL1        0.0623
     10 C         -13.7157   -4.8371   18.8739 C.2     1  UNL1        0.2419
     11 N         -15.1195   -5.3631   18.9261 N.2     1  UNL1       -0.0302
     12 C         -15.0506   -6.8566   19.0482 C.2     1  UNL1        0.3765
     13 N         -13.6043   -7.2535   19.0714 N.2     1  UNL1       -0.0256
     14 C         -12.7793   -6.0055   18.9637 C.2     1  UNL1        0.2907
     15 C         -16.2225   -7.7893   19.1322 C.ar    1  UNL1        0.0989
     16 C         -17.4449   -7.3901   19.9043 C.ar    1  UNL1        0.0085
     17 C         -18.6166   -8.3228   19.9884 C.ar    1  UNL1        0.0003
     18 C         -18.5659   -9.6547   19.3003 C.ar    1  UNL1        0.0009
     19 C         -17.3435  -10.0539   18.5281 C.ar    1  UNL1        0.0116
     20 C         -16.1717   -9.1212   18.4441 C.ar    1  UNL1        0.0651
     21 CL        -14.9492   -9.5203   17.6719 Cl      1  UNL1       -0.0820
@<TRIPOS>BOND
     1     1     2    2
     2     2     3    1
     3     3     4    2
     4     4     5   ar
     5     5     6   ar
     6     6     7   ar
     7     7     8   ar
     8     8     9   ar
     9     9    10    2
    10    10    11    1
    11    11    12    2
    12    12    15    1
    13    15    16   ar
    14    16    17   ar
    15    17    18   ar
    16    18    19   ar
    17    19    20   ar
    18    20    21    1
    19    12    13    1
    20    13    14    2
    21    14     2    1
    22     9     4   ar
    23    14    10    1
    24    20    15   ar
@<TRIPOS>MOLECULE
*****
 21 24 0 0 0
SMALL
GASTEIGER

@<TRIPOS>ATOM
      1 O          -7.3607  -15.8909   25.4826 O.2     1  UNL1       -0.2638
      2 C          -8.0152  -16.6585   24.3724 C.2     1  UNL1        0.3160
      3 N          -9.5052  -16.8301   24.3562 N.am    1  UNL1       -0.1720
      4 C         -10.1598  -17.5978   23.2460 C.ar    1  UNL1        0.0775
      5 C         -11.6498  -17.7694   23.2298 C.ar    1  UNL1        0.0167
      6 C         -12.3043  -18.5370   22.1197 C.ar    1  UNL1        0.0013
      7 C         -11.4687  -19.1330   21.0258 C.ar    1  UNL1        0.0002
      8 C          -9.9787  -18.9613   21.0420 C.ar    1  UNL1        0.0051
      9 C          -9.3242  -18.1937   22.1521 C.ar    1  UNL1        0.0623
     10 C          -7.8341  -18.0220   22.1684 C.2     1  UNL1        0.2419
     11 N          -6.7594  -18.4922   21.2335 N.2     1  UNL1       -0.0302
     12 C          -5.4407  -18.0152   21.7659 C.2     1  UNL1        0.3765
     13 N          -5.7004  -17.2502   23.0298 N.2     1  UNL1       -0.0256
     14 C          -7.1796  -17.2544   23.2785 C.2     1  UNL1        0.2907
     15 C          -4.0980  -18.2602   21.1437 C.ar    1  UNL1        0.0989
     16 C          -3.9834  -18.4598   19.6615 C.ar    1  UNL1        0.0085
     17 C          -2.6407  -18.7048   19.0393 C.ar    1  UNL1        0.0003
     18 C          -1.4126  -18.7501   19.8993 C.ar    1  UNL1        0.0009
     19 C          -1.5272  -18.5505   21.3815 C.ar    1  UNL1        0.0116
     20 C          -2.8698  -18.3056   22.0037 C.ar    1  UNL1        0.0651
     21 CL         -2.9845  -18.1059   23.4860 Cl      1  UNL1       -0.0820
@<TRIPOS>BOND
     1     1     2    2
     2     2     3    1
     3     3     4    2
     4     4     5   ar
     5     5     6   ar
     6     6     7   ar
     7     7     8   ar
     8     8     9   ar
     9     9    10    2
    10    10    11    1
    11    11    12    2
    12    12    15    1
    13    15    16   ar
    14    16    17   ar
    15    17    18   ar
    16    18    19   ar
    17    19    20   ar
    18    20    21    1
    19    12    13    1
    20    13    14    2
    21    14     2    1
    22     9     4   ar
    23    14    10    1
    24    20    15   ar
@<TRIPOS>MOLECULE
*****
 21 24 0 0 0
SMALL
GASTEIGER

@<TRIPOS>ATOM
      1 O         -17.3120   -2.5058   19.4499 O.2     1  UNL1       -0.2638
      2 C         -17.3945   -4.0028   19.4992 C.2     1  UNL1        0.3160
      3 N         -18.7261   -4.6759   19.6535 N.am    1  UNL1       -0.1720
      4 C         -18.8085   -6.1729   19.7028 C.ar    1  UNL1        0.0775
      5 C         -20.1401   -6.8460   19.8572 C.ar    1  UNL1        0.0167
      6 C         -20.2225   -8.3428   19.9065 C.ar    1  UNL1        0.0013
      7 C         -18.9733   -9.1666   19.8015 C.ar    1  UNL1        0.0002
      8 C         -17.6418   -8.4935   19.6471 C.ar    1  UNL1        0.0051
      9 C         -17.5594   -6.9966   19.5978 C.ar    1  UNL1        0.0623
     10 C         -16.2278   -6.3235   19.4435 C.2     1  UNL1        0.2419
     11 N         -14.8363   -6.8688   19.3163 N.2     1  UNL1       -0.0302
     12 C         -13.8938   -5.7089   19.1884 C.2     1  UNL1        0.3765
     13 N         -14.7029   -4.4467   19.2365 N.2     1  UNL1       -0.0256
     14 C         -16.1454   -4.8266   19.3942 C.2     1  UNL1        0.2907
     15 C         -12.4037   -5.7959   19.0387 C.ar    1  UNL1        0.0989
     16 C         -11.7509   -7.1239   18.7938 C.ar    1  UNL1        0.0085
     17 C         -10.2609   -7.2109   18.6441 C.ar    1  UNL1        0.0003
     18 C          -9.4239   -5.9698   18.7393 C.ar    1  UNL1        0.0009
     19 C         -10.0767   -4.6418   18.9842 C.ar    1  UNL1        0.0116
     20 C         -11.5667   -4.5548   19.1339 C.ar    1  UNL1        0.0651
     21 CL        -12.2196   -3.2267   19.3788 Cl      1  UNL1       -0.0820
@<TRIPOS>BOND
     1     1     2    2
     2     2     3    1
     3     3     4    2
     4     4     5   ar
     5     5     6   ar
     6     6     7   ar
     7     7     8   ar
     8     8     9   ar
     9     9    10    2
    10    10    11    1
    11    11    12    2
    12    12    15    1
    13    15    16   ar
    14    16    17   ar
    15    17    18   ar
    16    18    19   ar
    17    19    20   ar
    18    20    21    1
    19    12    13    1
    20    13    14    2
    21    14     2    1
    22     9     4   ar
    23    14    10    1
    24    20    15   ar
@<TRIPOS>MOLECULE
*****
 21 24 0 0 0
SMALL
GASTEIGER

@<TRIPOS>ATOM
      1 O         -16.3286   -6.2878   19.3442 O.2     1  UNL1       -0.2638
      2 C         -14.9316   -5.7488   19.2547 C.2     1  UNL1        0.3160
      3 N         -13.7723   -6.6898   19.1117 N.am    1  UNL1       -0.1720
      4 C         -12.3753   -6.1508   19.0222 C.ar    1  UNL1        0.0775
      5 C         -11.2160   -7.0918   18.8792 C.ar    1  UNL1        0.0167
      6 C          -9.8192   -6.5527   18.7898 C.ar    1  UNL1        0.0013
      7 C          -9.5815   -5.0727   18.8433 C.ar    1  UNL1        0.0002
      8 C         -10.7408   -4.1316   18.9863 C.ar    1  UNL1        0.0051
      9 C         -12.1377   -4.6707   19.0758 C.ar    1  UNL1        0.0623
     10 C         -13.2971   -3.7296   19.2188 C.2     1  UNL1        0.2419
     11 N         -13.3714   -2.2337   19.2991 N.2     1  UNL1       -0.0302
     12 C         -14.8144   -1.8481   19.4381 C.2     1  UNL1        0.3765
     13 N         -15.6317   -3.1058   19.4438 N.2     1  UNL1       -0.0256
     14 C         -14.6940   -4.2687   19.3082 C.2     1  UNL1        0.2907
     15 C         -15.3465   -0.4502   19.5516 C.ar    1  UNL1        0.0989
     16 C         -16.4962   -0.1576   20.4694 C.ar    1  UNL1        0.0085
     17 C         -17.0283    1.2402   20.5829 C.ar    1  UNL1        0.0003
     18 C         -16.4106    2.3454   19.7785 C.ar    1  UNL1        0.0009
     19 C         -15.2608    2.0528   18.8607 C.ar    1  UNL1        0.0116
     20 C         -14.7288    0.6550   18.7473 C.ar    1  UNL1        0.0651
     21 CL        -13.5790    0.3623   17.8294 Cl      1  UNL1       -0.0820
@<TRIPOS>BOND
     1     1     2    2
     2     2     3    1
     3     3     4    2
     4     4     5   ar
     5     5     6   ar
     6     6     7   ar
     7     7     8   ar
     8     8     9   ar
     9     9    10    2
    10    10    11    1
    11    11    12    2
    12    12    15    1
    13    15    16   ar
    14    16    17   ar
    15    17    18   ar
    16    18    19   ar
    17    19    20   ar
    18    20    21    1
    19    12    13    1
    20    13    14    2
    21    14     2    1
    22     9     4   ar
    23    14    10    1
    24    20    15   ar
