@<TRIPOS>MOLECULE
*****
 30 32 0 0 0
SMALL
GASTEIGER

@<TRIPOS>ATOM
      1 N          -4.5398  -18.9531   22.2756 N.am    1  UNL1       -0.2588
      2 C          -3.2663  -19.2488   21.5402 C.2     1  UNL1        0.3219
      3 O          -2.9746  -20.4866   20.7448 O.2     1  UNL1       -0.2510
      4 N          -2.3358  -18.0893   21.7397 N.am    1  UNL1       -0.1885
      5 C          -3.0342  -17.0771   22.5985 C.3     1  UNL1        0.1388
      6 C          -4.3963  -17.6108   22.9298 C.3     1  UNL1        0.1208
      7 C          -5.4329  -16.9232   23.7679 C.ar    1  UNL1       -0.0023
      8 C          -6.8524  -16.8435   23.2892 C.ar    1  UNL1        0.0005
      9 C          -7.8890  -16.1558   24.1274 C.ar    1  UNL1        0.0366
     10 C          -7.5063  -15.5479   25.4442 C.ar    1  UNL1        0.1387
     11 C          -6.0870  -15.6276   25.9229 C.ar    1  UNL1        0.0366
     12 C          -5.0503  -16.3153   25.0847 C.ar    1  UNL1        0.0005
     13 O          -8.5429  -14.8603   26.2824 O.3     1  UNL1       -0.4714
     14 C          -8.5031  -14.9856   27.7766 C.3     1  UNL1        0.2525
     15 N          -0.9503  -17.9641   21.1790 N.3     1  UNL1       -0.1073
     16 H          -0.4236  -18.7715   21.5125 H       1  UNL1        0.1715
     17 S          -0.7452  -17.8964   19.6946 S.O2    1  UNL1        0.0573
     18 C          -0.5401  -17.8287   18.2103 C.3     1  UNL1        0.1974
     19 O          -1.8143  -16.8491   19.5947 O.2     1  UNL1       -0.1561
     20 O           0.3240  -18.9438   19.7947 O.2     1  UNL1       -0.1561
     21 C          -5.7451  -19.8434   22.3448 C.3     1  UNL1        0.1000
     22 C          -6.6300  -20.0024   21.1441 C.3     1  UNL1        0.0479
     23 C         -10.9606  -18.7996   21.3655 C.ar    1  UNL1        0.1387
     24 C         -10.2566  -18.8271   20.0413 C.ar    1  UNL1        0.0366
     25 C          -8.8131  -19.2281   19.9675 C.ar    1  UNL1       -0.0011
     26 C          -8.0735  -19.6014   21.2179 C.ar    1  UNL1       -0.0203
     27 C          -8.7775  -19.5739   22.5422 C.ar    1  UNL1       -0.0011
     28 C         -10.2210  -19.1729   22.6160 C.ar    1  UNL1        0.0366
     29 C         -12.9166  -17.6586   22.6392 C.3     1  UNL1        0.2525
     30 O         -12.4041  -18.3986   21.4393 O.3     1  UNL1       -0.4714
@<TRIPOS>BOND
     1    29    30    1
     2    30    23    1
     3    23    24   ar
     4    24    25   ar
     5    25    26   ar
     6    26    22    1
     7    22    21    1
     8    21     1    1
     9     1     2   am
    10     2     3    2
    11     2     4   am
    12     4    15    1
    13    15    17    1
    14    17    18    1
    15    17    19    2
    16    17    20    2
    17     4     5    1
    18     5     6    1
    19     6     7    1
    20     7     8   ar
    21     8     9   ar
    22     9    10   ar
    23    10    13    1
    24    13    14    1
    25    10    11   ar
    26    11    12   ar
    27    26    27   ar
    28    27    28   ar
    29    28    23   ar
    30     6     1    1
    31    12     7   ar
    32    15    16    1
@<TRIPOS>MOLECULE
*****
 30 32 0 0 0
SMALL
GASTEIGER

@<TRIPOS>ATOM
      1 N          -6.3218  -19.8409   20.8821 N.am    1  UNL1       -0.2588
      2 C          -4.8802  -19.6382   20.5207 C.2     1  UNL1        0.3219
      3 O          -4.1912  -20.1826   19.3046 O.2     1  UNL1       -0.2510
      4 N          -4.2485  -18.7956   21.5888 N.am    1  UNL1       -0.1885
      5 C          -5.2998  -18.4775   22.6104 C.3     1  UNL1        0.1388
      6 C          -6.5812  -19.1235   22.1737 C.3     1  UNL1        0.1208
      7 C          -7.8917  -19.0628   22.9007 C.ar    1  UNL1       -0.0023
      8 C          -8.5403  -17.7369   23.1683 C.ar    1  UNL1        0.0005
      9 C          -9.8509  -17.6763   23.8954 C.ar    1  UNL1        0.0366
     10 C         -10.5129  -18.9414   24.3550 C.ar    1  UNL1        0.1387
     11 C          -9.8644  -20.2672   24.0875 C.ar    1  UNL1        0.0366
     12 C          -8.5538  -20.3279   23.3604 C.ar    1  UNL1        0.0005
     13 O         -11.8235  -18.8807   25.0821 O.3     1  UNL1       -0.4714
     14 C         -13.0765  -18.5194   24.3408 C.3     1  UNL1        0.2525
     15 N          -2.8170  -18.3494   21.6285 N.3     1  UNL1       -0.1073
     16 H          -2.3025  -19.0570   22.1529 H       1  UNL1        0.1715
     17 S          -2.0653  -18.1262   20.3498 S.O2    1  UNL1        0.0573
     18 C          -1.3136  -17.9030   19.0711 C.3     1  UNL1        0.1974
     19 O          -1.2498  -19.3570   20.6144 O.2     1  UNL1       -0.1561
     20 O          -2.8809  -16.8953   20.0853 O.2     1  UNL1       -0.1561
     21 C          -7.3276  -20.6235   20.0908 C.3     1  UNL1        0.1000
     22 C          -8.2821  -19.9120   19.1784 C.3     1  UNL1        0.0479
     23 C         -11.8253  -17.7283   20.8892 C.ar    1  UNL1        0.1387
     24 C         -10.7299  -16.9628   20.2081 C.ar    1  UNL1        0.0366
     25 C          -9.5488  -17.6907   19.6378 C.ar    1  UNL1       -0.0011
     26 C          -9.4632  -19.1841   19.7487 C.ar    1  UNL1       -0.0203
     27 C         -10.5586  -19.9496   20.4298 C.ar    1  UNL1       -0.0011
     28 C         -11.7397  -19.2217   21.0001 C.ar    1  UNL1        0.0366
     29 C         -12.7962  -15.8325   22.3769 C.3     1  UNL1        0.2525
     30 O         -13.0064  -17.0004   21.4595 O.3     1  UNL1       -0.4714
@<TRIPOS>BOND
     1    29    30    1
     2    30    23    1
     3    23    24   ar
     4    24    25   ar
     5    25    26   ar
     6    26    22    1
     7    22    21    1
     8    21     1    1
     9     1     2   am
    10     2     3    2
    11     2     4   am
    12     4    15    1
    13    15    17    1
    14    17    18    1
    15    17    19    2
    16    17    20    2
    17     4     5    1
    18     5     6    1
    19     6     7    1
    20     7     8   ar
    21     8     9   ar
    22     9    10   ar
    23    10    13    1
    24    13    14    1
    25    10    11   ar
    26    11    12   ar
    27    26    27   ar
    28    27    28   ar
    29    28    23   ar
    30     6     1    1
    31    12     7   ar
    32    15    16    1
@<TRIPOS>MOLECULE
*****
 30 32 0 0 0
SMALL
GASTEIGER

@<TRIPOS>ATOM
      1 N          -4.7867  -18.0916   22.8344 N.am    1  UNL1       -0.2588
      2 C          -3.3282  -18.1913   22.4984 C.2     1  UNL1        0.3219
      3 O          -2.2096  -17.4888   23.2092 O.2     1  UNL1       -0.2510
      4 N          -3.1846  -19.1169   21.3268 N.am    1  UNL1       -0.1885
      5 C          -4.5544  -19.5893   20.9387 C.3     1  UNL1        0.1388
      6 C          -5.5446  -18.9557   21.8705 C.3     1  UNL1        0.1208
      7 C          -7.0314  -19.1516   21.8431 C.ar    1  UNL1       -0.0023
      8 C          -7.8210  -18.7332   20.6383 C.ar    1  UNL1        0.0005
      9 C          -9.3079  -18.9291   20.6109 C.ar    1  UNL1        0.0366
     10 C         -10.0052  -19.5435   21.7883 C.ar    1  UNL1        0.1387
     11 C          -9.2157  -19.9619   22.9931 C.ar    1  UNL1        0.0366
     12 C          -7.7288  -19.7659   23.0205 C.ar    1  UNL1        0.0005
     13 O         -11.4921  -19.7394   21.7610 O.3     1  UNL1       -0.4714
     14 C         -12.3557  -19.0714   22.7896 C.3     1  UNL1        0.2525
     15 N          -1.8974  -19.5025   20.6603 N.3     1  UNL1       -0.1073
     16 H          -2.1103  -20.2814   20.0371 H       1  UNL1        0.1715
     17 S          -1.1413  -18.4928   19.8487 S.O2    1  UNL1        0.0573
     18 C          -0.3852  -17.4831   19.0370 C.3     1  UNL1        0.1974
     19 O          -0.1656  -18.3184   20.9745 O.2     1  UNL1       -0.1561
     20 O          -2.1170  -18.6673   18.7227 O.2     1  UNL1       -0.1561
     21 C          -5.3827  -17.2719   23.9402 C.3     1  UNL1        0.1000
     22 C          -6.0622  -15.9717   23.6275 C.3     1  UNL1        0.0479
     23 C         -10.4178  -15.9240   22.4980 C.ar    1  UNL1        0.1387
     24 C          -9.3887  -15.4028   21.5393 C.ar    1  UNL1        0.0366
     25 C          -7.9368  -15.4187   21.9158 C.ar    1  UNL1       -0.0011
     26 C          -7.5141  -15.9558   23.2510 C.ar    1  UNL1       -0.0203
     27 C          -8.5433  -16.4770   24.2097 C.ar    1  UNL1       -0.0011
     28 C          -9.9951  -16.4611   23.8332 C.ar    1  UNL1        0.0366
     29 C         -12.2812  -16.1960   20.7080 C.3     1  UNL1        0.2525
     30 O         -11.8697  -15.9081   22.1214 O.3     1  UNL1       -0.4714
@<TRIPOS>BOND
     1    29    30    1
     2    30    23    1
     3    23    24   ar
     4    24    25   ar
     5    25    26   ar
     6    26    22    1
     7    22    21    1
     8    21     1    1
     9     1     2   am
    10     2     3    2
    11     2     4   am
    12     4    15    1
    13    15    17    1
    14    17    18    1
    15    17    19    2
    16    17    20    2
    17     4     5    1
    18     5     6    1
    19     6     7    1
    20     7     8   ar
    21     8     9   ar
    22     9    10   ar
    23    10    13    1
    24    13    14    1
    25    10    11   ar
    26    11    12   ar
    27    26    27   ar
    28    27    28   ar
    29    28    23   ar
    30     6     1    1
    31    12     7   ar
    32    15    16    1
@<TRIPOS>MOLECULE
*****
 30 32 0 0 0
SMALL
GASTEIGER

@<TRIPOS>ATOM
      1 N           0.7438    1.3892   19.9583 N.am    1  UNL1       -0.2588
      2 C          -0.3683    2.3956   19.9756 C.2     1  UNL1        0.3219
      3 O          -1.5201    2.4205   20.9362 O.2     1  UNL1       -0.2510
      4 N          -0.1266    3.3728   18.8636 N.am    1  UNL1       -0.1885
      5 C           1.1350    2.9704   18.1590 C.3     1  UNL1        0.1388
      6 C           1.6730    1.7445   18.8355 C.3     1  UNL1        0.1208
      7 C           2.9209    1.0038   18.4561 C.ar    1  UNL1       -0.0023
      8 C           4.2446    1.4248   19.0226 C.ar    1  UNL1        0.0005
      9 C           5.4925    0.6841   18.6431 C.ar    1  UNL1        0.0366
     10 C           5.4169   -0.4775   17.6971 C.ar    1  UNL1        0.1387
     11 C           4.0934   -0.8984   17.1305 C.ar    1  UNL1        0.0366
     12 C           2.8454   -0.1578   17.5100 C.ar    1  UNL1        0.0005
     13 O           6.6648   -1.2182   17.3175 O.3     1  UNL1       -0.4714
     14 C           7.3539   -2.0916   18.3237 C.3     1  UNL1        0.2525
     15 N          -0.9940    4.5464   18.5169 N.3     1  UNL1       -0.1073
     16 H          -0.4956    5.0809   17.8053 H       1  UNL1        0.1715
     17 S          -2.3836    4.3245   17.9977 S.O2    1  UNL1        0.0573
     18 C          -3.7733    4.1026   17.4785 C.3     1  UNL1        0.1974
     19 O          -1.8190    3.7622   16.7268 O.2     1  UNL1       -0.1561
     20 O          -2.9483    4.8868   19.2686 O.2     1  UNL1       -0.1561
     21 C           0.8995    0.2310   20.8987 C.3     1  UNL1        0.1000
     22 C           1.9995    0.2354   21.9184 C.3     1  UNL1        0.0479
     23 C           4.8794   -3.2155   22.1363 C.ar    1  UNL1        0.1387
     24 C           4.2431   -2.8512   20.8278 C.ar    1  UNL1        0.0366
     25 C           3.2831   -1.7009   20.7551 C.ar    1  UNL1       -0.0011
     26 C           2.9595   -0.9149   21.9910 C.ar    1  UNL1       -0.0203
     27 C           3.5959   -1.2792   23.2995 C.ar    1  UNL1       -0.0011
     28 C           4.5559   -2.4295   23.3722 C.ar    1  UNL1        0.0366
     29 C           6.9492   -4.3539   23.2179 C.3     1  UNL1        0.2525
     30 O           5.8394   -4.3658   22.2090 O.3     1  UNL1       -0.4714
@<TRIPOS>BOND
     1    29    30    1
     2    30    23    1
     3    23    24   ar
     4    24    25   ar
     5    25    26   ar
     6    26    22    1
     7    22    21    1
     8    21     1    1
     9     1     2   am
    10     2     3    2
    11     2     4   am
    12     4    15    1
    13    15    17    1
    14    17    18    1
    15    17    19    2
    16    17    20    2
    17     4     5    1
    18     5     6    1
    19     6     7    1
    20     7     8   ar
    21     8     9   ar
    22     9    10   ar
    23    10    13    1
    24    13    14    1
    25    10    11   ar
    26    11    12   ar
    27    26    27   ar
    28    27    28   ar
    29    28    23   ar
    30     6     1    1
    31    12     7   ar
    32    15    16    1
@<TRIPOS>MOLECULE
*****
 30 32 0 0 0
SMALL
GASTEIGER

@<TRIPOS>ATOM
      1 N          -6.4714  -17.2439   22.8165 N.am    1  UNL1       -0.2588
      2 C          -7.3335  -16.5535   23.8314 C.2     1  UNL1        0.3219
      3 O          -8.8324  -16.5829   23.8813 O.2     1  UNL1       -0.2510
      4 N          -6.4336  -15.8285   24.7877 N.am    1  UNL1       -0.1885
      5 C          -5.0153  -16.0708   24.3639 C.3     1  UNL1        0.1388
      6 C          -5.0386  -16.9456   23.1455 C.3     1  UNL1        0.1208
      7 C          -3.8398  -17.4360   22.3892 C.ar    1  UNL1       -0.0023
      8 C          -2.8215  -16.4583   21.8818 C.ar    1  UNL1        0.0005
      9 C          -1.6227  -16.9487   21.1254 C.ar    1  UNL1        0.0366
     10 C          -1.4420  -18.4168   20.8763 C.ar    1  UNL1        0.1387
     11 C          -2.4601  -19.3945   21.3836 C.ar    1  UNL1        0.0366
     12 C          -3.6590  -18.9041   22.1401 C.ar    1  UNL1        0.0005
     13 O          -0.2431  -18.9073   20.1199 O.3     1  UNL1       -0.4714
     14 C           0.8801  -17.9652   19.8020 C.3     1  UNL1        0.2525
     15 N          -6.8745  -15.0056   25.9618 N.3     1  UNL1       -0.1073
     16 H          -7.3988  -14.2150   25.5869 H       1  UNL1        0.1715
     17 S          -7.7261  -15.6216   27.0319 S.O2    1  UNL1        0.0573
     18 C          -8.5777  -16.2376   28.1021 C.3     1  UNL1        0.1974
     19 O          -6.5184  -16.3081   27.5978 O.2     1  UNL1       -0.1561
     20 O          -8.9338  -14.9350   26.4660 O.2     1  UNL1       -0.1561
     21 C          -6.9568  -18.0850   21.6733 C.3     1  UNL1        0.1000
     22 C          -7.8860  -19.2343   21.9293 C.3     1  UNL1        0.0479
     23 C         -12.2115  -18.4583   22.8976 C.ar    1  UNL1        0.1387
     24 C         -11.3519  -19.2199   23.8624 C.ar    1  UNL1        0.0366
     25 C          -9.9101  -19.4786   23.5396 C.ar    1  UNL1       -0.0011
     26 C          -9.3278  -18.9757   22.2520 C.ar    1  UNL1       -0.0203
     27 C         -10.1874  -18.2140   21.2872 C.ar    1  UNL1       -0.0011
     28 C         -11.6292  -17.9553   21.6100 C.ar    1  UNL1        0.0366
     29 C         -14.1226  -18.2428   24.6444 C.3     1  UNL1        0.2525
     30 O         -13.6533  -18.1996   23.2203 O.3     1  UNL1       -0.4714
@<TRIPOS>BOND
     1    29    30    1
     2    30    23    1
     3    23    24   ar
     4    24    25   ar
     5    25    26   ar
     6    26    22    1
     7    22    21    1
     8    21     1    1
     9     1     2   am
    10     2     3    2
    11     2     4   am
    12     4    15    1
    13    15    17    1
    14    17    18    1
    15    17    19    2
    16    17    20    2
    17     4     5    1
    18     5     6    1
    19     6     7    1
    20     7     8   ar
    21     8     9   ar
    22     9    10   ar
    23    10    13    1
    24    13    14    1
    25    10    11   ar
    26    11    12   ar
    27    26    27   ar
    28    27    28   ar
    29    28    23   ar
    30     6     1    1
    31    12     7   ar
    32    15    16    1
@<TRIPOS>MOLECULE
*****
 30 32 0 0 0
SMALL
GASTEIGER

@<TRIPOS>ATOM
      1 N           3.4554    1.8209   34.3388 N.am    1  UNL1       -0.2588
      2 C           2.8901    2.6198   35.4755 C.2     1  UNL1        0.3219
      3 O           2.0342    3.8454   35.3520 O.2     1  UNL1       -0.2510
      4 N           3.3308    1.9778   36.7576 N.am    1  UNL1       -0.1885
      5 C           4.1686    0.7822   36.4132 C.3     1  UNL1        0.1388
      6 C           4.2457    0.6852   34.9183 C.3     1  UNL1        0.1208
      7 C           4.9833   -0.3633   34.1397 C.ar    1  UNL1       -0.0023
      8 C           6.4005   -0.1214   33.7116 C.ar    1  UNL1        0.0005
      9 C           7.1382   -1.1700   32.9329 C.ar    1  UNL1        0.0366
     10 C           6.4587   -2.4605   32.5823 C.ar    1  UNL1        0.1387
     11 C           5.0417   -2.7025   33.0104 C.ar    1  UNL1        0.0366
     12 C           4.3040   -1.6539   33.7890 C.ar    1  UNL1        0.0005
     13 O           7.1964   -3.5091   31.8036 O.3     1  UNL1       -0.4714
     14 C           6.6916   -3.9376   30.4578 C.3     1  UNL1        0.2525
     15 N           2.9931    2.4487   38.1411 N.3     1  UNL1       -0.1073
     16 H           2.7486    3.4360   38.0645 H       1  UNL1        0.1715
     17 S           1.8879    1.7872   38.9096 S.O2    1  UNL1        0.0573
     18 C           0.7826    1.1257   39.6782 C.3     1  UNL1        0.1974
     19 O           2.8794    0.8442   39.5239 O.2     1  UNL1       -0.1561
     20 O           0.8962    2.7303   38.2953 O.2     1  UNL1       -0.1561
     21 C           3.2642    2.1074   32.8789 C.3     1  UNL1        0.1000
     22 C           2.2072    1.3784   32.1037 C.3     1  UNL1        0.0479
     23 C           3.3100   -0.8816   28.3718 C.ar    1  UNL1        0.1387
     24 C           4.3609   -0.5622   29.3934 C.ar    1  UNL1        0.0366
     25 C           3.9933    0.1911   30.6373 C.ar    1  UNL1       -0.0011
     26 C           2.5748    0.6250   30.8597 C.ar    1  UNL1       -0.0203
     27 C           1.5239    0.3057   29.8382 C.ar    1  UNL1       -0.0011
     28 C           1.8915   -0.4477   28.5943 C.ar    1  UNL1        0.0366
     29 C           3.7763   -0.9141   25.8162 C.3     1  UNL1        0.2525
     30 O           3.6776   -1.6349   27.1279 O.3     1  UNL1       -0.4714
@<TRIPOS>BOND
     1    29    30    1
     2    30    23    1
     3    23    24   ar
     4    24    25   ar
     5    25    26   ar
     6    26    22    1
     7    22    21    1
     8    21     1    1
     9     1     2   am
    10     2     3    2
    11     2     4   am
    12     4    15    1
    13    15    17    1
    14    17    18    1
    15    17    19    2
    16    17    20    2
    17     4     5    1
    18     5     6    1
    19     6     7    1
    20     7     8   ar
    21     8     9   ar
    22     9    10   ar
    23    10    13    1
    24    13    14    1
    25    10    11   ar
    26    11    12   ar
    27    26    27   ar
    28    27    28   ar
    29    28    23   ar
    30     6     1    1
    31    12     7   ar
    32    15    16    1
@<TRIPOS>MOLECULE
*****
 30 32 0 0 0
SMALL
GASTEIGER

@<TRIPOS>ATOM
      1 N           1.8471    0.6353   19.0349 N.am    1  UNL1       -0.2588
      2 C           0.6757    1.5715   18.9986 C.2     1  UNL1        0.3219
      3 O           0.3311    2.5096   17.8800 O.2     1  UNL1       -0.2510
      4 N          -0.0907    1.4049   20.2772 N.am    1  UNL1       -0.1885
      5 C           0.6070    0.3657   21.1038 C.3     1  UNL1        0.1388
      6 C           1.8047   -0.1100   20.3360 C.3     1  UNL1        0.1208
      7 C           2.7873   -1.1485   20.7896 C.ar    1  UNL1       -0.0023
      8 C           3.4718   -1.0045   22.1166 C.ar    1  UNL1        0.0005
      9 C           4.4545   -2.0431   22.5702 C.ar    1  UNL1        0.0366
     10 C           4.7527   -3.2256   21.6969 C.ar    1  UNL1        0.1387
     11 C           4.0682   -3.3697   20.3700 C.ar    1  UNL1        0.0366
     12 C           3.0856   -2.3311   19.9164 C.ar    1  UNL1        0.0005
     13 O           5.7354   -4.2642   22.1505 O.3     1  UNL1       -0.4714
     14 C           6.2994   -4.2072   23.5393 C.3     1  UNL1        0.2525
     15 N          -1.3361    2.1470   20.6618 N.3     1  UNL1       -0.1073
     16 H          -1.5776    1.8474   21.6064 H       1  UNL1        0.1715
     17 S          -1.3436    3.6470   20.6682 S.O2    1  UNL1        0.0573
     18 C          -1.3510    5.1469   20.6746 C.3     1  UNL1        0.1974
     19 O          -2.3738    3.6465   19.5779 O.2     1  UNL1       -0.1561
     20 O          -0.3133    3.6474   21.7585 O.2     1  UNL1       -0.1561
     21 C           2.8796    0.4728   17.9590 C.3     1  UNL1        0.1000
     22 C           4.2721    0.9879   18.1720 C.3     1  UNL1        0.0479
     23 C           7.5701   -1.8505   19.3197 C.ar    1  UNL1        0.1387
     24 C           6.7891   -2.0784   18.0595 C.ar    1  UNL1        0.0366
     25 C           5.6898   -1.1323   17.6769 C.ar    1  UNL1       -0.0011
     26 C           5.3715    0.0418   18.5546 C.ar    1  UNL1       -0.0203
     27 C           6.1524    0.2697   19.8147 C.ar    1  UNL1       -0.0011
     28 C           7.2517   -0.6765   20.1973 C.ar    1  UNL1        0.0366
     29 C           8.9080   -3.1245   21.1463 C.3     1  UNL1        0.2525
     30 O           8.6694   -2.7966   19.7022 O.3     1  UNL1       -0.4714
@<TRIPOS>BOND
     1    29    30    1
     2    30    23    1
     3    23    24   ar
     4    24    25   ar
     5    25    26   ar
     6    26    22    1
     7    22    21    1
     8    21     1    1
     9     1     2   am
    10     2     3    2
    11     2     4   am
    12     4    15    1
    13    15    17    1
    14    17    18    1
    15    17    19    2
    16    17    20    2
    17     4     5    1
    18     5     6    1
    19     6     7    1
    20     7     8   ar
    21     8     9   ar
    22     9    10   ar
    23    10    13    1
    24    13    14    1
    25    10    11   ar
    26    11    12   ar
    27    26    27   ar
    28    27    28   ar
    29    28    23   ar
    30     6     1    1
    31    12     7   ar
    32    15    16    1
@<TRIPOS>MOLECULE
*****
 30 32 0 0 0
SMALL
GASTEIGER

@<TRIPOS>ATOM
      1 N           1.0906    0.8525   21.0059 N.am    1  UNL1       -0.2588
      2 C           0.2264    1.7099   21.8822 C.2     1  UNL1        0.3219
      3 O          -1.0877    2.3219   21.4966 O.2     1  UNL1       -0.2510
      4 N           0.9070    1.8480   23.2118 N.am    1  UNL1       -0.1885
      5 C           2.1918    1.0759   23.1572 C.3     1  UNL1        0.1388
      6 C           2.3054    0.4606   21.7939 C.3     1  UNL1        0.1208
      7 C           3.4351   -0.3961   21.3045 C.ar    1  UNL1       -0.0023
      8 C           4.8298    0.1546   21.2613 C.ar    1  UNL1        0.0005
      9 C           5.9596   -0.7022   20.7719 C.ar    1  UNL1        0.0366
     10 C           5.6948   -2.1096   20.3257 C.ar    1  UNL1        0.1387
     11 C           4.3003   -2.6603   20.3689 C.ar    1  UNL1        0.0366
     12 C           3.1705   -1.8036   20.8583 C.ar    1  UNL1        0.0005
     13 O           6.8246   -2.9664   19.8363 O.3     1  UNL1       -0.4714
     14 C           7.9788   -2.3423   19.1095 C.3     1  UNL1        0.2525
     15 N           0.3931    2.6222   24.3892 N.3     1  UNL1       -0.1073
     16 H          -0.6250    2.6094   24.3283 H       1  UNL1        0.1715
     17 S           0.7490    2.1937   25.7818 S.O2    1  UNL1        0.0573
     18 C           1.1050    1.7651   27.1745 C.3     1  UNL1        0.1974
     19 O          -0.2660    1.0921   25.7023 O.2     1  UNL1       -0.1561
     20 O           1.7641    3.2953   25.8613 O.2     1  UNL1       -0.1561
     21 C           0.7925    0.4564   19.5901 C.3     1  UNL1        0.1000
     22 C           1.3992    1.2238   18.4531 C.3     1  UNL1        0.0479
     23 C           5.7038    0.5504   17.3274 C.ar    1  UNL1        0.1387
     24 C           4.6960   -0.5421   17.1254 C.ar    1  UNL1        0.0366
     25 C           3.2612   -0.3176   17.5006 C.ar    1  UNL1       -0.0011
     26 C           2.8341    0.9993   18.0778 C.ar    1  UNL1       -0.0203
     27 C           3.8418    2.0918   18.2798 C.ar    1  UNL1       -0.0011
     28 C           5.2767    1.8674   17.9046 C.ar    1  UNL1        0.0366
     29 C           8.2011    1.2544   17.4613 C.3     1  UNL1        0.2525
     30 O           7.1387    0.3260   16.9522 O.3     1  UNL1       -0.4714
@<TRIPOS>BOND
     1    29    30    1
     2    30    23    1
     3    23    24   ar
     4    24    25   ar
     5    25    26   ar
     6    26    22    1
     7    22    21    1
     8    21     1    1
     9     1     2   am
    10     2     3    2
    11     2     4   am
    12     4    15    1
    13    15    17    1
    14    17    18    1
    15    17    19    2
    16    17    20    2
    17     4     5    1
    18     5     6    1
    19     6     7    1
    20     7     8   ar
    21     8     9   ar
    22     9    10   ar
    23    10    13    1
    24    13    14    1
    25    10    11   ar
    26    11    12   ar
    27    26    27   ar
    28    27    28   ar
    29    28    23   ar
    30     6     1    1
    31    12     7   ar
    32    15    16    1
@<TRIPOS>MOLECULE
*****
 30 32 0 0 0
SMALL
GASTEIGER

@<TRIPOS>ATOM
      1 N           5.4298   -0.9546   19.3524 N.am    1  UNL1       -0.2588
      2 C           6.4523   -1.9498   18.8899 C.2     1  UNL1        0.3219
      3 O           6.8976   -2.1630   17.4734 O.2     1  UNL1       -0.2510
      4 N           6.9516   -2.6945   20.0925 N.am    1  UNL1       -0.1885
      5 C           6.2375   -2.1595   21.2983 C.3     1  UNL1        0.1388
      6 C           5.2970   -1.0842   20.8409 C.3     1  UNL1        0.1208
      7 C           4.3840   -0.2798   21.7180 C.ar    1  UNL1       -0.0023
      8 C           4.3541    1.2152   21.5983 C.ar    1  UNL1        0.0005
      9 C           3.4411    2.0197   22.4754 C.ar    1  UNL1        0.0366
     10 C           2.5581    1.3292   23.4722 C.ar    1  UNL1        0.1387
     11 C           2.5880   -0.1657   23.5919 C.ar    1  UNL1        0.0366
     12 C           3.5010   -0.9701   22.7148 C.ar    1  UNL1        0.0005
     13 O           1.6451    2.1337   24.3493 O.3     1  UNL1       -0.4714
     14 C           0.2002    2.2948   23.9801 C.3     1  UNL1        0.2525
     15 N           7.9836   -3.7830   20.0898 N.3     1  UNL1       -0.1073
     16 H           8.6666   -3.5393   19.3726 H       1  UNL1        0.1715
     17 S           8.7567   -4.0865   21.3388 S.O2    1  UNL1        0.0573
     18 C           9.5299   -4.3901   22.5878 C.3     1  UNL1        0.1974
     19 O           9.5360   -2.8167   21.1651 O.2     1  UNL1       -0.1561
     20 O           7.9774   -5.3565   21.5126 O.2     1  UNL1       -0.1561
     21 C           4.6729    0.0022   18.4797 C.3     1  UNL1        0.1000
     22 C           3.2551   -0.2971   18.0920 C.3     1  UNL1        0.0479
     23 C          -0.1409    1.7167   20.2511 C.ar    1  UNL1        0.1387
     24 C           0.1776    0.2779   20.5309 C.ar    1  UNL1        0.0366
     25 C           1.3096   -0.3934   19.8112 C.ar    1  UNL1       -0.0011
     26 C           2.1231    0.3741   18.8117 C.ar    1  UNL1       -0.0203
     27 C           1.8047    1.8130   18.5320 C.ar    1  UNL1       -0.0011
     28 C           0.6727    2.4843   19.2517 C.ar    1  UNL1        0.0366
     29 C          -2.1768    3.3306   20.2330 C.3     1  UNL1        0.2525
     30 O          -1.2729    2.3880   20.9708 O.3     1  UNL1       -0.4714
@<TRIPOS>BOND
     1    29    30    1
     2    30    23    1
     3    23    24   ar
     4    24    25   ar
     5    25    26   ar
     6    26    22    1
     7    22    21    1
     8    21     1    1
     9     1     2   am
    10     2     3    2
    11     2     4   am
    12     4    15    1
    13    15    17    1
    14    17    18    1
    15    17    19    2
    16    17    20    2
    17     4     5    1
    18     5     6    1
    19     6     7    1
    20     7     8   ar
    21     8     9   ar
    22     9    10   ar
    23    10    13    1
    24    13    14    1
    25    10    11   ar
    26    11    12   ar
    27    26    27   ar
    28    27    28   ar
    29    28    23   ar
    30     6     1    1
    31    12     7   ar
    32    15    16    1
