@<TRIPOS>MOLECULE
*****
 38 43 0 0 0
SMALL
GASTEIGER

@<TRIPOS>ATOM
      1 C           2.4801   -0.8250   19.5334 C.2     1  UNL1       -0.0160
      2 C           1.1204   -0.7580   20.1632 C.2     1  UNL1       -0.0038
      3 C           0.3338    0.5183   20.1155 C.2     1  UNL1        0.0025
      4 C           0.9070    1.7277   19.4379 C.2     1  UNL1        0.0350
      5 C           0.3696    3.1133   19.2344 C.2     1  UNL1        0.1040
      6 N           1.3972    3.9026   18.4787 N.2     1  UNL1       -0.1483
      7 N           2.5697    3.0048   18.2153 N.2     1  UNL1       -0.1520
      8 C           2.2667    1.6606   18.8082 C.2     1  UNL1        0.0864
      9 C           3.0533    0.3843   18.8559 C.3     1  UNL1        0.0739
     10 C           3.1806   -0.1095   24.0243 C.ar    1  UNL1        0.1388
     11 C           3.9293   -0.9202   25.0402 C.ar    1  UNL1        0.0382
     12 C           4.6016   -2.1977   24.6328 C.ar    1  UNL1        0.0178
     13 C           4.5252   -2.6645   23.2094 C.ar    1  UNL1        0.0508
     14 C           3.7766   -1.8539   22.1934 C.ar    1  UNL1        0.0209
     15 C           3.1043   -0.5764   22.6008 C.ar    1  UNL1        0.0383
     16 C           3.8724   -2.5611   20.8740 C.2     1  UNL1        0.0547
     17 C           3.2667   -2.1013   19.5811 C.2     1  UNL1        0.0007
     18 C           4.6803   -3.8089   21.0746 C.2     1  UNL1        0.2495
     19 O           5.0244   -4.8160   20.0176 O.2     1  UNL1       -0.2698
     20 N           5.0838   -3.8728   22.5180 N.am    1  UNL1       -0.2804
     21 H           5.6209   -4.5831   22.9378 H       1  UNL1        0.1552
     22 C           1.0180    1.2119   24.5958 C.3     1  UNL1        0.2525
     23 O           2.5083    1.1680   24.4317 O.3     1  UNL1       -0.4714
     24 C          -0.9617    3.6204   19.7040 C.2     1  UNL1        0.0210
     25 C          -1.3893    3.4001   21.1248 C.2     1  UNL1        0.0031
     26 C          -2.7205    3.9072   21.5945 C.ar    1  UNL1        0.0193
     27 C          -3.9848    3.3178   21.0428 C.ar    1  UNL1        0.0044
     28 C          -5.3160    3.8249   21.5125 C.ar    1  UNL1        0.0343
     29 C          -5.3831    4.9214   22.5339 C.ar    1  UNL1        0.1318
     30 N          -4.1189    5.5108   23.0856 N.ar    1  UNL1       -0.2292
     31 C          -2.7876    5.0038   22.6159 C.ar    1  UNL1        0.1003
     32 N          -6.7143    5.4285   23.0036 N.pl3   1  UNL1       -0.2904
     33 C          -7.1890    6.7885   22.5853 C.3     1  UNL1        0.1095
     34 C          -8.5203    7.2956   23.0550 C.3     1  UNL1        0.0939
     35 N          -9.3768    6.4426   23.9431 N.3     1  UNL1       -0.2686
     36 C         -10.7081    6.9497   24.4128 C.3     1  UNL1        0.0897
     37 C          -8.9021    5.0826   24.3614 C.3     1  UNL1        0.0939
     38 C          -7.5709    4.5755   23.8917 C.3     1  UNL1        0.1095
@<TRIPOS>BOND
     1    22    23    1
     2    23    10    1
     3    10    11   ar
     4    11    12   ar
     5    12    13   ar
     6    13    14   ar
     7    14    15   ar
     8    14    16    1
     9    16    17    2
    10    17     1    1
    11     1     2    2
    12     2     3    1
    13     3     4    2
    14     4     5    1
    15     5    24    1
    16    24    25    2
    17    25    26    1
    18    26    27   ar
    19    27    28   ar
    20    28    29   ar
    21    29    32    1
    22    32    33    1
    23    33    34    1
    24    34    35    1
    25    35    36    1
    26    35    37    1
    27    37    38    1
    28    29    30   ar
    29    30    31   ar
    30     5     6    2
    31     6     7    1
    32     7     8    2
    33     8     9    1
    34    16    18    1
    35    18    19    2
    36    18    20   am
    37    15    10   ar
    38     9     1    1
    39    20    13    1
    40     8     4    1
    41    31    26   ar
    42    38    32    1
    43    20    21    1
@<TRIPOS>MOLECULE
*****
 38 43 0 0 0
SMALL
GASTEIGER

@<TRIPOS>ATOM
      1 C          -4.4867    4.9450   25.8307 C.2     1  UNL1       -0.0160
      2 C          -3.8743    3.6194   26.1739 C.2     1  UNL1       -0.0038
      3 C          -2.4604    3.5524   26.6704 C.2     1  UNL1        0.0025
      4 C          -1.6590    4.8111   26.8237 C.2     1  UNL1        0.0350
      5 C          -0.2533    5.0558   27.2867 C.2     1  UNL1        0.1040
      6 N           0.0030    6.5326   27.2295 N.2     1  UNL1       -0.1483
      7 N          -1.2442    7.2007   26.7313 N.2     1  UNL1       -0.1520
      8 C          -2.2714    6.1366   26.4805 C.2     1  UNL1        0.0864
      9 C          -3.6853    6.2036   25.9840 C.3     1  UNL1        0.0739
     10 C          -2.9909    3.6097   21.6894 C.ar    1  UNL1        0.1388
     11 C          -3.7355    3.3690   20.4097 C.ar    1  UNL1        0.0382
     12 C          -5.2215    3.5669   20.3581 C.ar    1  UNL1        0.0178
     13 C          -5.9629    4.0053   21.5861 C.ar    1  UNL1        0.0508
     14 C          -5.2183    4.2459   22.8657 C.ar    1  UNL1        0.0209
     15 C          -3.7323    4.0481   22.9174 C.ar    1  UNL1        0.0383
     16 C          -6.2113    4.6696   23.9072 C.2     1  UNL1        0.0547
     17 C          -5.9005    5.0120   25.3342 C.2     1  UNL1        0.0007
     18 C          -7.5695    4.6909   23.2711 C.2     1  UNL1        0.2495
     19 O          -8.8556    5.0582   23.9503 O.2     1  UNL1       -0.2698
     20 N          -7.4160    4.2803   21.8366 N.am    1  UNL1       -0.2804
     21 H          -8.1416    4.2046   21.1755 H       1  UNL1        0.1552
     22 C          -0.8173    2.6116   20.6749 C.3     1  UNL1        0.2525
     23 O          -1.5049    3.4119   21.7411 O.3     1  UNL1       -0.4714
     24 C           0.7243    4.0076   27.7290 C.2     1  UNL1        0.0210
     25 C           0.4472    3.1952   28.9591 C.2     1  UNL1        0.0031
     26 C           1.4247    2.1470   29.4015 C.ar    1  UNL1        0.0193
     27 C           2.8935    2.4512   29.4200 C.ar    1  UNL1        0.0044
     28 C           3.8710    1.4031   29.8624 C.ar    1  UNL1        0.0343
     29 C           3.3798    0.0506   30.2864 C.ar    1  UNL1        0.1318
     30 N           1.9111   -0.2537   30.2679 N.ar    1  UNL1       -0.2292
     31 C           0.9336    0.7945   29.8254 C.ar    1  UNL1        0.1003
     32 N           4.3573   -0.9976   30.7288 N.pl3   1  UNL1       -0.2904
     33 C           4.2610   -1.5784   32.1084 C.3     1  UNL1        0.1095
     34 C           5.2385   -2.6266   32.5508 C.3     1  UNL1        0.0939
     35 N           6.3124   -3.0940   31.6136 N.3     1  UNL1       -0.2686
     36 C           7.2899   -4.1421   32.0560 C.3     1  UNL1        0.0897
     37 C           6.4087   -2.5132   30.2339 C.3     1  UNL1        0.0939
     38 C           5.4312   -1.4650   29.7915 C.3     1  UNL1        0.1095
@<TRIPOS>BOND
     1    22    23    1
     2    23    10    1
     3    10    11   ar
     4    11    12   ar
     5    12    13   ar
     6    13    14   ar
     7    14    15   ar
     8    14    16    1
     9    16    17    2
    10    17     1    1
    11     1     2    2
    12     2     3    1
    13     3     4    2
    14     4     5    1
    15     5    24    1
    16    24    25    2
    17    25    26    1
    18    26    27   ar
    19    27    28   ar
    20    28    29   ar
    21    29    32    1
    22    32    33    1
    23    33    34    1
    24    34    35    1
    25    35    36    1
    26    35    37    1
    27    37    38    1
    28    29    30   ar
    29    30    31   ar
    30     5     6    2
    31     6     7    1
    32     7     8    2
    33     8     9    1
    34    16    18    1
    35    18    19    2
    36    18    20   am
    37    15    10   ar
    38     9     1    1
    39    20    13    1
    40     8     4    1
    41    31    26   ar
    42    38    32    1
    43    20    21    1
@<TRIPOS>MOLECULE
*****
 38 43 0 0 0
SMALL
GASTEIGER

@<TRIPOS>ATOM
      1 C           2.8445   -1.1728   21.3707 C.2     1  UNL1       -0.0160
      2 C           3.3459   -1.0756   22.7811 C.2     1  UNL1       -0.0038
      3 C           2.7247   -0.0959   23.7320 C.2     1  UNL1        0.0025
      4 C           1.6020    0.7865   23.2725 C.2     1  UNL1        0.0350
      5 C           0.7994    1.8391   23.9782 C.2     1  UNL1        0.1040
      6 N          -0.1980    2.3923   23.0040 N.2     1  UNL1       -0.1483
      7 N          -0.0118    1.6817   21.6961 N.2     1  UNL1       -0.1520
      8 C           1.1007    0.6892   21.8621 C.2     1  UNL1        0.0864
      9 C           1.7219   -0.2905   20.9112 C.3     1  UNL1        0.0739
     10 C           5.7627    2.1244   20.0356 C.ar    1  UNL1        0.1388
     11 C           6.8700    2.1018   19.0240 C.ar    1  UNL1        0.0382
     12 C           7.1627    0.8443   18.2605 C.ar    1  UNL1        0.0178
     13 C           6.3481   -0.3906   18.5085 C.ar    1  UNL1        0.0508
     14 C           5.2408   -0.3679   19.5201 C.ar    1  UNL1        0.0209
     15 C           4.9481    0.8896   20.2837 C.ar    1  UNL1        0.0383
     16 C           4.6119   -1.7295   19.5496 C.2     1  UNL1        0.0547
     17 C           3.4657   -2.1525   20.4197 C.2     1  UNL1        0.0007
     18 C           5.3306   -2.5936   18.5563 C.2     1  UNL1        0.2495
     19 O           5.0293   -4.0326   18.2586 O.2     1  UNL1       -0.2698
     20 N           6.4036   -1.7661   17.9128 N.am    1  UNL1       -0.2804
     21 H           7.0337   -2.0721   17.2210 H       1  UNL1        0.1552
     22 C           4.1719    3.5267   21.5365 C.3     1  UNL1        0.2525
     23 O           5.4701    3.3819   20.7992 O.3     1  UNL1       -0.4714
     24 C           0.9652    2.2638   25.4073 C.2     1  UNL1        0.0210
     25 C           0.5758    1.3321   26.5164 C.2     1  UNL1        0.0031
     26 C           0.7415    1.7567   27.9455 C.ar    1  UNL1        0.0193
     27 C           1.3667    3.0819   28.2665 C.ar    1  UNL1        0.0044
     28 C           1.5325    3.5065   29.6955 C.ar    1  UNL1        0.0343
     29 C           1.0730    2.6059   30.8037 C.ar    1  UNL1        0.1318
     30 N           0.4478    1.2807   30.4827 N.ar    1  UNL1       -0.2292
     31 C           0.2820    0.8561   29.0537 C.ar    1  UNL1        0.1003
     32 N           1.2387    3.0305   32.2328 N.pl3   1  UNL1       -0.2904
     33 C           2.0248    2.1762   33.1827 C.3     1  UNL1        0.1095
     34 C           2.1906    2.6007   34.6117 C.3     1  UNL1        0.0939
     35 N           1.5702    3.8796   35.0909 N.3     1  UNL1       -0.2686
     36 C           1.7360    4.3042   36.5199 C.3     1  UNL1        0.0897
     37 C           0.7842    4.7339   34.1410 C.3     1  UNL1        0.0939
     38 C           0.6184    4.3094   32.7119 C.3     1  UNL1        0.1095
@<TRIPOS>BOND
     1    22    23    1
     2    23    10    1
     3    10    11   ar
     4    11    12   ar
     5    12    13   ar
     6    13    14   ar
     7    14    15   ar
     8    14    16    1
     9    16    17    2
    10    17     1    1
    11     1     2    2
    12     2     3    1
    13     3     4    2
    14     4     5    1
    15     5    24    1
    16    24    25    2
    17    25    26    1
    18    26    27   ar
    19    27    28   ar
    20    28    29   ar
    21    29    32    1
    22    32    33    1
    23    33    34    1
    24    34    35    1
    25    35    36    1
    26    35    37    1
    27    37    38    1
    28    29    30   ar
    29    30    31   ar
    30     5     6    2
    31     6     7    1
    32     7     8    2
    33     8     9    1
    34    16    18    1
    35    18    19    2
    36    18    20   am
    37    15    10   ar
    38     9     1    1
    39    20    13    1
    40     8     4    1
    41    31    26   ar
    42    38    32    1
    43    20    21    1
@<TRIPOS>MOLECULE
*****
 38 43 0 0 0
SMALL
GASTEIGER

@<TRIPOS>ATOM
      1 C         -13.7974   -3.6045   19.0572 C.2     1  UNL1       -0.0160
      2 C         -13.9945   -3.1374   20.4689 C.2     1  UNL1       -0.0038
      3 C         -14.9013   -1.9774   20.7554 C.2     1  UNL1        0.0025
      4 C         -15.6112   -1.2846   19.6301 C.2     1  UNL1        0.0350
      5 C         -16.5598   -0.1229   19.6058 C.2     1  UNL1        0.1040
      6 N         -16.9490    0.1279   18.1790 N.2     1  UNL1       -0.1483
      7 N         -16.2410   -0.8788   17.3216 N.2     1  UNL1       -0.1520
      8 C         -15.4141   -1.7518   18.2185 C.2     1  UNL1        0.0864
      9 C         -14.5072   -2.9118   17.9320 C.3     1  UNL1        0.0739
     10 C         -17.4069   -6.4174   19.5368 C.ar    1  UNL1        0.1388
     11 C         -17.5076   -7.9097   19.4244 C.ar    1  UNL1        0.0382
     12 C         -16.2874   -8.7218   19.1055 C.ar    1  UNL1        0.0178
     13 C         -14.9666   -8.0416   18.8990 C.ar    1  UNL1        0.0508
     14 C         -14.8660   -6.5492   19.0114 C.ar    1  UNL1        0.0209
     15 C         -16.0862   -5.7371   19.3303 C.ar    1  UNL1        0.0383
     16 C         -13.4396   -6.1604   18.7576 C.2     1  UNL1        0.0547
     17 C         -12.8906   -4.7645   18.7707 C.2     1  UNL1        0.0007
     18 C         -12.6588   -7.4124   18.4884 C.2     1  UNL1        0.2495
     19 O         -11.1917   -7.4886   18.1850 O.2     1  UNL1       -0.2698
     20 N         -13.6025   -8.5751   18.5758 N.am    1  UNL1       -0.2804
     21 H         -13.3678   -9.5221   18.4441 H       1  UNL1        0.1552
     22 C         -18.6721   -4.1484   19.5014 C.3     1  UNL1        0.2525
     23 O         -18.6271   -5.6053   19.8557 O.3     1  UNL1       -0.4714
     24 C         -17.0356    0.6519   20.7988 C.2     1  UNL1        0.0210
     25 C         -16.7253    2.1149   20.9153 C.2     1  UNL1        0.0031
     26 C         -17.2011    2.8897   22.1083 C.ar    1  UNL1        0.0193
     27 C         -16.3048    3.9092   22.7465 C.ar    1  UNL1        0.0044
     28 C         -16.7805    4.6841   23.9395 C.ar    1  UNL1        0.0343
     29 C         -18.1526    4.4395   24.4943 C.ar    1  UNL1        0.1318
     30 N         -19.0489    3.4200   23.8560 N.ar    1  UNL1       -0.2292
     31 C         -18.5732    2.6452   22.6630 C.ar    1  UNL1        0.1003
     32 N         -18.6283    5.2144   25.6873 N.pl3   1  UNL1       -0.2904
     33 C         -19.9852    4.9423   26.2659 C.3     1  UNL1        0.1095
     34 C         -20.4609    5.7172   27.4589 C.3     1  UNL1        0.0939
     35 N         -19.5798    6.7641   28.0732 N.3     1  UNL1       -0.2686
     36 C         -20.0555    7.5390   29.2662 C.3     1  UNL1        0.0897
     37 C         -18.2229    7.0362   27.4946 C.3     1  UNL1        0.0939
     38 C         -17.7471    6.2613   26.3016 C.3     1  UNL1        0.1095
@<TRIPOS>BOND
     1    22    23    1
     2    23    10    1
     3    10    11   ar
     4    11    12   ar
     5    12    13   ar
     6    13    14   ar
     7    14    15   ar
     8    14    16    1
     9    16    17    2
    10    17     1    1
    11     1     2    2
    12     2     3    1
    13     3     4    2
    14     4     5    1
    15     5    24    1
    16    24    25    2
    17    25    26    1
    18    26    27   ar
    19    27    28   ar
    20    28    29   ar
    21    29    32    1
    22    32    33    1
    23    33    34    1
    24    34    35    1
    25    35    36    1
    26    35    37    1
    27    37    38    1
    28    29    30   ar
    29    30    31   ar
    30     5     6    2
    31     6     7    1
    32     7     8    2
    33     8     9    1
    34    16    18    1
    35    18    19    2
    36    18    20   am
    37    15    10   ar
    38     9     1    1
    39    20    13    1
    40     8     4    1
    41    31    26   ar
    42    38    32    1
    43    20    21    1
@<TRIPOS>MOLECULE
*****
 38 43 0 0 0
SMALL
GASTEIGER

@<TRIPOS>ATOM
      1 C           2.6779    3.4850   32.4580 C.2     1  UNL1       -0.0160
      2 C           3.5238    3.3871   31.2231 C.2     1  UNL1       -0.0038
      3 C           3.0044    2.6685   30.0132 C.2     1  UNL1        0.0025
      4 C           1.6390    2.0478   30.0383 C.2     1  UNL1        0.0350
      5 C           0.8655    1.2821   29.0060 C.2     1  UNL1        0.1040
      6 N          -0.4584    0.9068   29.6029 N.2     1  UNL1       -0.1483
      7 N          -0.5031    1.4405   31.0041 N.2     1  UNL1       -0.1520
      8 C           0.7932    2.1457   31.2731 C.2     1  UNL1        0.0864
      9 C           1.3126    2.8643   32.4830 C.3     1  UNL1        0.0739
     10 C           4.1477   -0.5529   34.1030 C.ar    1  UNL1        0.1388
     11 C           4.8618   -0.8896   35.3784 C.ar    1  UNL1        0.0382
     12 C           5.2042    0.1960   36.3553 C.ar    1  UNL1        0.0178
     13 C           4.8325    1.6182   36.0568 C.ar    1  UNL1        0.0508
     14 C           4.1184    1.9549   34.7815 C.ar    1  UNL1        0.0209
     15 C           3.7760    0.8693   33.8045 C.ar    1  UNL1        0.0383
     16 C           3.8817    3.4360   34.7598 C.2     1  UNL1        0.0547
     17 C           3.1973    4.2036   33.6679 C.2     1  UNL1        0.0007
     18 C           4.4495    4.0146   36.0219 C.2     1  UNL1        0.2495
     19 O           4.4326    5.4625   36.4136 O.2     1  UNL1       -0.2698
     20 N           5.0371    2.8911   36.8235 N.am    1  UNL1       -0.2804
     21 H           5.4795    2.9746   37.6990 H       1  UNL1        0.1552
     22 C           4.7584   -2.7749   32.9032 C.3     1  UNL1        0.2525
     23 O           3.8052   -1.6384   33.1261 O.3     1  UNL1       -0.4714
     24 C           1.3339    0.9501   27.6202 C.2     1  UNL1        0.0210
     25 C           0.6031    1.4979   26.4303 C.2     1  UNL1        0.0031
     26 C           1.0713    1.1659   25.0445 C.ar    1  UNL1        0.0193
     27 C           0.3247    1.6917   23.8544 C.ar    1  UNL1        0.0044
     28 C           0.7929    1.3598   22.4686 C.ar    1  UNL1        0.0343
     29 C           2.0079    0.5020   22.2728 C.ar    1  UNL1        0.1318
     30 N           2.7545   -0.0237   23.4628 N.ar    1  UNL1       -0.2292
     31 C           2.2863    0.3082   24.8486 C.ar    1  UNL1        0.1003
     32 N           2.4761    0.1701   20.8869 N.pl3   1  UNL1       -0.2904
     33 C           2.3202    1.1728   19.7823 C.3     1  UNL1        0.1095
     34 C           2.7885    0.8409   18.3964 C.3     1  UNL1        0.0939
     35 N           3.4126   -0.4938   18.1153 N.3     1  UNL1       -0.2686
     36 C           3.8809   -0.8257   16.7295 C.3     1  UNL1        0.0897
     37 C           3.5686   -1.4965   19.2200 C.3     1  UNL1        0.0939
     38 C           3.1003   -1.1646   20.6058 C.3     1  UNL1        0.1095
@<TRIPOS>BOND
     1    22    23    1
     2    23    10    1
     3    10    11   ar
     4    11    12   ar
     5    12    13   ar
     6    13    14   ar
     7    14    15   ar
     8    14    16    1
     9    16    17    2
    10    17     1    1
    11     1     2    2
    12     2     3    1
    13     3     4    2
    14     4     5    1
    15     5    24    1
    16    24    25    2
    17    25    26    1
    18    26    27   ar
    19    27    28   ar
    20    28    29   ar
    21    29    32    1
    22    32    33    1
    23    33    34    1
    24    34    35    1
    25    35    36    1
    26    35    37    1
    27    37    38    1
    28    29    30   ar
    29    30    31   ar
    30     5     6    2
    31     6     7    1
    32     7     8    2
    33     8     9    1
    34    16    18    1
    35    18    19    2
    36    18    20   am
    37    15    10   ar
    38     9     1    1
    39    20    13    1
    40     8     4    1
    41    31    26   ar
    42    38    32    1
    43    20    21    1
@<TRIPOS>MOLECULE
*****
 38 43 0 0 0
SMALL
GASTEIGER

@<TRIPOS>ATOM
      1 C           5.2770    1.9290   18.3308 C.2     1  UNL1       -0.0160
      2 C           5.7542    1.8294   19.7494 C.2     1  UNL1       -0.0038
      3 C           6.0936    0.4905   20.3343 C.2     1  UNL1        0.0025
      4 C           5.9558   -0.7488   19.5005 C.2     1  UNL1        0.0350
      5 C           6.2140   -2.1954   19.8022 C.2     1  UNL1        0.1040
      6 N           5.8964   -2.9897   18.5701 N.2     1  UNL1       -0.1483
      7 N           5.4420   -2.0342   17.5069 N.2     1  UNL1       -0.1520
      8 C           5.4787   -0.6492   18.0820 C.2     1  UNL1        0.0864
      9 C           5.1393    0.6897   17.4971 C.3     1  UNL1        0.0739
     10 C           0.9784    1.4086   19.8869 C.ar    1  UNL1        0.1388
     11 C          -0.2166    2.3093   19.7834 C.ar    1  UNL1        0.0382
     12 C          -0.1040    3.6262   19.0742 C.ar    1  UNL1        0.0178
     13 C           1.2035    4.0425   18.4685 C.ar    1  UNL1        0.0508
     14 C           2.3985    3.1419   18.5721 C.ar    1  UNL1        0.0209
     15 C           2.2860    1.8249   19.2812 C.ar    1  UNL1        0.0383
     16 C           3.5477    3.8153   17.8820 C.2     1  UNL1        0.0547
     17 C           4.9376    3.2679   17.7459 C.2     1  UNL1        0.0007
     18 C           3.0629    5.1321   17.3521 C.2     1  UNL1        0.2495
     19 O           3.8828    6.1329   16.5929 O.2     1  UNL1       -0.2698
     20 N           1.6141    5.2726   17.7146 N.am    1  UNL1       -0.2804
     21 H           1.0344    6.0377   17.4960 H       1  UNL1        0.1552
     22 C           1.9703   -0.9171   20.4845 C.3     1  UNL1        0.2525
     23 O           0.8658    0.0917   20.5961 O.3     1  UNL1       -0.4714
     24 C           6.7038   -2.7500   21.1071 C.2     1  UNL1        0.0210
     25 C           5.7356   -3.0059   22.2238 C.2     1  UNL1        0.0031
     26 C           6.2253   -3.5606   23.5286 C.ar    1  UNL1        0.0193
     27 C           7.0950   -4.7826   23.5450 C.ar    1  UNL1        0.0044
     28 C           7.5847   -5.3372   24.8498 C.ar    1  UNL1        0.0343
     29 C           7.2046   -4.6698   26.1383 C.ar    1  UNL1        0.1318
     30 N           6.3349   -3.4478   26.1220 N.ar    1  UNL1       -0.2292
     31 C           5.8452   -2.8932   24.8171 C.ar    1  UNL1        0.1003
     32 N           7.6943   -5.2244   27.4431 N.pl3   1  UNL1       -0.2904
     33 C           6.8320   -5.1344   28.6672 C.3     1  UNL1        0.1095
     34 C           7.3217   -5.6890   29.9720 C.3     1  UNL1        0.0939
     35 N           8.6737   -6.3337   30.0528 N.3     1  UNL1       -0.2686
     36 C           9.1634   -6.8883   31.3576 C.3     1  UNL1        0.0897
     37 C           9.5360   -6.4237   28.8287 C.3     1  UNL1        0.0939
     38 C           9.0463   -5.8691   27.5239 C.3     1  UNL1        0.1095
@<TRIPOS>BOND
     1    22    23    1
     2    23    10    1
     3    10    11   ar
     4    11    12   ar
     5    12    13   ar
     6    13    14   ar
     7    14    15   ar
     8    14    16    1
     9    16    17    2
    10    17     1    1
    11     1     2    2
    12     2     3    1
    13     3     4    2
    14     4     5    1
    15     5    24    1
    16    24    25    2
    17    25    26    1
    18    26    27   ar
    19    27    28   ar
    20    28    29   ar
    21    29    32    1
    22    32    33    1
    23    33    34    1
    24    34    35    1
    25    35    36    1
    26    35    37    1
    27    37    38    1
    28    29    30   ar
    29    30    31   ar
    30     5     6    2
    31     6     7    1
    32     7     8    2
    33     8     9    1
    34    16    18    1
    35    18    19    2
    36    18    20   am
    37    15    10   ar
    38     9     1    1
    39    20    13    1
    40     8     4    1
    41    31    26   ar
    42    38    32    1
    43    20    21    1
@<TRIPOS>MOLECULE
*****
 38 43 0 0 0
SMALL
GASTEIGER

@<TRIPOS>ATOM
      1 C           5.7098   -3.4198   20.2919 C.2     1  UNL1       -0.0160
      2 C           4.3516   -3.0374   20.8008 C.2     1  UNL1       -0.0038
      3 C           3.5582   -1.9767   20.0970 C.2     1  UNL1        0.0025
      4 C           4.1232   -1.2983   18.8842 C.2     1  UNL1        0.0350
      5 C           3.5780   -0.2251   17.9891 C.2     1  UNL1        0.1040
      6 N           4.5994    0.0557   16.9271 N.2     1  UNL1       -0.1483
      7 N           5.7758   -0.8438   17.1658 N.2     1  UNL1       -0.1520
      8 C           5.4814   -1.6807   18.3754 C.2     1  UNL1        0.0864
      9 C           6.2748   -2.7414   19.0792 C.3     1  UNL1        0.0739
     10 C           7.4518   -0.1597   23.0319 C.ar    1  UNL1        0.1388
     11 C           8.4328   -0.2518   24.1628 C.ar    1  UNL1        0.0382
     12 C           9.0066   -1.5822   24.5514 C.ar    1  UNL1        0.0178
     13 C           8.5993   -2.8203   23.8091 C.ar    1  UNL1        0.0508
     14 C           7.6183   -2.7281   22.6782 C.ar    1  UNL1        0.0209
     15 C           7.0445   -1.3978   22.2896 C.ar    1  UNL1        0.0383
     16 C           7.4065   -4.1100   22.1344 C.2     1  UNL1        0.0547
     17 C           6.5032   -4.4806   20.9957 C.2     1  UNL1        0.0007
     18 C           8.2566   -5.0562   22.9293 C.2     1  UNL1        0.2495
     19 O           8.3528   -6.5392   22.7251 O.2     1  UNL1       -0.2698
     20 N           8.9938   -4.2591   23.9644 N.am    1  UNL1       -0.2804
     21 H           9.6257   -4.6174   24.6289 H       1  UNL1        0.1552
     22 C           6.7171    1.5236   21.1943 C.3     1  UNL1        0.2525
     23 O           6.8780    1.1707   22.6432 O.3     1  UNL1       -0.4714
     24 C           2.2455    0.4488   18.1312 C.2     1  UNL1        0.0210
     25 C           1.9964    1.3837   19.2775 C.2     1  UNL1        0.0031
     26 C           0.6639    2.0576   19.4197 C.ar    1  UNL1        0.0193
     27 C           0.1840    3.0022   18.3578 C.ar    1  UNL1        0.0044
     28 C          -1.1485    3.6762   18.5000 C.ar    1  UNL1        0.0343
     29 C          -2.0012    3.4055   19.7041 C.ar    1  UNL1        0.1318
     30 N          -1.5213    2.4609   20.7659 N.ar    1  UNL1       -0.2292
     31 C          -0.1888    1.7870   20.6238 C.ar    1  UNL1        0.1003
     32 N          -3.3337    4.0795   19.8463 N.pl3   1  UNL1       -0.2904
     33 C          -3.5817    5.3994   19.1782 C.3     1  UNL1        0.1095
     34 C          -4.9142    6.0733   19.3204 C.3     1  UNL1        0.0939
     35 N          -5.9987    5.4273   20.1306 N.3     1  UNL1       -0.2686
     36 C          -7.3312    6.1012   20.2728 C.3     1  UNL1        0.0897
     37 C          -5.7507    4.1074   20.7987 C.3     1  UNL1        0.0939
     38 C          -4.4182    3.4335   20.6565 C.3     1  UNL1        0.1095
@<TRIPOS>BOND
     1    22    23    1
     2    23    10    1
     3    10    11   ar
     4    11    12   ar
     5    12    13   ar
     6    13    14   ar
     7    14    15   ar
     8    14    16    1
     9    16    17    2
    10    17     1    1
    11     1     2    2
    12     2     3    1
    13     3     4    2
    14     4     5    1
    15     5    24    1
    16    24    25    2
    17    25    26    1
    18    26    27   ar
    19    27    28   ar
    20    28    29   ar
    21    29    32    1
    22    32    33    1
    23    33    34    1
    24    34    35    1
    25    35    36    1
    26    35    37    1
    27    37    38    1
    28    29    30   ar
    29    30    31   ar
    30     5     6    2
    31     6     7    1
    32     7     8    2
    33     8     9    1
    34    16    18    1
    35    18    19    2
    36    18    20   am
    37    15    10   ar
    38     9     1    1
    39    20    13    1
    40     8     4    1
    41    31    26   ar
    42    38    32    1
    43    20    21    1
@<TRIPOS>MOLECULE
*****
 38 43 0 0 0
SMALL
GASTEIGER

@<TRIPOS>ATOM
      1 C           5.2097   -1.2301   26.6632 C.2     1  UNL1       -0.0160
      2 C           6.1729   -0.6995   27.6833 C.2     1  UNL1       -0.0038
      3 C           5.6769   -0.2759   29.0341 C.2     1  UNL1        0.0025
      4 C           4.2177   -0.3830   29.3647 C.2     1  UNL1        0.0350
      5 C           3.4417   -0.0453   30.6032 C.2     1  UNL1        0.1040
      6 N           1.9990   -0.3672   30.3484 N.2     1  UNL1       -0.1483
      7 N           1.8833   -0.9038   28.9525 N.2     1  UNL1       -0.1520
      8 C           3.2546   -0.9136   28.3445 C.2     1  UNL1        0.0864
      9 C           3.7506   -1.3372   26.9937 C.3     1  UNL1        0.0739
     10 C           6.8402   -5.0825   28.5793 C.ar    1  UNL1        0.1388
     11 C           7.5716   -6.2438   27.9742 C.ar    1  UNL1        0.0382
     12 C           7.8757   -6.2557   26.5054 C.ar    1  UNL1        0.0178
     13 C           7.4484   -5.1062   25.6417 C.ar    1  UNL1        0.0508
     14 C           6.7170   -3.9448   26.2468 C.ar    1  UNL1        0.0209
     15 C           6.4129   -3.9329   27.7156 C.ar    1  UNL1        0.0383
     16 C           6.4233   -2.9611   25.1530 C.2     1  UNL1        0.0547
     17 C           5.7057   -1.6536   25.3124 C.2     1  UNL1        0.0007
     18 C           6.9733   -3.5146   23.8719 C.2     1  UNL1        0.2495
     19 O           6.9022   -2.8578   22.5252 O.2     1  UNL1       -0.2698
     20 N           7.6068   -4.8403   24.1740 N.am    1  UNL1       -0.2804
     21 H           8.0490   -5.4320   23.5231 H       1  UNL1        0.1552
     22 C           7.3184   -5.9445   30.9830 C.3     1  UNL1        0.2525
     23 O           6.5360   -5.0706   30.0481 O.3     1  UNL1       -0.4714
     24 C           4.0090    0.5158   31.8734 C.2     1  UNL1        0.0210
     25 C           3.8664   -0.2445   33.1586 C.2     1  UNL1        0.0031
     26 C           4.4336    0.3165   34.4288 C.ar    1  UNL1        0.0193
     27 C           5.3719   -0.5078   35.2595 C.ar    1  UNL1        0.0044
     28 C           5.9392    0.0532   36.5297 C.ar    1  UNL1        0.0343
     29 C           5.5682    1.4386   36.9692 C.ar    1  UNL1        0.1318
     30 N           4.6299    2.2630   36.1385 N.ar    1  UNL1       -0.2292
     31 C           4.0626    1.7020   34.8683 C.ar    1  UNL1        0.1003
     32 N           6.1354    1.9996   38.2394 N.pl3   1  UNL1       -0.2904
     33 C           7.6072    1.9001   38.5119 C.3     1  UNL1        0.1095
     34 C           8.1744    2.4611   39.7821 C.3     1  UNL1        0.0939
     35 N           7.2700    3.1217   40.7799 N.3     1  UNL1       -0.2686
     36 C           7.8372    3.6827   42.0501 C.3     1  UNL1        0.0897
     37 C           5.7983    3.2212   40.5075 C.3     1  UNL1        0.0939
     38 C           5.2310    2.6602   39.2372 C.3     1  UNL1        0.1095
@<TRIPOS>BOND
     1    22    23    1
     2    23    10    1
     3    10    11   ar
     4    11    12   ar
     5    12    13   ar
     6    13    14   ar
     7    14    15   ar
     8    14    16    1
     9    16    17    2
    10    17     1    1
    11     1     2    2
    12     2     3    1
    13     3     4    2
    14     4     5    1
    15     5    24    1
    16    24    25    2
    17    25    26    1
    18    26    27   ar
    19    27    28   ar
    20    28    29   ar
    21    29    32    1
    22    32    33    1
    23    33    34    1
    24    34    35    1
    25    35    36    1
    26    35    37    1
    27    37    38    1
    28    29    30   ar
    29    30    31   ar
    30     5     6    2
    31     6     7    1
    32     7     8    2
    33     8     9    1
    34    16    18    1
    35    18    19    2
    36    18    20   am
    37    15    10   ar
    38     9     1    1
    39    20    13    1
    40     8     4    1
    41    31    26   ar
    42    38    32    1
    43    20    21    1
@<TRIPOS>MOLECULE
*****
 38 43 0 0 0
SMALL
GASTEIGER

@<TRIPOS>ATOM
      1 C           4.9916   -2.6501   20.5964 C.2     1  UNL1       -0.0160
      2 C           4.4655   -2.0259   21.8548 C.2     1  UNL1       -0.0038
      3 C           4.9883   -2.4713   23.1883 C.2     1  UNL1        0.0025
      4 C           6.0372   -3.5411   23.2634 C.2     1  UNL1        0.0350
      5 C           6.7377   -4.1801   24.4257 C.2     1  UNL1        0.1040
      6 N           7.6966   -5.1993   23.8857 N.2     1  UNL1       -0.1483
      7 N           7.5889   -5.1901   22.3896 N.2     1  UNL1       -0.1520
      8 C           6.5632   -4.1652   22.0050 C.2     1  UNL1        0.0864
      9 C           6.0404   -3.7198   20.6715 C.3     1  UNL1        0.0739
     10 C           8.6371    0.1299   20.2067 C.ar    1  UNL1        0.1388
     11 C           9.0365    1.0739   19.1116 C.ar    1  UNL1        0.0382
     12 C           8.1754    1.2145   17.8915 C.ar    1  UNL1        0.0178
     13 C           6.9150    0.4111   17.7664 C.ar    1  UNL1        0.0508
     14 C           6.5156   -0.5329   18.8615 C.ar    1  UNL1        0.0209
     15 C           7.3766   -0.6735   20.0817 C.ar    1  UNL1        0.0383
     16 C           5.2271   -1.1887   18.4613 C.2     1  UNL1        0.0547
     17 C           4.4688   -2.2047   19.2629 C.2     1  UNL1        0.0007
     18 C           4.8303   -0.6499   17.1188 C.2     1  UNL1        0.2495
     19 O           3.6054   -1.0326   16.3421 O.2     1  UNL1       -0.2698
     20 N           5.8735    0.3388   16.6894 N.am    1  UNL1       -0.2804
     21 H           5.8744    0.8504   15.8483 H       1  UNL1        0.1552
     22 C           9.3057   -1.1768   22.3504 C.3     1  UNL1        0.2525
     23 O           9.4981   -0.0106   21.4269 O.3     1  UNL1       -0.4714
     24 C           6.5177   -3.8567   25.8739 C.2     1  UNL1        0.0210
     25 C           6.6753   -2.4463   26.3596 C.2     1  UNL1        0.0031
     26 C           6.4553   -2.1228   27.8076 C.ar    1  UNL1        0.0193
     27 C           6.6852   -3.1727   28.8540 C.ar    1  UNL1        0.0044
     28 C           6.4652   -2.8491   30.3021 C.ar    1  UNL1        0.0343
     29 C           6.0153   -1.4757   30.7038 C.ar    1  UNL1        0.1318
     30 N           5.7854   -0.4258   29.6575 N.ar    1  UNL1       -0.2292
     31 C           6.0054   -0.7493   28.2094 C.ar    1  UNL1        0.1003
     32 N           5.7954   -1.1522   32.1519 N.pl3   1  UNL1       -0.2904
     33 C           4.5539   -1.6279   32.8465 C.3     1  UNL1        0.1095
     34 C           4.3339   -1.3044   34.2946 C.3     1  UNL1        0.0939
     35 N           5.3554   -0.5052   35.0481 N.3     1  UNL1       -0.2686
     36 C           5.1354   -0.1816   36.4961 C.3     1  UNL1        0.0897
     37 C           6.5969   -0.0294   34.3535 C.3     1  UNL1        0.0939
     38 C           6.8169   -0.3530   32.9054 C.3     1  UNL1        0.1095
@<TRIPOS>BOND
     1    22    23    1
     2    23    10    1
     3    10    11   ar
     4    11    12   ar
     5    12    13   ar
     6    13    14   ar
     7    14    15   ar
     8    14    16    1
     9    16    17    2
    10    17     1    1
    11     1     2    2
    12     2     3    1
    13     3     4    2
    14     4     5    1
    15     5    24    1
    16    24    25    2
    17    25    26    1
    18    26    27   ar
    19    27    28   ar
    20    28    29   ar
    21    29    32    1
    22    32    33    1
    23    33    34    1
    24    34    35    1
    25    35    36    1
    26    35    37    1
    27    37    38    1
    28    29    30   ar
    29    30    31   ar
    30     5     6    2
    31     6     7    1
    32     7     8    2
    33     8     9    1
    34    16    18    1
    35    18    19    2
    36    18    20   am
    37    15    10   ar
    38     9     1    1
    39    20    13    1
    40     8     4    1
    41    31    26   ar
    42    38    32    1
    43    20    21    1
