@<TRIPOS>MOLECULE
*****
 50 54 0 0 0
SMALL
GASTEIGER

@<TRIPOS>ATOM
      1 C           1.3941    2.4229   29.1046 C.3     1  UNL1        0.1205
      2 N           1.7917    2.8607   30.4831 N.am    1  UNL1       -0.2737
      3 C           0.8971    2.5665   31.6507 C.2     1  UNL1        0.2506
      4 O          -0.3951    1.8345   31.4397 O.2     1  UNL1       -0.2699
      5 C           3.0838    3.5927   30.6940 C.3     1  UNL1        0.0939
      6 C           3.9784    3.8869   29.5265 C.3     1  UNL1        0.0257
      7 C           3.5808    3.4491   28.1481 C.3     1  UNL1        0.0525
      8 C           2.2887    2.7171   27.9371 C.3     1  UNL1        0.2169
      9 C           2.7957    2.7626   26.5261 C.2     1  UNL1        0.2635
     10 O           2.9033    3.4103   25.9314 O.2     1  UNL1       -0.2711
     11 N           3.2539    1.5030   25.8528 N.am    1  UNL1       -0.2765
     12 C           3.2051    0.1978   26.5905 C.3     1  UNL1        0.0972
     13 C           3.6633   -1.0618   25.9172 C.3     1  UNL1        0.0651
     14 C           4.1703   -1.0163   24.5062 C.3     1  UNL1        0.1710
     15 C           4.2191    0.2889   23.7685 C.3     1  UNL1        0.0651
     16 C           3.7609    1.5485   24.4418 C.3     1  UNL1        0.0972
     17 O           4.6285   -2.2759   23.8328 O.3     1  UNL1       -0.4639
     18 C           4.2645   -2.5360   22.4011 C.ar    1  UNL1        0.2247
     19 C           4.7140   -3.8004   21.7307 C.ar    1  UNL1        0.0577
     20 C           4.3500   -4.0604   20.2990 C.ar    1  UNL1        0.0064
     21 C           3.5366   -3.0562   19.5376 C.ar    1  UNL1        0.0205
     22 CA          3.0871   -1.7919   20.2079 C.ar    1  UNL1        0.0983
     23 N           3.4510   -1.5318   21.6397 N.ar    1  UNL1       -0.2105
     24 C           2.2736   -0.7876   19.4466 C.2     1  UNL1        0.0906
     25 O           0.9115   -0.3974   19.9389 O.co2   1  UNL1       -0.5430
     26 OXT         2.8223   -0.1734   18.1929 O.co2   1  UNL1       -0.5430
     27 C           1.2946    3.0043   33.0291 C.ar    1  UNL1        0.0766
     28 C           2.0925    2.0860   33.9068 C.ar    1  UNL1        0.1033
     29 N           2.4901    2.5239   35.2853 N.ar    1  UNL1       -0.2422
     30 C           2.0898    3.8800   35.7862 C.ar    1  UNL1        0.0988
     31 C           1.2919    4.7982   34.9085 C.ar    1  UNL1        0.0247
     32 C           0.8944    4.3604   33.5300 C.ar    1  UNL1        0.0788
     33 C           0.0965    5.2786   32.6524 C.3     1  UNL1        0.4188
     34 F          -0.7014    6.1969   31.7748 F       1  UNL1       -0.1659
     35 F          -1.1737    4.7117   33.2139 F       1  UNL1       -0.1659
     36 F           1.3667    5.8456   32.0909 F       1  UNL1       -0.1659
     37 C           0.1019    1.6909   28.8936 C.3     1  UNL1        0.0239
     38 C          -1.2196   -0.5401   28.7321 C.3     1  UNL1        0.0001
     39 C           0.0688    0.1928   28.9618 C.3     1  UNL1        0.0018
     40 O           1.1726    2.0009   27.2360 O.3     1  UNL1       -0.4723
     41 C           0.1341    2.7818   26.4866 C.ar    1  UNL1        0.1390
     42 C          -0.1753    4.1942   26.8860 C.ar    1  UNL1        0.0369
     43 C          -1.2139    4.9750   26.1366 C.ar    1  UNL1        0.0070
     44 C          -1.9430    4.3436   24.9878 C.ar    1  UNL1        0.0716
     45 C          -1.6335    2.9312   24.5884 C.ar    1  UNL1        0.0070
     46 C          -0.5950    2.1503   25.3378 C.ar    1  UNL1        0.0369
     47 C          -2.9815    5.1244   24.2384 C.3     1  UNL1        0.4186
     48 F          -4.0201    5.9052   23.4889 F       1  UNL1       -0.1659
     49 F          -2.1399    6.3602   24.3593 F       1  UNL1       -0.1659
     50 F          -3.8231    3.8887   24.1174 F       1  UNL1       -0.1659
@<TRIPOS>UNITY_ATOM_ATTR
25 1
charge -1
@<TRIPOS>BOND
     1    38    39    1
     2    39    37    1
     3     1    37    1
     4     1     2    1
     5     2     3   am
     6     3     4    2
     7     3    27    1
     8    27    28   ar
     9    28    29   ar
    10    29    30   ar
    11    30    31   ar
    12    31    32   ar
    13    32    33    1
    14    33    34    1
    15    33    35    1
    16    33    36    1
    17     2     5    1
    18     5     6    1
    19     6     7    1
    20     7     8    1
    21     8    40    1
    22    40    41    1
    23    41    42   ar
    24    42    43   ar
    25    43    44   ar
    26    44    47    1
    27    47    48    1
    28    47    49    1
    29    47    50    1
    30    44    45   ar
    31    45    46   ar
    32     8     9    1
    33     9    10    2
    34     9    11   am
    35    11    12    1
    36    12    13    1
    37    13    14    1
    38    14    17    1
    39    17    18    1
    40    18    19   ar
    41    19    20   ar
    42    20    21   ar
    43    21    22   ar
    44    22    24    1
    45    24    25   ar
    46    24    26   ar
    47    22    23   ar
    48    14    15    1
    49    15    16    1
    50     8     1    1
    51    46    41   ar
    52    16    11    1
    53    32    27   ar
    54    23    18   ar
@<TRIPOS>MOLECULE
*****
 50 54 0 0 0
SMALL
GASTEIGER

@<TRIPOS>ATOM
      1 C           1.0370    2.6618   28.8828 C.3     1  UNL1        0.1205
      2 N           1.5380    3.0447   30.2438 N.am    1  UNL1       -0.2737
      3 C           0.8075    2.5822   31.4695 C.2     1  UNL1        0.2506
      4 O          -0.4241    1.7367   31.3342 O.2     1  UNL1       -0.2699
      5 C           2.7697    3.8902   30.3791 C.3     1  UNL1        0.0939
      6 C           3.5002    4.3527   29.1534 C.3     1  UNL1        0.0257
      7 C           2.9992    3.9698   27.7924 C.3     1  UNL1        0.0525
      8 C           1.7675    3.1243   27.6572 C.3     1  UNL1        0.2169
      9 C           2.1119    3.3164   26.2099 C.2     1  UNL1        0.2635
     10 O           2.0752    4.0057   25.6548 O.2     1  UNL1       -0.2711
     11 N           2.6470    2.1677   25.4074 N.am    1  UNL1       -0.2765
     12 C           2.8378    0.8268   26.0521 C.3     1  UNL1        0.0972
     13 C           3.3729   -0.3220   25.2496 C.3     1  UNL1        0.0651
     14 C           3.7173   -0.1299   23.8024 C.3     1  UNL1        0.1710
     15 C           3.5265    1.2110   23.1577 C.3     1  UNL1        0.0651
     16 C           2.9914    2.3597   23.9601 C.3     1  UNL1        0.0972
     17 O           4.2524   -1.2786   22.9999 O.3     1  UNL1       -0.4639
     18 C           4.1604   -1.2548   21.5028 C.ar    1  UNL1        0.2247
     19 C           2.8180   -1.2649   20.8337 C.ar    1  UNL1        0.0577
     20 C           2.7260   -1.2412   19.3367 C.ar    1  UNL1        0.0064
     21 C           3.9763   -1.2073   18.5089 C.ar    1  UNL1        0.0205
     22 CA          5.3188   -1.1972   19.1780 C.ar    1  UNL1        0.0983
     23 N           5.4108   -1.2210   20.6750 N.ar    1  UNL1       -0.2105
     24 C           6.5692   -1.1634   18.3502 C.2     1  UNL1        0.0906
     25 O           7.5082    0.0015   18.4571 O.co2   1  UNL1       -0.5430
     26 OXT         6.8807   -2.2945   17.4155 O.co2   1  UNL1       -0.5430
     27 C           1.3085    2.9651   32.8305 C.ar    1  UNL1        0.0766
     28 C           2.1880    2.0233   33.5983 C.ar    1  UNL1        0.1033
     29 N           2.6891    2.4063   34.9593 N.ar    1  UNL1       -0.2422
     30 C           2.3107    3.7311   35.5525 C.ar    1  UNL1        0.0988
     31 C           1.4312    4.6728   34.7847 C.ar    1  UNL1        0.0247
     32 C           0.9301    4.2899   33.4237 C.ar    1  UNL1        0.0788
     33 C           0.0506    5.2317   32.6559 C.3     1  UNL1        0.4188
     34 F          -0.8289    6.1734   31.8881 F       1  UNL1       -0.1659
     35 F          -1.1636    4.5131   33.1652 F       1  UNL1       -0.1659
     36 F           1.2648    5.9502   32.1465 F       1  UNL1       -0.1659
     37 C          -0.1946    1.8163   28.7475 C.3     1  UNL1        0.0239
     38 C          -1.3182   -0.5260   28.7112 C.3     1  UNL1        0.0001
     39 C          -0.0803    0.3207   28.7373 C.3     1  UNL1        0.0018
     40 O           0.6556    2.3455   27.0192 O.3     1  UNL1       -0.4723
     41 C          -0.5263    3.0640   26.4385 C.ar    1  UNL1        0.1390
     42 C          -1.0076    4.3411   27.0610 C.ar    1  UNL1        0.0369
     43 C          -2.1895    5.0594   26.4803 C.ar    1  UNL1        0.0070
     44 C          -2.8899    4.5008   25.2772 C.ar    1  UNL1        0.0716
     45 C          -2.4085    3.2237   24.6548 C.ar    1  UNL1        0.0070
     46 C          -1.2267    2.5053   25.2355 C.ar    1  UNL1        0.0369
     47 C          -4.0717    5.2192   24.6965 C.3     1  UNL1        0.4186
     48 F          -5.2535    5.9376   24.1158 F       1  UNL1       -0.1659
     49 F          -4.7374    3.9031   24.4230 F       1  UNL1       -0.1659
     50 F          -3.4060    6.5352   24.9701 F       1  UNL1       -0.1659
@<TRIPOS>UNITY_ATOM_ATTR
25 1
charge -1
@<TRIPOS>BOND
     1    38    39    1
     2    39    37    1
     3     1    37    1
     4     1     2    1
     5     2     3   am
     6     3     4    2
     7     3    27    1
     8    27    28   ar
     9    28    29   ar
    10    29    30   ar
    11    30    31   ar
    12    31    32   ar
    13    32    33    1
    14    33    34    1
    15    33    35    1
    16    33    36    1
    17     2     5    1
    18     5     6    1
    19     6     7    1
    20     7     8    1
    21     8    40    1
    22    40    41    1
    23    41    42   ar
    24    42    43   ar
    25    43    44   ar
    26    44    47    1
    27    47    48    1
    28    47    49    1
    29    47    50    1
    30    44    45   ar
    31    45    46   ar
    32     8     9    1
    33     9    10    2
    34     9    11   am
    35    11    12    1
    36    12    13    1
    37    13    14    1
    38    14    17    1
    39    17    18    1
    40    18    19   ar
    41    19    20   ar
    42    20    21   ar
    43    21    22   ar
    44    22    24    1
    45    24    25   ar
    46    24    26   ar
    47    22    23   ar
    48    14    15    1
    49    15    16    1
    50     8     1    1
    51    46    41   ar
    52    16    11    1
    53    32    27   ar
    54    23    18   ar
@<TRIPOS>MOLECULE
*****
 50 54 0 0 0
SMALL
GASTEIGER

@<TRIPOS>ATOM
      1 C           3.0946    0.8880   21.6828 C.3     1  UNL1        0.1205
      2 N           4.4154    0.4206   21.1472 N.am    1  UNL1       -0.2737
      3 C           4.6196   -1.0278   20.8144 C.2     1  UNL1        0.2506
      4 O           3.5030   -2.0086   21.0173 O.2     1  UNL1       -0.2699
      5 C           5.5320    1.4014   20.9443 C.3     1  UNL1        0.0939
      6 C           5.3279    2.8496   21.2771 C.3     1  UNL1        0.0257
      7 C           4.0071    3.3171   21.8127 C.3     1  UNL1        0.0525
      8 C           2.8905    2.3363   22.0156 C.3     1  UNL1        0.2169
      9 C           2.2173    3.5959   22.4742 C.2     1  UNL1        0.2635
     10 O           2.3383    4.1438   23.1596 O.2     1  UNL1       -0.2711
     11 N           1.0711    4.1622   21.6896 N.am    1  UNL1       -0.2765
     12 C           0.5981    3.4688   20.4464 C.3     1  UNL1        0.0972
     13 C          -0.5481    4.0351   19.6618 C.3     1  UNL1        0.0651
     14 C          -1.2212    5.2947   20.1204 C.3     1  UNL1        0.1710
     15 C          -0.7482    5.9880   21.3636 C.3     1  UNL1        0.0651
     16 C           0.3980    5.4218   22.1482 C.3     1  UNL1        0.0972
     17 O          -2.3674    5.8610   19.3358 O.3     1  UNL1       -0.4639
     18 C          -3.6972    5.1670   19.3439 C.ar    1  UNL1        0.2247
     19 C          -4.0987    4.3018   18.1861 C.ar    1  UNL1        0.0577
     20 C          -5.4285    3.6079   18.1942 C.ar    1  UNL1        0.0064
     21 C          -6.3568    3.7791   19.3598 C.ar    1  UNL1        0.0205
     22 CA         -5.9554    4.6442   20.5176 C.ar    1  UNL1        0.0983
     23 N          -4.6256    5.3382   20.5095 N.ar    1  UNL1       -0.2105
     24 C          -6.8836    4.8155   21.6833 C.2     1  UNL1        0.0906
     25 O          -7.9624    5.8567   21.6365 O.co2   1  UNL1       -0.5430
     26 OXT        -6.7331    3.9455   22.8959 O.co2   1  UNL1       -0.5430
     27 C           5.9404   -1.4952   20.2787 C.ar    1  UNL1        0.0766
     28 C           7.0527   -1.8417   21.2235 C.ar    1  UNL1        0.1033
     29 N           8.3735   -2.3092   20.6878 N.ar    1  UNL1       -0.2422
     30 C           8.5820   -2.4302   19.2073 C.ar    1  UNL1        0.0988
     31 C           7.4697   -2.0837   18.2625 C.ar    1  UNL1        0.0247
     32 C           6.1489   -1.6163   18.7982 C.ar    1  UNL1        0.0788
     33 C           5.0366   -1.2698   17.8533 C.3     1  UNL1        0.4188
     34 F           3.9242   -0.9233   16.9085 F       1  UNL1       -0.1659
     35 F           5.5230    0.1482   17.8006 F       1  UNL1       -0.1659
     36 F           4.5501   -2.6877   17.9061 F       1  UNL1       -0.1659
     37 C           1.9780   -0.0928   21.8857 C.3     1  UNL1        0.0239
     38 C           1.3129    0.0548   19.3786 C.3     1  UNL1        0.0001
     39 C           0.9833   -0.3342   20.7893 C.3     1  UNL1        0.0018
     40 O           1.5400    1.7930   22.3778 O.3     1  UNL1       -0.4723
     41 C           1.1407    1.6752   23.8188 C.ar    1  UNL1        0.1390
     42 C           2.1461    1.2372   24.8423 C.ar    1  UNL1        0.0369
     43 C           1.7467    1.1194   26.2833 C.ar    1  UNL1        0.0070
     44 C           0.3421    1.4397   26.7009 C.ar    1  UNL1        0.0716
     45 C          -0.6633    1.8778   25.6775 C.ar    1  UNL1        0.0070
     46 C          -0.2640    1.9955   24.2364 C.ar    1  UNL1        0.0369
     47 C          -0.0573    1.3220   28.1420 C.3     1  UNL1        0.4186
     48 F          -0.4567    1.2042   29.5830 F       1  UNL1       -0.1659
     49 F          -1.4958    1.5052   27.7583 F       1  UNL1       -0.1659
     50 F           1.3812    1.1387   28.5256 F       1  UNL1       -0.1659
@<TRIPOS>UNITY_ATOM_ATTR
25 1
charge -1
@<TRIPOS>BOND
     1    38    39    1
     2    39    37    1
     3     1    37    1
     4     1     2    1
     5     2     3   am
     6     3     4    2
     7     3    27    1
     8    27    28   ar
     9    28    29   ar
    10    29    30   ar
    11    30    31   ar
    12    31    32   ar
    13    32    33    1
    14    33    34    1
    15    33    35    1
    16    33    36    1
    17     2     5    1
    18     5     6    1
    19     6     7    1
    20     7     8    1
    21     8    40    1
    22    40    41    1
    23    41    42   ar
    24    42    43   ar
    25    43    44   ar
    26    44    47    1
    27    47    48    1
    28    47    49    1
    29    47    50    1
    30    44    45   ar
    31    45    46   ar
    32     8     9    1
    33     9    10    2
    34     9    11   am
    35    11    12    1
    36    12    13    1
    37    13    14    1
    38    14    17    1
    39    17    18    1
    40    18    19   ar
    41    19    20   ar
    42    20    21   ar
    43    21    22   ar
    44    22    24    1
    45    24    25   ar
    46    24    26   ar
    47    22    23   ar
    48    14    15    1
    49    15    16    1
    50     8     1    1
    51    46    41   ar
    52    16    11    1
    53    32    27   ar
    54    23    18   ar
@<TRIPOS>MOLECULE
*****
 50 54 0 0 0
SMALL
GASTEIGER

@<TRIPOS>ATOM
      1 C           3.1083    0.7521   28.9395 C.3     1  UNL1        0.1205
      2 N           3.7186    0.8610   30.3053 N.am    1  UNL1       -0.2737
      3 C           3.1874    0.0266   31.4330 C.2     1  UNL1        0.2506
      4 O           2.0458   -0.9168   31.1947 O.2     1  UNL1       -0.2699
      5 C           4.8602    1.8044   30.5436 C.3     1  UNL1        0.0939
      6 C           5.3914    2.6389   29.4161 C.3     1  UNL1        0.0257
      7 C           4.7811    2.5300   28.0502 C.3     1  UNL1        0.0525
      8 C           3.6395    1.5866   27.8120 C.3     1  UNL1        0.2169
      9 C           3.7928    2.1629   26.4356 C.2     1  UNL1        0.2635
     10 O           3.5895    2.9433   26.0691 O.2     1  UNL1       -0.2711
     11 N           4.4121    1.3422   25.3435 N.am    1  UNL1       -0.2765
     12 C           4.8783   -0.0549   25.6276 C.3     1  UNL1        0.0972
     13 C           5.4976   -0.8757   24.5356 C.3     1  UNL1        0.0651
     14 C           5.6509   -0.2993   23.1592 C.3     1  UNL1        0.1710
     15 C           5.1848    1.0979   22.8750 C.3     1  UNL1        0.0651
     16 C           4.5654    1.9186   23.9671 C.3     1  UNL1        0.0972
     17 O           6.2703   -1.1200   22.0670 O.3     1  UNL1       -0.4639
     18 C           5.4030   -1.7440   21.0142 C.ar    1  UNL1        0.2247
     19 C           5.0325   -3.1944   21.1105 C.ar    1  UNL1        0.0577
     20 C           4.1653   -3.8185   20.0577 C.ar    1  UNL1        0.0064
     21 C           3.6685   -2.9922   18.9086 C.ar    1  UNL1        0.0205
     22 CA          4.0390   -1.5419   18.8122 C.ar    1  UNL1        0.0983
     23 N           4.9062   -0.9178   19.8651 N.ar    1  UNL1       -0.2105
     24 C           3.5423   -0.7156   17.6631 C.2     1  UNL1        0.0906
     25 O           2.6208    0.4411   17.9141 O.co2   1  UNL1       -0.5430
     26 OXT         3.9671   -1.0460   16.2630 O.co2   1  UNL1       -0.5430
     27 C           3.7977    0.1355   32.7988 C.ar    1  UNL1        0.0766
     28 C           3.3655    1.2306   33.7283 C.ar    1  UNL1        0.1033
     29 N           3.9759    1.3395   35.0942 N.ar    1  UNL1       -0.2422
     30 C           5.0185    0.3533   35.5306 C.ar    1  UNL1        0.0988
     31 C           5.4507   -0.7418   34.6011 C.ar    1  UNL1        0.0247
     32 C           4.8404   -0.8507   33.2352 C.ar    1  UNL1        0.0788
     33 C           5.2726   -1.9458   32.3058 C.3     1  UNL1        0.4188
     34 F           5.7049   -3.0409   31.3763 F       1  UNL1       -0.1659
     35 F           6.3090   -1.0359   31.7157 F       1  UNL1       -0.1659
     36 F           4.2363   -2.8557   32.8958 F       1  UNL1       -0.1659
     37 C           1.9667   -0.1913   28.7012 C.3     1  UNL1        0.0239
     38 C          -0.6189   -0.4459   28.6934 C.3     1  UNL1        0.0001
     39 C           0.6339    0.0679   29.3388 C.3     1  UNL1        0.0018
     40 O           2.5512    0.8434   27.0956 O.3     1  UNL1       -0.4723
     41 C           1.3351    1.5764   26.6120 C.ar    1  UNL1        0.1390
     42 C           0.7922    2.7310   27.4009 C.ar    1  UNL1        0.0369
     43 C          -0.4238    3.4639   26.9173 C.ar    1  UNL1        0.0070
     44 C          -1.0970    3.0424   25.6448 C.ar    1  UNL1        0.0716
     45 C          -0.5541    1.8879   24.8559 C.ar    1  UNL1        0.0070
     46 C           0.6619    1.1548   25.3395 C.ar    1  UNL1        0.0369
     47 C          -2.3130    3.7754   25.1612 C.3     1  UNL1        0.4186
     48 F          -3.5291    4.5084   24.6776 F       1  UNL1       -0.1659
     49 F          -1.7334    3.8250   23.7786 F       1  UNL1       -0.1659
     50 F          -2.8927    3.7259   26.5438 F       1  UNL1       -0.1659
@<TRIPOS>UNITY_ATOM_ATTR
25 1
charge -1
@<TRIPOS>BOND
     1    38    39    1
     2    39    37    1
     3     1    37    1
     4     1     2    1
     5     2     3   am
     6     3     4    2
     7     3    27    1
     8    27    28   ar
     9    28    29   ar
    10    29    30   ar
    11    30    31   ar
    12    31    32   ar
    13    32    33    1
    14    33    34    1
    15    33    35    1
    16    33    36    1
    17     2     5    1
    18     5     6    1
    19     6     7    1
    20     7     8    1
    21     8    40    1
    22    40    41    1
    23    41    42   ar
    24    42    43   ar
    25    43    44   ar
    26    44    47    1
    27    47    48    1
    28    47    49    1
    29    47    50    1
    30    44    45   ar
    31    45    46   ar
    32     8     9    1
    33     9    10    2
    34     9    11   am
    35    11    12    1
    36    12    13    1
    37    13    14    1
    38    14    17    1
    39    17    18    1
    40    18    19   ar
    41    19    20   ar
    42    20    21   ar
    43    21    22   ar
    44    22    24    1
    45    24    25   ar
    46    24    26   ar
    47    22    23   ar
    48    14    15    1
    49    15    16    1
    50     8     1    1
    51    46    41   ar
    52    16    11    1
    53    32    27   ar
    54    23    18   ar
@<TRIPOS>MOLECULE
*****
 50 54 0 0 0
SMALL
GASTEIGER

@<TRIPOS>ATOM
      1 C           1.6197    2.3068   28.6436 C.3     1  UNL1        0.1205
      2 N           2.5537    2.4948   29.8021 N.am    1  UNL1       -0.2737
      3 C           2.1639    2.0080   31.1664 C.2     1  UNL1        0.2506
      4 O           0.8401    1.3332   31.3720 O.2     1  UNL1       -0.2699
      5 C           3.8775    3.1695   29.5965 C.3     1  UNL1        0.0939
      6 C           4.2673    3.6563   28.2324 C.3     1  UNL1        0.0257
      7 C           3.3333    3.4683   27.0738 C.3     1  UNL1        0.0525
      8 C           2.0095    2.7936   27.2794 C.3     1  UNL1        0.2169
      9 C           1.9300    3.0807   25.8093 C.2     1  UNL1        0.2635
     10 O           1.7204    3.7974   25.3327 O.2     1  UNL1       -0.2711
     11 N           2.2510    2.0034   24.8162 N.am    1  UNL1       -0.2765
     12 C           2.6516    0.6388   25.2933 C.3     1  UNL1        0.0972
     13 C           2.9727   -0.4385   24.3003 C.3     1  UNL1        0.0651
     14 C           2.8932   -0.1514   22.8302 C.3     1  UNL1        0.1710
     15 C           2.4926    1.2132   22.3531 C.3     1  UNL1        0.0651
     16 C           2.1715    2.2905   23.3461 C.3     1  UNL1        0.0972
     17 O           3.2142   -1.2287   21.8371 O.3     1  UNL1       -0.4639
     18 C           3.3996   -0.8830   20.3892 C.ar    1  UNL1        0.2247
     19 C           2.2597   -0.3048   19.6043 C.ar    1  UNL1        0.0577
     20 C           2.4451    0.0409   18.1565 C.ar    1  UNL1        0.0064
     21 C           3.7704   -0.1916   17.4936 C.ar    1  UNL1        0.0205
     22 CA          4.9103   -0.7699   18.2785 C.ar    1  UNL1        0.0983
     23 N           4.7249   -1.1156   19.7264 N.ar    1  UNL1       -0.2105
     24 C           6.2357   -1.0025   17.6158 C.2     1  UNL1        0.0906
     25 O           7.0115    0.1562   17.0629 O.co2   1  UNL1       -0.5430
     26 OXT         6.7853   -2.3939   17.5058 O.co2   1  UNL1       -0.5430
     27 C           3.0979    2.1959   32.3250 C.ar    1  UNL1        0.0766
     28 C           2.9811    3.4139   33.1926 C.ar    1  UNL1        0.1033
     29 N           3.9152    3.6018   34.3512 N.ar    1  UNL1       -0.2422
     30 C           4.9659    2.5717   34.6421 C.ar    1  UNL1        0.0988
     31 C           5.0827    1.3536   33.7745 C.ar    1  UNL1        0.0247
     32 C           4.1487    1.1657   32.6160 C.ar    1  UNL1        0.0788
     33 C           4.2655   -0.0523   31.7484 C.3     1  UNL1        0.4188
     34 F           4.3823   -1.2703   30.8807 F       1  UNL1       -0.1659
     35 F           3.2244   -0.7433   32.5783 F       1  UNL1       -0.1659
     36 F           5.3066    0.6386   30.9184 F       1  UNL1       -0.1659
     37 C           0.2959    1.6321   28.8492 C.3     1  UNL1        0.0239
     38 C          -1.1692   -0.5092   28.7135 C.3     1  UNL1        0.0001
     39 C           0.1810    0.1442   28.6982 C.3     1  UNL1        0.0018
     40 O           0.6581    2.2187   26.9744 O.3     1  UNL1       -0.4723
     41 C          -0.5147    3.1299   26.7640 C.ar    1  UNL1        0.1390
     42 C          -0.5841    4.4421   27.4874 C.ar    1  UNL1        0.0369
     43 C          -1.7569    5.3533   27.2770 C.ar    1  UNL1        0.0070
     44 C          -2.8602    4.9523   26.3432 C.ar    1  UNL1        0.0716
     45 C          -2.7907    3.6401   25.6197 C.ar    1  UNL1        0.0070
     46 C          -1.6179    2.7289   25.8301 C.ar    1  UNL1        0.0369
     47 C          -4.0330    5.8635   26.1327 C.3     1  UNL1        0.4186
     48 F          -5.2058    6.7747   25.9223 F       1  UNL1       -0.1659
     49 F          -4.1028    5.4417   24.6949 F       1  UNL1       -0.1659
     50 F          -3.9632    6.2853   27.5705 F       1  UNL1       -0.1659
@<TRIPOS>UNITY_ATOM_ATTR
25 1
charge -1
@<TRIPOS>BOND
     1    38    39    1
     2    39    37    1
     3     1    37    1
     4     1     2    1
     5     2     3   am
     6     3     4    2
     7     3    27    1
     8    27    28   ar
     9    28    29   ar
    10    29    30   ar
    11    30    31   ar
    12    31    32   ar
    13    32    33    1
    14    33    34    1
    15    33    35    1
    16    33    36    1
    17     2     5    1
    18     5     6    1
    19     6     7    1
    20     7     8    1
    21     8    40    1
    22    40    41    1
    23    41    42   ar
    24    42    43   ar
    25    43    44   ar
    26    44    47    1
    27    47    48    1
    28    47    49    1
    29    47    50    1
    30    44    45   ar
    31    45    46   ar
    32     8     9    1
    33     9    10    2
    34     9    11   am
    35    11    12    1
    36    12    13    1
    37    13    14    1
    38    14    17    1
    39    17    18    1
    40    18    19   ar
    41    19    20   ar
    42    20    21   ar
    43    21    22   ar
    44    22    24    1
    45    24    25   ar
    46    24    26   ar
    47    22    23   ar
    48    14    15    1
    49    15    16    1
    50     8     1    1
    51    46    41   ar
    52    16    11    1
    53    32    27   ar
    54    23    18   ar
@<TRIPOS>MOLECULE
*****
 50 54 0 0 0
SMALL
GASTEIGER

@<TRIPOS>ATOM
      1 C           0.6318    2.8115   28.6303 C.3     1  UNL1        0.1205
      2 N          -0.5741    2.7040   27.7447 N.am    1  UNL1       -0.2737
      3 C          -1.0899    3.9174   27.0293 C.2     1  UNL1        0.2506
      4 O          -0.3997    5.2383   27.1995 O.2     1  UNL1       -0.2699
      5 C          -1.2642    1.3831   27.5744 C.3     1  UNL1        0.0939
      6 C          -0.7485    0.1698   28.2898 C.3     1  UNL1        0.0257
      7 C           0.4573    0.2773   29.1754 C.3     1  UNL1        0.0525
      8 C           1.1475    1.5982   29.3456 C.3     1  UNL1        0.2169
      9 C           2.0065    0.7400   30.2263 C.2     1  UNL1        0.2635
     10 O           1.9418    0.4594   31.0640 O.2     1  UNL1       -0.2711
     11 N           3.2863    0.1653   29.6956 N.am    1  UNL1       -0.2765
     12 C           3.7071    0.4487   28.2839 C.3     1  UNL1        0.0972
     13 C           4.9869   -0.1260   27.7531 C.3     1  UNL1        0.0651
     14 C           5.8459   -0.9841   28.6338 C.3     1  UNL1        0.1710
     15 C           5.4250   -1.2676   30.0454 C.3     1  UNL1        0.0651
     16 C           4.1453   -0.6929   30.5763 C.3     1  UNL1        0.0972
     17 O           7.1257   -1.5589   28.1030 O.3     1  UNL1       -0.4639
     18 C           7.1538   -2.9604   27.5691 C.ar    1  UNL1        0.2247
     19 C           6.7536   -3.2300   26.1488 C.ar    1  UNL1        0.0577
     20 C           6.7818   -4.6315   25.6148 C.ar    1  UNL1        0.0064
     21 C           7.2101   -5.7633   26.5011 C.ar    1  UNL1        0.0205
     22 CA          7.6102   -5.4937   27.9213 C.ar    1  UNL1        0.0983
     23 N           7.5821   -4.0922   28.4553 N.ar    1  UNL1       -0.2105
     24 C           8.0385   -6.6254   28.8077 C.2     1  UNL1        0.0906
     25 O           8.3759   -7.9595   28.2106 O.co2   1  UNL1       -0.5430
     26 OXT         8.1295   -6.4231   30.2912 O.co2   1  UNL1       -0.5430
     27 C          -2.2957    3.8099   26.1437 C.ar    1  UNL1        0.0766
     28 C          -3.6713    3.8839   26.7373 C.ar    1  UNL1        0.1033
     29 N          -4.8772    3.7763   25.8517 N.ar    1  UNL1       -0.2422
     30 C          -4.7075    3.5948   24.3724 C.ar    1  UNL1        0.0988
     31 C          -3.3319    3.5208   23.7788 C.ar    1  UNL1        0.0247
     32 C          -2.1261    3.6283   24.6643 C.ar    1  UNL1        0.0788
     33 C          -0.7505    3.5543   24.0707 C.3     1  UNL1        0.4188
     34 F           0.6250    3.4803   23.4770 F       1  UNL1       -0.1659
     35 F          -0.7037    2.0837   24.3626 F       1  UNL1       -0.1659
     36 F          -0.7974    5.0249   23.7788 F       1  UNL1       -0.1659
     37 C           1.3219    4.1324   28.8005 C.3     1  UNL1        0.0239
     38 C           2.6663    3.7319   26.6137 C.3     1  UNL1        0.0001
     39 C           2.4154    4.5345   27.8558 C.3     1  UNL1        0.0018
     40 O           2.1360    2.6210   29.8218 O.3     1  UNL1       -0.4723
     41 C           2.0050    3.2079   31.1959 C.ar    1  UNL1        0.1390
     42 C           0.6465    3.5072   31.7572 C.ar    1  UNL1        0.0369
     43 C           0.5156    4.0942   33.1314 C.ar    1  UNL1        0.0070
     44 C           1.7430    4.3818   33.9442 C.ar    1  UNL1        0.0716
     45 C           3.1014    4.0825   33.3829 C.ar    1  UNL1        0.0070
     46 C           3.2324    3.4956   32.0087 C.ar    1  UNL1        0.0369
     47 C           1.6121    4.9688   35.3184 C.3     1  UNL1        0.4186
     48 F           1.4812    5.5556   36.6926 F       1  UNL1       -0.1659
     49 F           1.3931    6.3258   34.7180 F       1  UNL1       -0.1659
     50 F           1.8311    3.6117   35.9188 F       1  UNL1       -0.1659
@<TRIPOS>UNITY_ATOM_ATTR
25 1
charge -1
@<TRIPOS>BOND
     1    38    39    1
     2    39    37    1
     3     1    37    1
     4     1     2    1
     5     2     3   am
     6     3     4    2
     7     3    27    1
     8    27    28   ar
     9    28    29   ar
    10    29    30   ar
    11    30    31   ar
    12    31    32   ar
    13    32    33    1
    14    33    34    1
    15    33    35    1
    16    33    36    1
    17     2     5    1
    18     5     6    1
    19     6     7    1
    20     7     8    1
    21     8    40    1
    22    40    41    1
    23    41    42   ar
    24    42    43   ar
    25    43    44   ar
    26    44    47    1
    27    47    48    1
    28    47    49    1
    29    47    50    1
    30    44    45   ar
    31    45    46   ar
    32     8     9    1
    33     9    10    2
    34     9    11   am
    35    11    12    1
    36    12    13    1
    37    13    14    1
    38    14    17    1
    39    17    18    1
    40    18    19   ar
    41    19    20   ar
    42    20    21   ar
    43    21    22   ar
    44    22    24    1
    45    24    25   ar
    46    24    26   ar
    47    22    23   ar
    48    14    15    1
    49    15    16    1
    50     8     1    1
    51    46    41   ar
    52    16    11    1
    53    32    27   ar
    54    23    18   ar
@<TRIPOS>MOLECULE
*****
 50 54 0 0 0
SMALL
GASTEIGER

@<TRIPOS>ATOM
      1 C           1.0850    2.2258   28.3385 C.3     1  UNL1        0.1205
      2 N          -0.2734    2.3100   27.7080 N.am    1  UNL1       -0.2737
      3 C          -0.6778    3.5457   26.9599 C.2     1  UNL1        0.2506
      4 O           0.2763    4.6972   26.8424 O.2     1  UNL1       -0.2699
      5 C          -1.2275    1.1586   27.8255 C.3     1  UNL1        0.0939
      6 C          -0.8232   -0.0771   28.5735 C.3     1  UNL1        0.0257
      7 C           0.5353   -0.1613   29.2040 C.3     1  UNL1        0.0525
      8 C           1.4894    0.9901   29.0865 C.3     1  UNL1        0.2169
      9 C           2.3259    0.0397   29.8907 C.2     1  UNL1        0.2635
     10 O           2.6688   -0.7620   29.7344 O.2     1  UNL1       -0.2711
     11 N           2.7450    0.4039   31.2842 N.am    1  UNL1       -0.2765
     12 C           2.3275    1.7186   31.8734 C.3     1  UNL1        0.0972
     13 C           2.7465    2.0828   33.2669 C.3     1  UNL1        0.0651
     14 C           3.5831    1.1324   34.0711 C.3     1  UNL1        0.1710
     15 C           4.0006   -0.1823   33.4818 C.3     1  UNL1        0.0651
     16 C           3.5816   -0.5466   32.0884 C.3     1  UNL1        0.0972
     17 O           4.0021    1.4966   35.4645 O.3     1  UNL1       -0.4639
     18 C           3.0121    2.1116   36.4088 C.ar    1  UNL1        0.2247
     19 C           2.5046    3.5015   36.1628 C.ar    1  UNL1        0.0577
     20 C           1.5146    4.1166   37.1071 C.ar    1  UNL1        0.0064
     21 C           1.0321    3.3417   38.2974 C.ar    1  UNL1        0.0205
     22 CA          1.5396    1.9518   38.5434 C.ar    1  UNL1        0.0983
     23 N           2.5296    1.3368   37.5991 N.ar    1  UNL1       -0.2105
     24 C           1.0572    1.1768   39.7336 C.2     1  UNL1        0.0906
     25 O           0.6590    1.8981   40.9871 O.co2   1  UNL1       -0.5430
     26 OXT         0.9730   -0.3195   39.6704 O.co2   1  UNL1       -0.5430
     27 C          -2.0362    3.6299   26.3294 C.ar    1  UNL1        0.0766
     28 C          -3.2396    3.9201   27.1766 C.ar    1  UNL1        0.1033
     29 N          -4.5980    4.0042   26.5460 N.ar    1  UNL1       -0.2422
     30 C          -4.7531    3.7983   25.0683 C.ar    1  UNL1        0.0988
     31 C          -3.5497    3.5082   24.2212 C.ar    1  UNL1        0.0247
     32 C          -2.1912    3.4240   24.8517 C.ar    1  UNL1        0.0788
     33 C          -0.9879    3.1339   24.0045 C.3     1  UNL1        0.4188
     34 F           0.2155    2.8438   23.1573 F       1  UNL1       -0.1659
     35 F          -1.0507    4.5222   23.4398 F       1  UNL1       -0.1659
     36 F          -0.9250    1.7457   24.5692 F       1  UNL1       -0.1659
     37 C           2.0391    3.3773   28.2209 C.3     1  UNL1        0.0239
     38 C           0.8736    4.6427   30.1678 C.3     1  UNL1        0.0001
     39 C           2.0642    4.4414   29.2777 C.3     1  UNL1        0.0018
     40 O           2.7340    1.8115   29.2483 O.3     1  UNL1       -0.4723
     41 C           3.9686    1.4636   28.4706 C.ar    1  UNL1        0.1390
     42 C           5.3234    1.6878   29.0744 C.ar    1  UNL1        0.0369
     43 C           6.5579    1.3399   28.2966 C.ar    1  UNL1        0.0070
     44 C           6.4378    0.7680   26.9152 C.ar    1  UNL1        0.0716
     45 C           5.0830    0.5439   26.3114 C.ar    1  UNL1        0.0070
     46 C           3.8484    0.8917   27.0891 C.ar    1  UNL1        0.0369
     47 C           7.6723    0.4202   26.1374 C.3     1  UNL1        0.4186
     48 F           8.9068    0.0724   25.3596 F       1  UNL1       -0.1659
     49 F           8.0343   -0.6054   27.1705 F       1  UNL1       -0.1659
     50 F           7.3103    1.4457   25.1044 F       1  UNL1       -0.1659
@<TRIPOS>UNITY_ATOM_ATTR
25 1
charge -1
@<TRIPOS>BOND
     1    38    39    1
     2    39    37    1
     3     1    37    1
     4     1     2    1
     5     2     3   am
     6     3     4    2
     7     3    27    1
     8    27    28   ar
     9    28    29   ar
    10    29    30   ar
    11    30    31   ar
    12    31    32   ar
    13    32    33    1
    14    33    34    1
    15    33    35    1
    16    33    36    1
    17     2     5    1
    18     5     6    1
    19     6     7    1
    20     7     8    1
    21     8    40    1
    22    40    41    1
    23    41    42   ar
    24    42    43   ar
    25    43    44   ar
    26    44    47    1
    27    47    48    1
    28    47    49    1
    29    47    50    1
    30    44    45   ar
    31    45    46   ar
    32     8     9    1
    33     9    10    2
    34     9    11   am
    35    11    12    1
    36    12    13    1
    37    13    14    1
    38    14    17    1
    39    17    18    1
    40    18    19   ar
    41    19    20   ar
    42    20    21   ar
    43    21    22   ar
    44    22    24    1
    45    24    25   ar
    46    24    26   ar
    47    22    23   ar
    48    14    15    1
    49    15    16    1
    50     8     1    1
    51    46    41   ar
    52    16    11    1
    53    32    27   ar
    54    23    18   ar
@<TRIPOS>MOLECULE
*****
 50 54 0 0 0
SMALL
GASTEIGER

@<TRIPOS>ATOM
      1 C           0.6782    2.7484   28.6168 C.3     1  UNL1        0.1205
      2 N          -0.5478    2.6521   27.7581 N.am    1  UNL1       -0.2737
      3 C          -1.0349    3.8566   27.0083 C.2     1  UNL1        0.2506
      4 O          -0.2959    5.1573   27.1174 O.2     1  UNL1       -0.2699
      5 C          -1.2868    1.3513   27.6490 C.3     1  UNL1        0.0939
      6 C          -0.7998    0.1469   28.3987 C.3     1  UNL1        0.0257
      7 C           0.4263    0.2432   29.2574 C.3     1  UNL1        0.0525
      8 C           1.1653    1.5439   29.3665 C.3     1  UNL1        0.2169
      9 C           2.0110    0.6880   30.2620 C.2     1  UNL1        0.2635
     10 O           1.9343    0.4101   31.0996 O.2     1  UNL1       -0.2711
     11 N           3.2977    0.1105   29.7513 N.am    1  UNL1       -0.2765
     12 C           3.7388    0.3890   28.3449 C.3     1  UNL1        0.0972
     13 C           5.0254   -0.1884   27.8341 C.3     1  UNL1        0.0651
     14 C           5.8711   -1.0444   28.7297 C.3     1  UNL1        0.1710
     15 C           5.4301   -1.3229   30.1361 C.3     1  UNL1        0.0651
     16 C           4.1434   -0.7455   30.6469 C.3     1  UNL1        0.0972
     17 O           7.1579   -1.6219   28.2189 O.3     1  UNL1       -0.4639
     18 C           7.1443   -2.8862   27.4119 C.ar    1  UNL1        0.2247
     19 C           7.5768   -4.1795   28.0367 C.ar    1  UNL1        0.0577
     20 C           7.5632   -5.4438   27.2297 C.ar    1  UNL1        0.0064
     21 C           7.1173   -5.4149   25.7978 C.ar    1  UNL1        0.0205
     22 CA          6.6849   -4.1216   25.1730 C.ar    1  UNL1        0.0983
     23 N           6.6984   -2.8573   25.9800 N.ar    1  UNL1       -0.2105
     24 C           6.2389   -4.0926   23.7411 C.2     1  UNL1        0.0906
     25 O           4.9646   -3.3957   23.3663 O.co2   1  UNL1       -0.5430
     26 OXT         7.0674   -4.7605   22.6839 O.co2   1  UNL1       -0.5430
     27 C          -2.2610    3.7602   26.1496 C.ar    1  UNL1        0.0766
     28 C          -3.6217    3.8866   26.7681 C.ar    1  UNL1        0.1033
     29 N          -4.8478    3.7903   25.9093 N.ar    1  UNL1       -0.2422
     30 C          -4.7132    3.5676   24.4321 C.ar    1  UNL1        0.0988
     31 C          -3.3525    3.4412   23.8136 C.ar    1  UNL1        0.0247
     32 C          -2.1264    3.5375   24.6723 C.ar    1  UNL1        0.0788
     33 C          -0.7657    3.4112   24.0538 C.3     1  UNL1        0.4188
     34 F           0.5950    3.2848   23.4353 F       1  UNL1       -0.1659
     35 F          -0.8032    4.8620   23.6748 F       1  UNL1       -0.1659
     36 F          -0.7282    1.9603   24.4328 F       1  UNL1       -0.1659
     37 C           1.4172    4.0492   28.7259 C.3     1  UNL1        0.0239
     38 C           3.6244    5.3004   28.1667 C.3     1  UNL1        0.0001
     39 C           2.5218    4.3673   27.7622 C.3     1  UNL1        0.0018
     40 O           2.1980    2.5474   29.7866 O.3     1  UNL1       -0.4723
     41 C           2.1275    3.1708   31.1491 C.ar    1  UNL1        0.1390
     42 C           3.3891    3.5498   31.8667 C.ar    1  UNL1        0.0369
     43 C           3.3184    4.1732   33.2291 C.ar    1  UNL1        0.0070
     44 C           1.9864    4.4176   33.8740 C.ar    1  UNL1        0.0716
     45 C           0.7248    4.0386   33.1564 C.ar    1  UNL1        0.0070
     46 C           0.7954    3.4152   31.7939 C.ar    1  UNL1        0.0369
     47 C           1.9157    5.0411   35.2365 C.3     1  UNL1        0.4186
     48 F           1.8451    5.6646   36.5989 F       1  UNL1       -0.1659
     49 F           1.6104    3.6997   35.8345 F       1  UNL1       -0.1659
     50 F           2.2211    6.3824   34.6385 F       1  UNL1       -0.1659
@<TRIPOS>UNITY_ATOM_ATTR
25 1
charge -1
@<TRIPOS>BOND
     1    38    39    1
     2    39    37    1
     3     1    37    1
     4     1     2    1
     5     2     3   am
     6     3     4    2
     7     3    27    1
     8    27    28   ar
     9    28    29   ar
    10    29    30   ar
    11    30    31   ar
    12    31    32   ar
    13    32    33    1
    14    33    34    1
    15    33    35    1
    16    33    36    1
    17     2     5    1
    18     5     6    1
    19     6     7    1
    20     7     8    1
    21     8    40    1
    22    40    41    1
    23    41    42   ar
    24    42    43   ar
    25    43    44   ar
    26    44    47    1
    27    47    48    1
    28    47    49    1
    29    47    50    1
    30    44    45   ar
    31    45    46   ar
    32     8     9    1
    33     9    10    2
    34     9    11   am
    35    11    12    1
    36    12    13    1
    37    13    14    1
    38    14    17    1
    39    17    18    1
    40    18    19   ar
    41    19    20   ar
    42    20    21   ar
    43    21    22   ar
    44    22    24    1
    45    24    25   ar
    46    24    26   ar
    47    22    23   ar
    48    14    15    1
    49    15    16    1
    50     8     1    1
    51    46    41   ar
    52    16    11    1
    53    32    27   ar
    54    23    18   ar
@<TRIPOS>MOLECULE
*****
 50 54 0 0 0
SMALL
GASTEIGER

@<TRIPOS>ATOM
      1 C           3.0503    0.8904   28.9378 C.3     1  UNL1        0.1205
      2 N           3.6625    0.9900   30.3035 N.am    1  UNL1       -0.2737
      3 C           3.3120   -0.0178   31.3578 C.2     1  UNL1        0.2506
      4 O           2.3494   -1.1252   31.0464 O.2     1  UNL1       -0.2699
      5 C           4.6251    2.0974   30.6149 C.3     1  UNL1        0.0939
      6 C           4.9756    3.1052   29.5607 C.3     1  UNL1        0.0257
      7 C           4.3634    3.0056   28.1949 C.3     1  UNL1        0.0525
      8 C           3.4007    1.8982   27.8835 C.3     1  UNL1        0.2169
      9 C           3.4191    2.6069   26.5616 C.2     1  UNL1        0.2635
     10 O           4.0329    2.7217   25.9333 O.2     1  UNL1       -0.2711
     11 N           2.1921    3.3200   26.0757 N.am    1  UNL1       -0.2765
     12 C           0.9468    3.3245   26.9119 C.3     1  UNL1        0.0972
     13 C          -0.2802    4.0375   26.4261 C.3     1  UNL1        0.0651
     14 C          -0.2618    4.7462   25.1042 C.3     1  UNL1        0.1710
     15 C           0.9836    4.7418   24.2681 C.3     1  UNL1        0.0651
     16 C           2.2105    4.0287   24.7538 C.3     1  UNL1        0.0972
     17 O          -1.4888    5.4594   24.6183 O.3     1  UNL1       -0.4639
     18 C          -2.6360    4.6767   24.0513 C.ar    1  UNL1        0.2247
     19 C          -3.6968    4.1342   24.9624 C.ar    1  UNL1        0.0577
     20 C          -4.8440    3.3515   24.3954 C.ar    1  UNL1        0.0064
     21 C          -4.9303    3.1115   22.9173 C.ar    1  UNL1        0.0205
     22 CA         -3.8695    3.6541   22.0061 C.ar    1  UNL1        0.0983
     23 N          -2.7223    4.4367   22.5732 N.ar    1  UNL1       -0.2105
     24 C          -3.9558    3.4142   20.5280 C.2     1  UNL1        0.0906
     25 O          -5.2922    3.2112   19.8777 O.co2   1  UNL1       -0.5430
     26 OXT        -2.7055    3.3771   19.7000 O.co2   1  UNL1       -0.5430
     27 C           3.9242    0.0818   32.7236 C.ar    1  UNL1        0.0766
     28 C           3.3626    1.0430   33.7290 C.ar    1  UNL1        0.1033
     29 N           3.9749    1.1425   35.0947 N.ar    1  UNL1       -0.2422
     30 C           5.1487    0.2810   35.4551 C.ar    1  UNL1        0.0988
     31 C           5.7103   -0.6801   34.4497 C.ar    1  UNL1        0.0247
     32 C           5.0981   -0.7797   33.0839 C.ar    1  UNL1        0.0788
     33 C           5.6598   -1.7408   32.0785 C.3     1  UNL1        0.4188
     34 F           6.2214   -2.7019   31.0731 F       1  UNL1       -0.1659
     35 F           6.5266   -0.6510   31.5209 F       1  UNL1       -0.1659
     36 F           4.7929   -2.8306   32.6361 F       1  UNL1       -0.1659
     37 C           2.0876   -0.2170   28.6263 C.3     1  UNL1        0.0239
     38 C           0.1161    1.1190   29.6646 C.3     1  UNL1        0.0001
     39 C           0.6134    0.0004   28.7978 C.3     1  UNL1        0.0018
     40 O           2.4444    1.0370   27.1129 O.3     1  UNL1       -0.4723
     41 C           2.9448    0.1842   25.9849 C.ar    1  UNL1        0.1390
     42 C           4.1286   -0.7136   26.1914 C.ar    1  UNL1        0.0369
     43 C           4.6290   -1.5663   25.0633 C.ar    1  UNL1        0.0070
     44 C           3.9456   -1.5212   23.7288 C.ar    1  UNL1        0.0716
     45 C           2.7618   -0.6234   23.5223 C.ar    1  UNL1        0.0070
     46 C           2.2614    0.2293   24.6503 C.ar    1  UNL1        0.0369
     47 C           4.4459   -2.3739   22.6008 C.3     1  UNL1        0.4186
     48 F           4.9462   -3.2266   21.4726 F       1  UNL1       -0.1659
     49 F           4.8115   -3.4520   23.5776 F       1  UNL1       -0.1659
     50 F           4.0804   -1.2959   21.6239 F       1  UNL1       -0.1659
@<TRIPOS>UNITY_ATOM_ATTR
25 1
charge -1
@<TRIPOS>BOND
     1    38    39    1
     2    39    37    1
     3     1    37    1
     4     1     2    1
     5     2     3   am
     6     3     4    2
     7     3    27    1
     8    27    28   ar
     9    28    29   ar
    10    29    30   ar
    11    30    31   ar
    12    31    32   ar
    13    32    33    1
    14    33    34    1
    15    33    35    1
    16    33    36    1
    17     2     5    1
    18     5     6    1
    19     6     7    1
    20     7     8    1
    21     8    40    1
    22    40    41    1
    23    41    42   ar
    24    42    43   ar
    25    43    44   ar
    26    44    47    1
    27    47    48    1
    28    47    49    1
    29    47    50    1
    30    44    45   ar
    31    45    46   ar
    32     8     9    1
    33     9    10    2
    34     9    11   am
    35    11    12    1
    36    12    13    1
    37    13    14    1
    38    14    17    1
    39    17    18    1
    40    18    19   ar
    41    19    20   ar
    42    20    21   ar
    43    21    22   ar
    44    22    24    1
    45    24    25   ar
    46    24    26   ar
    47    22    23   ar
    48    14    15    1
    49    15    16    1
    50     8     1    1
    51    46    41   ar
    52    16    11    1
    53    32    27   ar
    54    23    18   ar
