@<TRIPOS>MOLECULE
*****
 23 26 0 0 0
SMALL
GASTEIGER

@<TRIPOS>ATOM
      1 C          -7.3596  -18.3251   21.9516 C.ar    1  UNL1       -0.0144
      2 C          -7.2682  -17.0462   22.7300 C.ar    1  UNL1        0.0051
      3 S          -8.5218  -16.2612   22.4804 S.2     1  UNL1       -0.0915
      4 C          -9.3879  -17.0549   21.5478 C.ar    1  UNL1        0.0288
      5 C         -10.7378  -16.7809   20.9539 C.ar    1  UNL1        0.0065
      6 C         -11.3694  -17.7825   20.0332 C.ar    1  UNL1        0.0005
      7 C         -10.6511  -19.0582   19.7064 C.ar    1  UNL1        0.0000
      8 C          -9.3012  -19.3322   20.3002 C.ar    1  UNL1        0.0002
      9 C          -8.6696  -18.3305   21.2209 C.ar    1  UNL1        0.0025
     10 C          -6.6569  -20.7850   22.4049 C.3     1  UNL1        0.0110
     11 C          -6.3230  -19.4085   21.9109 C.3     1  UNL1        0.0627
     12 C          -4.9525  -19.1156   21.3764 C.ar    1  UNL1        0.0627
     13 C          -3.7612  -19.1907   22.2849 C.ar    1  UNL1        0.0151
     14 C          -2.3906  -18.8977   21.7504 C.ar    1  UNL1        0.0028
     15 C          -2.2113  -18.5297   20.3073 C.ar    1  UNL1        0.0207
     16 C          -3.4025  -18.4546   19.3989 C.ar    1  UNL1        0.0985
     17 N          -4.7731  -18.7475   19.9334 N.ar    1  UNL1       -0.2478
     18 C          -6.1242  -16.6261   23.6045 C.3     1  UNL1        0.0499
     19 C          -6.2431  -15.3971   24.4561 C.3     1  UNL1        0.0773
     20 N          -7.0285  -15.4428   25.7333 N.3     1  UNL1       -0.2723
     21 C          -6.6804  -15.4758   27.1920 C.3     1  UNL1        0.0735
     22 C          -8.1391  -15.5074   27.5394 C.3     1  UNL1        0.0346
     23 C          -8.4874  -15.4744   26.0808 C.3     1  UNL1        0.0735
@<TRIPOS>BOND
     1    11    10    1
     2    11    12    1
     3    12    13   ar
     4    13    14   ar
     5    14    15   ar
     6    15    16   ar
     7    16    17   ar
     8    11     1    1
     9     1     2   ar
    10     2    18    1
    11    18    19    1
    12    19    20    1
    13    20    21    1
    14    21    22    1
    15    22    23    1
    16     2     3   ar
    17     3     4   ar
    18     4     5   ar
    19     5     6   ar
    20     6     7   ar
    21     7     8   ar
    22     8     9   ar
    23    17    12   ar
    24     9     1   ar
    25    23    20    1
    26     9     4   ar
@<TRIPOS>MOLECULE
*****
 23 26 0 0 0
SMALL
GASTEIGER

@<TRIPOS>ATOM
      1 C          -8.6995  -17.0587   22.5536 C.ar    1  UNL1       -0.0144
      2 C          -8.1133  -18.3904   22.1888 C.ar    1  UNL1        0.0051
      3 S          -9.2391  -19.3005   21.7962 S.2     1  UNL1       -0.0915
      4 C         -10.5211  -18.5314   21.9185 C.ar    1  UNL1        0.0288
      5 C         -11.9491  -18.9137   21.6641 C.ar    1  UNL1        0.0065
      6 C         -13.0435  -17.9104   21.8778 C.ar    1  UNL1        0.0005
      7 C         -12.7100  -16.5249   22.3459 C.ar    1  UNL1        0.0000
      8 C         -11.2820  -16.1427   22.6003 C.ar    1  UNL1        0.0002
      9 C         -10.1876  -17.1459   22.3866 C.ar    1  UNL1        0.0025
     10 C          -7.5656  -14.7829   22.0196 C.3     1  UNL1        0.0110
     11 C          -7.9323  -15.8518   23.0061 C.3     1  UNL1        0.0627
     12 C          -7.5317  -15.7136   24.4449 C.ar    1  UNL1        0.0627
     13 C          -8.5604  -15.8583   25.5271 C.ar    1  UNL1        0.0151
     14 C          -8.1599  -15.7202   26.9660 C.ar    1  UNL1        0.0028
     15 C          -6.7307  -15.4373   27.3228 C.ar    1  UNL1        0.0207
     16 C          -5.7020  -15.2927   26.2408 C.ar    1  UNL1        0.0985
     17 N          -6.1025  -15.4308   24.8018 N.ar    1  UNL1       -0.2478
     18 C          -6.6569  -18.7489   22.2123 C.3     1  UNL1        0.0499
     19 C          -5.9747  -19.1981   20.9542 C.3     1  UNL1        0.0773
     20 N          -4.4874  -19.3918   20.9357 N.3     1  UNL1       -0.2723
     21 C          -3.4581  -19.5998   19.8646 C.3     1  UNL1        0.0735
     22 C          -2.3840  -19.6657   20.9095 C.3     1  UNL1        0.0346
     23 C          -3.4132  -19.4577   21.9807 C.3     1  UNL1        0.0735
@<TRIPOS>BOND
     1    11    10    1
     2    11    12    1
     3    12    13   ar
     4    13    14   ar
     5    14    15   ar
     6    15    16   ar
     7    16    17   ar
     8    11     1    1
     9     1     2   ar
    10     2    18    1
    11    18    19    1
    12    19    20    1
    13    20    21    1
    14    21    22    1
    15    22    23    1
    16     2     3   ar
    17     3     4   ar
    18     4     5   ar
    19     5     6   ar
    20     6     7   ar
    21     7     8   ar
    22     8     9   ar
    23    17    12   ar
    24     9     1   ar
    25    23    20    1
    26     9     4   ar
@<TRIPOS>MOLECULE
*****
 23 26 0 0 0
SMALL
GASTEIGER

@<TRIPOS>ATOM
      1 C          -7.9518  -19.2184   21.6492 C.ar    1  UNL1       -0.0144
      2 C          -8.5771  -19.5535   20.3275 C.ar    1  UNL1        0.0051
      3 S          -7.4806  -19.9475   19.3828 S.2     1  UNL1       -0.0915
      4 C          -6.1778  -19.8560   20.1205 C.ar    1  UNL1        0.0288
      5 C          -4.7639  -20.1247   19.6978 C.ar    1  UNL1        0.0065
      6 C          -3.6413  -19.9428   20.6758 C.ar    1  UNL1        0.0005
      7 C          -3.9326  -19.4922   22.0766 C.ar    1  UNL1        0.0000
      8 C          -5.3464  -19.2235   22.4993 C.ar    1  UNL1        0.0002
      9 C          -6.4690  -19.4053   21.5213 C.ar    1  UNL1        0.0025
     10 C          -9.6730  -19.6895   23.5376 C.3     1  UNL1        0.0110
     11 C          -8.6813  -18.7743   22.8823 C.3     1  UNL1        0.0627
     12 C          -8.4193  -17.4153   23.4603 C.ar    1  UNL1        0.0627
     13 C          -9.0510  -17.0192   24.7619 C.ar    1  UNL1        0.0151
     14 C          -8.7890  -15.6601   25.3400 C.ar    1  UNL1        0.0028
     15 C          -7.8953  -14.6970   24.6163 C.ar    1  UNL1        0.0207
     16 C          -7.2636  -15.0930   23.3148 C.ar    1  UNL1        0.0985
     17 N          -7.5256  -16.4521   22.7367 N.ar    1  UNL1       -0.2478
     18 C         -10.0415  -19.5033   20.0069 C.3     1  UNL1        0.0499
     19 C         -10.7074  -18.1849   19.7456 C.3     1  UNL1        0.0773
     20 N         -11.3290  -17.4213   20.8772 N.3     1  UNL1       -0.2723
     21 C         -12.4031  -17.7055   21.8849 C.3     1  UNL1        0.0735
     22 C         -12.2082  -16.3414   22.4774 C.3     1  UNL1        0.0346
     23 C         -11.1341  -16.0571   21.4698 C.3     1  UNL1        0.0735
@<TRIPOS>BOND
     1    11    10    1
     2    11    12    1
     3    12    13   ar
     4    13    14   ar
     5    14    15   ar
     6    15    16   ar
     7    16    17   ar
     8    11     1    1
     9     1     2   ar
    10     2    18    1
    11    18    19    1
    12    19    20    1
    13    20    21    1
    14    21    22    1
    15    22    23    1
    16     2     3   ar
    17     3     4   ar
    18     4     5   ar
    19     5     6   ar
    20     6     7   ar
    21     7     8   ar
    22     8     9   ar
    23    17    12   ar
    24     9     1   ar
    25    23    20    1
    26     9     4   ar
@<TRIPOS>MOLECULE
*****
 23 26 0 0 0
SMALL
GASTEIGER

@<TRIPOS>ATOM
      1 C          -6.4844  -18.7270   21.6645 C.ar    1  UNL1       -0.0144
      2 C          -6.6228  -19.7570   20.5828 C.ar    1  UNL1        0.0051
      3 S          -5.2518  -20.2653   20.2486 S.2     1  UNL1       -0.0915
      4 C          -4.2659  -19.5496   21.1237 C.ar    1  UNL1        0.0288
      5 C          -2.7730  -19.6407   21.2368 C.ar    1  UNL1        0.0065
      6 C          -2.0419  -18.7811   22.2250 C.ar    1  UNL1        0.0005
      7 C          -2.8037  -17.8304   23.1001 C.ar    1  UNL1        0.0000
      8 C          -4.2966  -17.7392   22.9870 C.ar    1  UNL1        0.0002
      9 C          -5.0277  -18.5988   21.9988 C.ar    1  UNL1        0.0025
     10 C          -7.7329  -16.4839   22.0645 C.3     1  UNL1        0.0110
     11 C          -7.6057  -17.9599   22.3002 C.3     1  UNL1        0.0627
     12 C          -8.5997  -18.6686   23.1717 C.ar    1  UNL1        0.0627
     13 C          -9.6742  -17.8894   23.8706 C.ar    1  UNL1        0.0151
     14 C         -10.6684  -18.5980   24.7421 C.ar    1  UNL1        0.0028
     15 C         -10.5881  -20.0859   24.9147 C.ar    1  UNL1        0.0207
     16 C          -9.5136  -20.8651   24.2158 C.ar    1  UNL1        0.0985
     17 N          -8.5195  -20.1564   23.3443 N.ar    1  UNL1       -0.2478
     18 C          -7.9069  -20.2006   19.9470 C.3     1  UNL1        0.0499
     19 C          -8.8238  -19.1901   19.3240 C.3     1  UNL1        0.0773
     20 N         -10.1172  -18.8361   19.9961 N.3     1  UNL1       -0.2723
     21 C         -11.1165  -19.5796   20.8319 C.3     1  UNL1        0.0735
     22 C         -11.9464  -18.3355   20.9465 C.3     1  UNL1        0.0346
     23 C         -10.9473  -17.5919   20.1106 C.3     1  UNL1        0.0735
@<TRIPOS>BOND
     1    11    10    1
     2    11    12    1
     3    12    13   ar
     4    13    14   ar
     5    14    15   ar
     6    15    16   ar
     7    16    17   ar
     8    11     1    1
     9     1     2   ar
    10     2    18    1
    11    18    19    1
    12    19    20    1
    13    20    21    1
    14    21    22    1
    15    22    23    1
    16     2     3   ar
    17     3     4   ar
    18     4     5   ar
    19     5     6   ar
    20     6     7   ar
    21     7     8   ar
    22     8     9   ar
    23    17    12   ar
    24     9     1   ar
    25    23    20    1
    26     9     4   ar
@<TRIPOS>MOLECULE
*****
 23 26 0 0 0
SMALL
GASTEIGER

@<TRIPOS>ATOM
      1 C          -9.3652  -18.3089   22.8780 C.ar    1  UNL1       -0.0144
      2 C          -9.6002  -17.2899   23.9533 C.ar    1  UNL1        0.0051
      3 S         -10.5354  -16.2503   23.4103 S.2     1  UNL1       -0.0915
      4 C         -10.8782  -16.6269   21.9994 C.ar    1  UNL1        0.0288
      5 C         -11.7555  -15.9756   20.9717 C.ar    1  UNL1        0.0065
      6 C         -11.9096  -16.5967   19.6151 C.ar    1  UNL1        0.0005
      7 C         -11.1864  -17.8690   19.2861 C.ar    1  UNL1        0.0000
      8 C         -10.3091  -18.5202   20.3138 C.ar    1  UNL1        0.0002
      9 C         -10.1550  -17.8992   21.6704 C.ar    1  UNL1        0.0025
     10 C          -8.9351  -20.6896   23.8256 C.3     1  UNL1        0.0110
     11 C          -8.4933  -19.5243   22.9905 C.3     1  UNL1        0.0627
     12 C          -7.1799  -19.5747   22.2681 C.ar    1  UNL1        0.0627
     13 C          -6.9802  -20.5447   21.1414 C.ar    1  UNL1        0.0151
     14 C          -5.6667  -20.5951   20.4188 C.ar    1  UNL1        0.0028
     15 C          -4.5527  -19.6754   20.8230 C.ar    1  UNL1        0.0207
     16 C          -4.7523  -18.7055   21.9496 C.ar    1  UNL1        0.0985
     17 N          -6.0658  -18.6551   22.6721 N.ar    1  UNL1       -0.2478
     18 C          -9.0048  -17.3073   25.3300 C.3     1  UNL1        0.0499
     19 C          -8.1984  -16.1385   25.8132 C.3     1  UNL1        0.0773
     20 N          -6.9290  -15.7607   25.1091 N.3     1  UNL1       -0.2723
     21 C          -6.5780  -15.3186   23.7194 C.3     1  UNL1        0.0735
     22 C          -5.1337  -15.2263   24.1134 C.3     1  UNL1        0.0346
     23 C          -5.4845  -15.6684   25.5032 C.3     1  UNL1        0.0735
@<TRIPOS>BOND
     1    11    10    1
     2    11    12    1
     3    12    13   ar
     4    13    14   ar
     5    14    15   ar
     6    15    16   ar
     7    16    17   ar
     8    11     1    1
     9     1     2   ar
    10     2    18    1
    11    18    19    1
    12    19    20    1
    13    20    21    1
    14    21    22    1
    15    22    23    1
    16     2     3   ar
    17     3     4   ar
    18     4     5   ar
    19     5     6   ar
    20     6     7   ar
    21     7     8   ar
    22     8     9   ar
    23    17    12   ar
    24     9     1   ar
    25    23    20    1
    26     9     4   ar
@<TRIPOS>MOLECULE
*****
 23 26 0 0 0
SMALL
GASTEIGER

@<TRIPOS>ATOM
      1 C         -13.2228   -4.8461   19.3850 C.ar    1  UNL1       -0.0144
      2 C         -14.2458   -5.9177   19.1504 C.ar    1  UNL1        0.0051
      3 S         -13.5270   -7.1529   18.6946 S.2     1  UNL1       -0.0915
      4 C         -12.0598   -6.8446   18.6475 C.ar    1  UNL1        0.0288
      5 C         -10.8707   -7.6779   18.2712 C.ar    1  UNL1        0.0065
      6 C          -9.4936   -7.0855   18.3215 C.ar    1  UNL1        0.0005
      7 C          -9.3056   -5.6598   18.7482 C.ar    1  UNL1        0.0000
      8 C         -10.4947   -4.8265   19.1246 C.ar    1  UNL1        0.0002
      9 C         -11.8718   -5.4189   19.0742 C.ar    1  UNL1        0.0025
     10 C         -13.9363   -3.1986   21.2631 C.3     1  UNL1        0.0110
     11 C         -13.5018   -3.4472   19.8490 C.3     1  UNL1        0.0627
     12 C         -13.3464   -2.2969   18.8991 C.ar    1  UNL1        0.0627
     13 C         -12.0453   -1.5537   18.8276 C.ar    1  UNL1        0.0151
     14 C         -11.8898   -0.4033   17.8777 C.ar    1  UNL1        0.0028
     15 C         -13.0354    0.0039   16.9991 C.ar    1  UNL1        0.0207
     16 C         -14.3364   -0.7393   17.0705 C.ar    1  UNL1        0.0985
     17 N         -14.4919   -1.8896   18.0204 N.ar    1  UNL1       -0.2478
     18 C         -15.7274   -5.7787   19.3386 C.3     1  UNL1        0.0499
     19 C         -16.6693   -6.5973   18.5064 C.3     1  UNL1        0.0773
     20 N         -16.9430   -8.0265   18.8702 N.3     1  UNL1       -0.2723
     21 C         -17.5294   -9.2089   18.1574 C.3     1  UNL1        0.0735
     22 C         -17.3301  -10.0478   19.3847 C.3     1  UNL1        0.0346
     23 C         -16.7436   -8.8655   20.0976 C.3     1  UNL1        0.0735
@<TRIPOS>BOND
     1    11    10    1
     2    11    12    1
     3    12    13   ar
     4    13    14   ar
     5    14    15   ar
     6    15    16   ar
     7    16    17   ar
     8    11     1    1
     9     1     2   ar
    10     2    18    1
    11    18    19    1
    12    19    20    1
    13    20    21    1
    14    21    22    1
    15    22    23    1
    16     2     3   ar
    17     3     4   ar
    18     4     5   ar
    19     5     6   ar
    20     6     7   ar
    21     7     8   ar
    22     8     9   ar
    23    17    12   ar
    24     9     1   ar
    25    23    20    1
    26     9     4   ar
@<TRIPOS>MOLECULE
*****
 23 26 0 0 0
SMALL
GASTEIGER

@<TRIPOS>ATOM
      1 C           4.0456   -2.0947   19.3859 C.ar    1  UNL1       -0.0144
      2 C           5.0665   -1.6010   18.4041 C.ar    1  UNL1        0.0051
      3 S           4.5730   -0.3038   17.8352 S.2     1  UNL1       -0.0915
      4 C           3.2471    0.0042   18.4653 C.ar    1  UNL1        0.0288
      5 C           2.2945    1.1496   18.2903 C.ar    1  UNL1        0.0065
      6 C           1.0159    1.1880   19.0736 C.ar    1  UNL1        0.0005
      7 C           0.6899    0.0812   20.0320 C.ar    1  UNL1        0.0000
      8 C           1.6425   -1.0642   20.2071 C.ar    1  UNL1        0.0002
      9 C           2.9211   -1.1026   19.4238 C.ar    1  UNL1        0.0025
     10 C           3.6087   -4.6448   19.6230 C.3     1  UNL1        0.0110
     11 C           4.1336   -3.3586   20.1889 C.3     1  UNL1        0.0627
     12 C           4.7465   -3.3364   21.5577 C.ar    1  UNL1        0.0627
     13 C           4.1970   -2.4203   22.6108 C.ar    1  UNL1        0.0151
     14 C           4.8098   -2.3980   23.9797 C.ar    1  UNL1        0.0028
     15 C           5.9723   -3.2919   24.2956 C.ar    1  UNL1        0.0207
     16 C           6.5218   -4.2079   23.2426 C.ar    1  UNL1        0.0985
     17 N           5.9090   -4.2302   21.8737 N.ar    1  UNL1       -0.2478
     18 C           6.3547   -2.2844   18.0529 C.3     1  UNL1        0.0499
     19 C           7.6485   -1.7862   18.6255 C.3     1  UNL1        0.0773
     20 N           7.7320   -1.4114   20.0755 N.3     1  UNL1       -0.2723
     21 C           7.0235   -0.4282   20.9594 C.3     1  UNL1        0.0735
     22 C           7.8500   -0.8813   22.1261 C.3     1  UNL1        0.0346
     23 C           8.5586   -1.8646   21.2423 C.3     1  UNL1        0.0735
@<TRIPOS>BOND
     1    11    10    1
     2    11    12    1
     3    12    13   ar
     4    13    14   ar
     5    14    15   ar
     6    15    16   ar
     7    16    17   ar
     8    11     1    1
     9     1     2   ar
    10     2    18    1
    11    18    19    1
    12    19    20    1
    13    20    21    1
    14    21    22    1
    15    22    23    1
    16     2     3   ar
    17     3     4   ar
    18     4     5   ar
    19     5     6   ar
    20     6     7   ar
    21     7     8   ar
    22     8     9   ar
    23    17    12   ar
    24     9     1   ar
    25    23    20    1
    26     9     4   ar
@<TRIPOS>MOLECULE
*****
 23 26 0 0 0
SMALL
GASTEIGER

@<TRIPOS>ATOM
      1 C         -15.0574   -6.4565   17.6394 C.ar    1  UNL1       -0.0144
      2 C         -14.0559   -7.5340   17.3464 C.ar    1  UNL1        0.0051
      3 S         -14.5101   -8.7880   18.0329 S.2     1  UNL1       -0.0915
      4 C         -15.7923   -8.4854   18.7502 C.ar    1  UNL1        0.0288
      5 C         -16.6955   -9.3359   19.5934 C.ar    1  UNL1        0.0065
      6 C         -17.9369   -8.7453   20.1933 C.ar    1  UNL1        0.0005
      7 C         -18.2752   -7.3043   19.9501 C.ar    1  UNL1        0.0000
      8 C         -17.3720   -6.4539   19.1070 C.ar    1  UNL1        0.0002
      9 C         -16.1305   -7.0444   18.5070 C.ar    1  UNL1        0.0025
     10 C         -15.8345   -4.6127   15.9820 C.3     1  UNL1        0.0110
     11 C         -14.9965   -5.0396   17.1507 C.3     1  UNL1        0.0627
     12 C         -14.0978   -4.0497   17.8304 C.ar    1  UNL1        0.0627
     13 C         -13.8960   -4.1161   19.3154 C.ar    1  UNL1        0.0151
     14 C         -12.9972   -3.1262   19.9952 C.ar    1  UNL1        0.0028
     15 C         -12.3002   -2.0698   19.1901 C.ar    1  UNL1        0.0207
     16 C         -12.5019   -2.0033   17.7053 C.ar    1  UNL1        0.0985
     17 N         -13.4007   -2.9933   17.0254 N.ar    1  UNL1       -0.2478
     18 C         -12.8177   -7.3840   16.5132 C.3     1  UNL1        0.0499
     19 C         -11.4808   -7.7556   17.0828 C.3     1  UNL1        0.0773
     20 N         -10.7119   -6.7614   17.9017 N.3     1  UNL1       -0.2723
     21 C          -9.7180   -6.8520   19.0215 C.3     1  UNL1        0.0735
     22 C          -9.6245   -5.3555   19.0597 C.3     1  UNL1        0.0346
     23 C         -10.6184   -5.2648   17.9399 C.3     1  UNL1        0.0735
@<TRIPOS>BOND
     1    11    10    1
     2    11    12    1
     3    12    13   ar
     4    13    14   ar
     5    14    15   ar
     6    15    16   ar
     7    16    17   ar
     8    11     1    1
     9     1     2   ar
    10     2    18    1
    11    18    19    1
    12    19    20    1
    13    20    21    1
    14    21    22    1
    15    22    23    1
    16     2     3   ar
    17     3     4   ar
    18     4     5   ar
    19     5     6   ar
    20     6     7   ar
    21     7     8   ar
    22     8     9   ar
    23    17    12   ar
    24     9     1   ar
    25    23    20    1
    26     9     4   ar
@<TRIPOS>MOLECULE
*****
 23 26 0 0 0
SMALL
GASTEIGER

@<TRIPOS>ATOM
      1 C         -13.2081   -5.3100   17.4868 C.ar    1  UNL1       -0.0144
      2 C         -13.7606   -6.5959   16.9472 C.ar    1  UNL1        0.0051
      3 S         -12.7585   -7.6794   17.2150 S.2     1  UNL1       -0.0915
      4 C         -11.5867   -7.0632   17.9201 C.ar    1  UNL1        0.0288
      5 C         -10.3026   -7.6464   18.4309 C.ar    1  UNL1        0.0065
      6 C          -9.2963   -6.7651   19.1097 C.ar    1  UNL1        0.0005
      7 C          -9.5742   -5.3007   19.2776 C.ar    1  UNL1        0.0000
      8 C         -10.8583   -4.7175   18.7669 C.ar    1  UNL1        0.0002
      9 C         -11.8646   -5.5988   18.0881 C.ar    1  UNL1        0.0025
     10 C         -13.2932   -2.8678   16.6042 C.3     1  UNL1        0.0110
     11 C         -13.8809   -3.9704   17.4344 C.3     1  UNL1        0.0627
     12 C         -15.1414   -3.7332   18.2120 C.ar    1  UNL1        0.0627
     13 C         -15.4601   -4.5878   19.4029 C.ar    1  UNL1        0.0151
     14 C         -16.7206   -4.3507   20.1806 C.ar    1  UNL1        0.0028
     15 C         -17.6626   -3.2589   19.7673 C.ar    1  UNL1        0.0207
     16 C         -17.3440   -2.4043   18.5765 C.ar    1  UNL1        0.0985
     17 N         -16.0834   -2.6414   17.7988 N.ar    1  UNL1       -0.2478
     18 C         -15.0830   -6.7680   16.2604 C.3     1  UNL1        0.0499
     19 C         -15.9869   -7.9009   16.6467 C.3     1  UNL1        0.0773
     20 N         -16.5786   -7.9522   18.0242 N.3     1  UNL1       -0.2723
     21 C         -16.0644   -8.3114   19.3867 C.3     1  UNL1        0.0735
     22 C         -17.4153   -8.0246   19.9721 C.3     1  UNL1        0.0346
     23 C         -17.9295   -7.6654   18.6096 C.3     1  UNL1        0.0735
@<TRIPOS>BOND
     1    11    10    1
     2    11    12    1
     3    12    13   ar
     4    13    14   ar
     5    14    15   ar
     6    15    16   ar
     7    16    17   ar
     8    11     1    1
     9     1     2   ar
    10     2    18    1
    11    18    19    1
    12    19    20    1
    13    20    21    1
    14    21    22    1
    15    22    23    1
    16     2     3   ar
    17     3     4   ar
    18     4     5   ar
    19     5     6   ar
    20     6     7   ar
    21     7     8   ar
    22     8     9   ar
    23    17    12   ar
    24     9     1   ar
    25    23    20    1
    26     9     4   ar
