@<TRIPOS>MOLECULE
*****
 42 47 0 0 0
SMALL
GASTEIGER

@<TRIPOS>ATOM
      1 N           7.1487   -4.0708   23.6124 N.3     1  UNL1       -0.2679
      2 C           7.5097   -5.2423   24.4769 C.3     1  UNL1        0.0978
      3 C           8.1234   -6.4659   23.8637 C.3     1  UNL1        0.0224
      4 C           8.4845   -7.6374   24.7282 C.3     1  UNL1        0.0065
      5 C           8.2319   -7.5852   26.2058 C.3     1  UNL1        0.0277
      6 C           7.6182   -6.3615   26.8190 C.ar    1  UNL1       -0.0073
      7 C           7.3656   -6.3093   28.2967 C.ar    1  UNL1       -0.0015
      8 C           6.7519   -5.0857   28.9098 C.ar    1  UNL1        0.0203
      9 C           6.3908   -3.9142   28.0454 C.ar    1  UNL1        0.0985
     10 N           6.6434   -3.9664   26.5677 N.ar    1  UNL1       -0.2471
     11 C           7.2571   -5.1901   25.9545 C.ar    1  UNL1        0.0695
     12 C           8.1669   -3.0070   23.3273 C.3     1  UNL1        0.0725
     13 C           8.1621   -2.2993   22.0047 C.3     1  UNL1        0.0188
     14 C           8.4469   -3.0620   20.7449 C.3     1  UNL1        0.0188
     15 C           8.8387   -2.3285   19.4965 C.3     1  UNL1        0.0727
     16 N           7.9162   -1.3019   18.9090 N.3     1  UNL1       -0.2652
     17 C           8.0338    0.1355   19.3212 C.3     1  UNL1        0.0994
     18 C           4.3745    2.4108   20.6184 C.ar    1  UNL1       -0.0000
     19 C           5.2000    1.6767   21.6331 C.ar    1  UNL1       -0.0003
     20 C           6.4198    0.9182   21.2007 C.ar    1  UNL1       -0.0029
     21 C           6.8140    0.8939   19.7536 C.ar    1  UNL1       -0.0061
     22 C           5.9885    1.6281   18.7390 C.ar    1  UNL1       -0.0029
     23 C           4.7688    2.3865   19.1713 C.ar    1  UNL1       -0.0003
     24 C           6.8762   -1.7127   17.9092 C.3     1  UNL1        0.0994
     25 C           5.6473   -2.4435   18.3626 C.ar    1  UNL1       -0.0061
     26 C           5.6865   -3.9309   18.5529 C.ar    1  UNL1       -0.0029
     27 C           4.4575   -4.6617   19.0064 C.ar    1  UNL1       -0.0003
     28 C           3.1893   -3.9051   19.2696 C.ar    1  UNL1       -0.0000
     29 C           3.1501   -2.4178   19.0793 C.ar    1  UNL1       -0.0003
     30 C           4.3791   -1.6869   18.6258 C.ar    1  UNL1       -0.0029
     31 C           5.7693   -3.9632   23.0331 C.3     1  UNL1        0.0886
     32 C           4.8753   -2.8262   23.4309 C.3     1  UNL1        0.0748
     33 C           4.0190   -2.1498   22.4018 C.3     1  UNL1        0.0432
     34 C           3.1250   -1.0129   22.7996 C.ar    1  UNL1       -0.0234
     35 C           2.2688   -0.3365   21.7705 C.ar    1  UNL1       -0.0045
     36 C           1.3749    0.8004   22.1683 C.ar    1  UNL1       -0.0003
     37 C           1.3372    1.2609   23.5954 C.ar    1  UNL1       -0.0003
     38 C           2.1935    0.5845   24.6246 C.ar    1  UNL1       -0.0032
     39 C           3.0874   -0.5524   24.2267 C.ar    1  UNL1       -0.0103
     40 C           3.9437   -1.2288   25.2559 C.3     1  UNL1        0.0953
     41 N           4.8376   -2.3657   24.8580 N.3     1  UNL1       -0.2934
     42 H           4.5587   -3.1701   25.4197 H       1  UNL1        0.1236
@<TRIPOS>BOND
     1    18    19   ar
     2    19    20   ar
     3    20    21   ar
     4    21    17    1
     5    17    16    1
     6    16    15    1
     7    15    14    1
     8    14    13    1
     9    13    12    1
    10    12     1    1
    11     1    31    1
    12    32    31    1
    13    32    33    1
    14    33    34    1
    15    34    35   ar
    16    35    36   ar
    17    36    37   ar
    18    37    38   ar
    19    38    39   ar
    20    39    40    1
    21    40    41    1
    22     2     1    1
    23     2     3    1
    24     3     4    1
    25     4     5    1
    26     5     6    1
    27     6     7   ar
    28     7     8   ar
    29     8     9   ar
    30     9    10   ar
    31    10    11   ar
    32    16    24    1
    33    24    25    1
    34    25    26   ar
    35    26    27   ar
    36    27    28   ar
    37    28    29   ar
    38    29    30   ar
    39    21    22   ar
    40    22    23   ar
    41    23    18   ar
    42    41    32    1
    43    11     2    1
    44    30    25   ar
    45    39    34   ar
    46    11     6   ar
    47    41    42    1
@<TRIPOS>MOLECULE
*****
 42 47 0 0 0
SMALL
GASTEIGER

@<TRIPOS>ATOM
      1 N           7.1977   -4.0191   23.7404 N.3     1  UNL1       -0.2679
      2 C           7.5757   -5.2359   24.5318 C.3     1  UNL1        0.0978
      3 C           8.2070   -6.4108   23.8454 C.3     1  UNL1        0.0224
      4 C           8.5849   -7.6276   24.6369 C.3     1  UNL1        0.0065
      5 C           8.3316   -7.6697   26.1147 C.3     1  UNL1        0.0277
      6 C           7.7003   -6.4948   26.8011 C.ar    1  UNL1       -0.0073
      7 C           7.4470   -6.5368   28.2790 C.ar    1  UNL1       -0.0015
      8 C           6.8157   -5.3620   28.9654 C.ar    1  UNL1        0.0203
      9 C           6.4378   -4.1451   28.1740 C.ar    1  UNL1        0.0985
     10 N           6.6911   -4.1031   26.6962 N.ar    1  UNL1       -0.2471
     11 C           7.3224   -5.2780   26.0097 C.ar    1  UNL1        0.0695
     12 C           8.1768   -2.8939   23.5813 C.3     1  UNL1        0.0725
     13 C           8.1302   -2.0264   22.3584 C.3     1  UNL1        0.0188
     14 C           9.2814   -2.0231   21.3968 C.3     1  UNL1        0.0188
     15 C           9.0605   -2.3973   19.9612 C.3     1  UNL1        0.0727
     16 N           8.2127   -1.5271   19.0813 N.3     1  UNL1       -0.2652
     17 C           7.2843   -2.1499   18.0812 C.3     1  UNL1        0.0994
     18 C           3.2082   -3.5577   19.3673 C.ar    1  UNL1       -0.0000
     19 C           4.3978   -4.4573   19.5285 C.ar    1  UNL1       -0.0003
     20 C           5.7565   -3.9880   19.0998 C.ar    1  UNL1       -0.0029
     21 C           5.9256   -2.6192   18.5099 C.ar    1  UNL1       -0.0061
     22 C           4.7361   -1.7198   18.3488 C.ar    1  UNL1       -0.0029
     23 C           3.3774   -2.1890   18.7775 C.ar    1  UNL1       -0.0003
     24 C           8.2934   -0.0341   19.2015 C.3     1  UNL1        0.0994
     25 C           7.0425    0.7718   19.3906 C.ar    1  UNL1       -0.0061
     26 C           6.4797    1.5627   18.2470 C.ar    1  UNL1       -0.0029
     27 C           5.2288    2.3686   18.4362 C.ar    1  UNL1       -0.0003
     28 C           4.5408    2.3837   19.7690 C.ar    1  UNL1       -0.0000
     29 C           5.1036    1.5929   20.9126 C.ar    1  UNL1       -0.0003
     30 C           6.3545    0.7869   20.7234 C.ar    1  UNL1       -0.0029
     31 C           5.8406   -3.9273   23.1081 C.3     1  UNL1        0.0886
     32 C           4.9146   -2.8070   23.4790 C.3     1  UNL1        0.0748
     33 C           4.0972   -2.1279   22.4204 C.3     1  UNL1        0.0432
     34 C           3.1711   -1.0077   22.7913 C.ar    1  UNL1       -0.0234
     35 C           2.3538   -0.3286   21.7327 C.ar    1  UNL1       -0.0045
     36 C           1.4278    0.7916   22.1037 C.ar    1  UNL1       -0.0003
     37 C           1.3191    1.2327   23.5332 C.ar    1  UNL1       -0.0003
     38 C           2.1365    0.5536   24.5918 C.ar    1  UNL1       -0.0032
     39 C           3.0625   -0.5666   24.2209 C.ar    1  UNL1       -0.0103
     40 C           3.8799   -1.2458   25.2795 C.3     1  UNL1        0.0953
     41 N           4.8059   -2.3660   24.9086 N.3     1  UNL1       -0.2934
     42 H           4.5123   -3.1812   25.4468 H       1  UNL1        0.1236
@<TRIPOS>BOND
     1    18    19   ar
     2    19    20   ar
     3    20    21   ar
     4    21    17    1
     5    17    16    1
     6    16    15    1
     7    15    14    1
     8    14    13    1
     9    13    12    1
    10    12     1    1
    11     1    31    1
    12    32    31    1
    13    32    33    1
    14    33    34    1
    15    34    35   ar
    16    35    36   ar
    17    36    37   ar
    18    37    38   ar
    19    38    39   ar
    20    39    40    1
    21    40    41    1
    22     2     1    1
    23     2     3    1
    24     3     4    1
    25     4     5    1
    26     5     6    1
    27     6     7   ar
    28     7     8   ar
    29     8     9   ar
    30     9    10   ar
    31    10    11   ar
    32    16    24    1
    33    24    25    1
    34    25    26   ar
    35    26    27   ar
    36    27    28   ar
    37    28    29   ar
    38    29    30   ar
    39    21    22   ar
    40    22    23   ar
    41    23    18   ar
    42    41    32    1
    43    11     2    1
    44    30    25   ar
    45    39    34   ar
    46    11     6   ar
    47    41    42    1
@<TRIPOS>MOLECULE
*****
 42 47 0 0 0
SMALL
GASTEIGER

@<TRIPOS>ATOM
      1 N           0.0746    2.2113   20.5114 N.3     1  UNL1       -0.2679
      2 C          -0.5727    3.1637   19.5502 C.3     1  UNL1        0.0978
      3 C           0.2404    3.7988   18.4615 C.3     1  UNL1        0.0224
      4 C          -0.4069    4.7512   17.5002 C.3     1  UNL1        0.0065
      5 C          -1.8674    5.0684   17.6277 C.3     1  UNL1        0.0277
      6 C          -2.6805    4.4333   18.7164 C.ar    1  UNL1       -0.0073
      7 C          -4.1411    4.7505   18.8439 C.ar    1  UNL1       -0.0015
      8 C          -4.9543    4.1153   19.9326 C.ar    1  UNL1        0.0203
      9 C          -4.3070    3.1630   20.8938 C.ar    1  UNL1        0.0985
     10 N          -2.8465    2.8458   20.7664 N.ar    1  UNL1       -0.2471
     11 C          -2.0332    3.4809   19.6776 C.ar    1  UNL1        0.0695
     12 C           0.6122    2.7145   21.8182 C.3     1  UNL1        0.0725
     13 C           1.9645    3.3614   21.8737 C.3     1  UNL1        0.0188
     14 C           3.1915    2.5195   22.0620 C.3     1  UNL1        0.0188
     15 C           3.6252    2.1243   23.4425 C.3     1  UNL1        0.0727
     16 N           3.2100    0.7986   24.0083 N.3     1  UNL1       -0.2652
     17 C           3.0273   -0.3807   23.0996 C.3     1  UNL1        0.0994
     18 C           6.5656   -2.9223   21.9722 C.ar    1  UNL1       -0.0000
     19 C           5.4320   -3.5187   22.7528 C.ar    1  UNL1       -0.0003
     20 C           4.2525   -2.6715   23.1286 C.ar    1  UNL1       -0.0029
     21 C           4.2067   -1.2279   22.7238 C.ar    1  UNL1       -0.0061
     22 C           5.3402   -0.6315   21.9432 C.ar    1  UNL1       -0.0029
     23 C           6.5197   -1.4787   21.5674 C.ar    1  UNL1       -0.0003
     24 C           2.9777    0.6522   25.4830 C.3     1  UNL1        0.0994
     25 C           1.6724    1.0836   26.0830 C.ar    1  UNL1       -0.0061
     26 C           0.5381    1.4975   25.1929 C.ar    1  UNL1       -0.0029
     27 C          -0.7672    1.9288   25.7930 C.ar    1  UNL1       -0.0003
     28 C          -0.9383    1.9464   27.2831 C.ar    1  UNL1       -0.0000
     29 C           0.1959    1.5325   28.1731 C.ar    1  UNL1       -0.0003
     30 C           1.5013    1.1011   27.5731 C.ar    1  UNL1       -0.0029
     31 C           0.1843    0.7558   20.1658 C.3     1  UNL1        0.0886
     32 C           1.4648    0.2127   19.6042 C.3     1  UNL1        0.0748
     33 C           1.8395   -1.2202   19.8411 C.3     1  UNL1        0.0432
     34 C           3.1200   -1.7634   19.2795 C.ar    1  UNL1       -0.0234
     35 C           3.4947   -3.1963   19.5164 C.ar    1  UNL1       -0.0045
     36 C           4.7752   -3.7394   18.9547 C.ar    1  UNL1       -0.0003
     37 C           5.6810   -2.8494   18.1562 C.ar    1  UNL1       -0.0003
     38 C           5.3062   -1.4165   17.9193 C.ar    1  UNL1       -0.0032
     39 C           4.0258   -0.8734   18.4809 C.ar    1  UNL1       -0.0103
     40 C           3.6510    0.5596   18.2440 C.3     1  UNL1        0.0953
     41 N           2.3706    1.1026   18.8057 N.3     1  UNL1       -0.2934
     42 H           1.8245    1.4456   18.0154 H       1  UNL1        0.1236
@<TRIPOS>BOND
     1    18    19   ar
     2    19    20   ar
     3    20    21   ar
     4    21    17    1
     5    17    16    1
     6    16    15    1
     7    15    14    1
     8    14    13    1
     9    13    12    1
    10    12     1    1
    11     1    31    1
    12    32    31    1
    13    32    33    1
    14    33    34    1
    15    34    35   ar
    16    35    36   ar
    17    36    37   ar
    18    37    38   ar
    19    38    39   ar
    20    39    40    1
    21    40    41    1
    22     2     1    1
    23     2     3    1
    24     3     4    1
    25     4     5    1
    26     5     6    1
    27     6     7   ar
    28     7     8   ar
    29     8     9   ar
    30     9    10   ar
    31    10    11   ar
    32    16    24    1
    33    24    25    1
    34    25    26   ar
    35    26    27   ar
    36    27    28   ar
    37    28    29   ar
    38    29    30   ar
    39    21    22   ar
    40    22    23   ar
    41    23    18   ar
    42    41    32    1
    43    11     2    1
    44    30    25   ar
    45    39    34   ar
    46    11     6   ar
    47    41    42    1
@<TRIPOS>MOLECULE
*****
 42 47 0 0 0
SMALL
GASTEIGER

@<TRIPOS>ATOM
      1 N           3.5894    0.3448   25.5037 N.3     1  UNL1       -0.2679
      2 C           2.2148    0.7869   25.9099 C.3     1  UNL1        0.0978
      3 C           1.1639    1.0232   24.8661 C.3     1  UNL1        0.0224
      4 C          -0.2107    1.4654   25.2723 C.3     1  UNL1        0.0065
      5 C          -0.5344    1.6712   26.7224 C.3     1  UNL1        0.0277
      6 C           0.5165    1.4349   27.7662 C.ar    1  UNL1       -0.0073
      7 C           0.1929    1.6407   29.2164 C.ar    1  UNL1       -0.0015
      8 C           1.2437    1.4044   30.2603 C.ar    1  UNL1        0.0203
      9 C           2.6183    0.9623   29.8541 C.ar    1  UNL1        0.0985
     10 N           2.9421    0.7565   28.4040 N.ar    1  UNL1       -0.2471
     11 C           1.8911    0.9928   27.3600 C.ar    1  UNL1        0.0695
     12 C           4.6084    1.3598   25.0778 C.3     1  UNL1        0.0725
     13 C           4.3088    2.2922   23.9415 C.3     1  UNL1        0.0188
     14 C           5.1700    2.2790   22.7135 C.3     1  UNL1        0.0188
     15 C           5.3060    3.5183   21.8796 C.3     1  UNL1        0.0727
     16 N           4.8323    3.5205   20.4563 N.3     1  UNL1       -0.2652
     17 C           5.8055    3.2754   19.3415 C.3     1  UNL1        0.0994
     18 C           6.5490   -0.9168   17.8846 C.ar    1  UNL1       -0.0000
     19 C           5.8210    0.0624   17.0121 C.ar    1  UNL1       -0.0003
     20 C           5.5731    1.4598   17.4977 C.ar    1  UNL1       -0.0029
     21 C           6.0533    1.8780   18.8559 C.ar    1  UNL1       -0.0061
     22 C           6.7813    0.8989   19.7283 C.ar    1  UNL1       -0.0029
     23 C           7.0292   -0.4985   19.2427 C.ar    1  UNL1       -0.0003
     24 C           3.3853    3.7676   20.1479 C.3     1  UNL1        0.0994
     25 C           2.4310    2.6142   20.0534 C.ar    1  UNL1       -0.0061
     26 C           2.1620    1.9702   18.7256 C.ar    1  UNL1       -0.0029
     27 C           1.2077    0.8168   18.6310 C.ar    1  UNL1       -0.0003
     28 C           0.5223    0.3074   19.8642 C.ar    1  UNL1       -0.0000
     29 C           0.7912    0.9514   21.1919 C.ar    1  UNL1       -0.0003
     30 C           1.7456    2.1048   21.2866 C.ar    1  UNL1       -0.0029
     31 C           3.9451   -1.1122   25.5235 C.3     1  UNL1        0.0886
     32 C           4.2406   -1.8296   24.2397 C.3     1  UNL1        0.0748
     33 C           3.6100   -1.3671   22.9597 C.3     1  UNL1        0.0432
     34 C           3.9055   -2.0845   21.6759 C.ar    1  UNL1       -0.0234
     35 C           3.2749   -1.6220   20.3960 C.ar    1  UNL1       -0.0045
     36 C           3.5704   -2.3394   19.1123 C.ar    1  UNL1       -0.0003
     37 C           4.4966   -3.5193   19.1085 C.ar    1  UNL1       -0.0003
     38 C           5.1272   -3.9818   20.3885 C.ar    1  UNL1       -0.0032
     39 C           4.8317   -3.2644   21.6722 C.ar    1  UNL1       -0.0103
     40 C           5.4623   -3.7270   22.9522 C.3     1  UNL1        0.0953
     41 N           5.1668   -3.0096   24.2359 N.3     1  UNL1       -0.2934
     42 H           6.0606   -2.6834   24.6035 H       1  UNL1        0.1236
@<TRIPOS>BOND
     1    18    19   ar
     2    19    20   ar
     3    20    21   ar
     4    21    17    1
     5    17    16    1
     6    16    15    1
     7    15    14    1
     8    14    13    1
     9    13    12    1
    10    12     1    1
    11     1    31    1
    12    32    31    1
    13    32    33    1
    14    33    34    1
    15    34    35   ar
    16    35    36   ar
    17    36    37   ar
    18    37    38   ar
    19    38    39   ar
    20    39    40    1
    21    40    41    1
    22     2     1    1
    23     2     3    1
    24     3     4    1
    25     4     5    1
    26     5     6    1
    27     6     7   ar
    28     7     8   ar
    29     8     9   ar
    30     9    10   ar
    31    10    11   ar
    32    16    24    1
    33    24    25    1
    34    25    26   ar
    35    26    27   ar
    36    27    28   ar
    37    28    29   ar
    38    29    30   ar
    39    21    22   ar
    40    22    23   ar
    41    23    18   ar
    42    41    32    1
    43    11     2    1
    44    30    25   ar
    45    39    34   ar
    46    11     6   ar
    47    41    42    1
@<TRIPOS>MOLECULE
*****
 42 47 0 0 0
SMALL
GASTEIGER

@<TRIPOS>ATOM
      1 N           3.8886    0.1247   26.0097 N.3     1  UNL1       -0.2679
      2 C           3.1086    0.2388   27.2858 C.3     1  UNL1        0.0978
      3 C           3.3647   -0.7209   28.4097 C.3     1  UNL1        0.0224
      4 C           2.5847   -0.6069   29.6859 C.3     1  UNL1        0.0065
      5 C           1.5485    0.4670   29.8381 C.3     1  UNL1        0.0277
      6 C           1.2924    1.4267   28.7142 C.ar    1  UNL1       -0.0073
      7 C           0.2562    2.5006   28.8664 C.ar    1  UNL1       -0.0015
      8 C           0.0000    3.4603   27.7424 C.ar    1  UNL1        0.0203
      9 C           0.7800    3.3462   26.4663 C.ar    1  UNL1        0.0985
     10 N           1.8162    2.2724   26.3141 N.ar    1  UNL1       -0.2471
     11 C           2.0724    1.3126   27.4380 C.ar    1  UNL1        0.0695
     12 C           5.1074    0.9728   25.7972 C.3     1  UNL1        0.0725
     13 C           6.4338    0.3259   25.5285 C.3     1  UNL1        0.0188
     14 C           7.0071    0.3381   24.1425 C.3     1  UNL1        0.0188
     15 C           6.7055   -0.7859   23.1962 C.3     1  UNL1        0.0727
     16 N           7.2237   -0.7414   21.7892 N.3     1  UNL1       -0.2652
     17 C           7.4824   -2.0174   21.0444 C.3     1  UNL1        0.0994
     18 C           4.1019   -4.1281   18.9546 C.ar    1  UNL1       -0.0000
     19 C           5.0700   -3.2978   18.1650 C.ar    1  UNL1       -0.0003
     20 C           6.1969   -2.5942   18.8616 C.ar    1  UNL1       -0.0029
     21 C           6.3556   -2.7210   20.3478 C.ar    1  UNL1       -0.0061
     22 C           5.3875   -3.5513   21.1374 C.ar    1  UNL1       -0.0029
     23 C           4.2607   -4.2548   20.4408 C.ar    1  UNL1       -0.0003
     24 C           7.4831    0.5793   21.1270 C.3     1  UNL1        0.0994
     25 C           6.3775    1.2819   20.3962 C.ar    1  UNL1       -0.0061
     26 C           5.3932    2.1227   21.1541 C.ar    1  UNL1       -0.0029
     27 C           4.2876    2.8252   20.4234 C.ar    1  UNL1       -0.0003
     28 C           4.1662    2.6870   18.9347 C.ar    1  UNL1       -0.0000
     29 C           5.1504    1.8463   18.1768 C.ar    1  UNL1       -0.0003
     30 C           6.2561    1.1437   18.9075 C.ar    1  UNL1       -0.0029
     31 C           3.4498   -0.8375   24.9459 C.3     1  UNL1        0.0886
     32 C           2.7545   -0.3311   23.7170 C.3     1  UNL1        0.0748
     33 C           3.1689   -0.8261   22.3631 C.3     1  UNL1        0.0432
     34 C           2.4736   -0.3197   21.1342 C.ar    1  UNL1       -0.0234
     35 C           2.8880   -0.8147   19.7803 C.ar    1  UNL1       -0.0045
     36 C           2.1927   -0.3083   18.5514 C.ar    1  UNL1       -0.0003
     37 C           1.0829    0.6931   18.6766 C.ar    1  UNL1       -0.0003
     38 C           0.6685    1.1881   20.0305 C.ar    1  UNL1       -0.0032
     39 C           1.3638    0.6817   21.2593 C.ar    1  UNL1       -0.0103
     40 C           0.9494    1.1766   22.6133 C.3     1  UNL1        0.0953
     41 N           1.6447    0.6702   23.8422 N.3     1  UNL1       -0.2934
     42 H           0.9290    0.2445   24.4311 H       1  UNL1        0.1236
@<TRIPOS>BOND
     1    18    19   ar
     2    19    20   ar
     3    20    21   ar
     4    21    17    1
     5    17    16    1
     6    16    15    1
     7    15    14    1
     8    14    13    1
     9    13    12    1
    10    12     1    1
    11     1    31    1
    12    32    31    1
    13    32    33    1
    14    33    34    1
    15    34    35   ar
    16    35    36   ar
    17    36    37   ar
    18    37    38   ar
    19    38    39   ar
    20    39    40    1
    21    40    41    1
    22     2     1    1
    23     2     3    1
    24     3     4    1
    25     4     5    1
    26     5     6    1
    27     6     7   ar
    28     7     8   ar
    29     8     9   ar
    30     9    10   ar
    31    10    11   ar
    32    16    24    1
    33    24    25    1
    34    25    26   ar
    35    26    27   ar
    36    27    28   ar
    37    28    29   ar
    38    29    30   ar
    39    21    22   ar
    40    22    23   ar
    41    23    18   ar
    42    41    32    1
    43    11     2    1
    44    30    25   ar
    45    39    34   ar
    46    11     6   ar
    47    41    42    1
@<TRIPOS>MOLECULE
*****
 42 47 0 0 0
SMALL
GASTEIGER

@<TRIPOS>ATOM
      1 N           6.2290   -2.3621   22.1430 N.3     1  UNL1       -0.2679
      2 C           5.3529   -2.6495   20.9599 C.3     1  UNL1        0.0978
      3 C           4.5150   -3.8933   20.9316 C.3     1  UNL1        0.0224
      4 C           3.6390   -4.1808   19.7485 C.3     1  UNL1        0.0065
      5 C           3.6008   -3.2245   18.5935 C.3     1  UNL1        0.0277
      6 C           4.4387   -1.9807   18.6218 C.ar    1  UNL1       -0.0073
      7 C           4.4006   -1.0243   17.4668 C.ar    1  UNL1       -0.0015
      8 C           5.2385    0.2195   17.4950 C.ar    1  UNL1        0.0203
      9 C           6.1146    0.5070   18.6782 C.ar    1  UNL1        0.0985
     10 N           6.1527   -0.4493   19.8331 N.ar    1  UNL1       -0.2471
     11 C           5.3148   -1.6932   19.8049 C.ar    1  UNL1        0.0695
     12 C           5.7373   -1.4650   23.2400 C.3     1  UNL1        0.0725
     13 C           4.5778   -1.8885   24.0922 C.3     1  UNL1        0.0188
     14 C           3.6345   -0.8592   24.6406 C.3     1  UNL1        0.0188
     15 C           4.0293    0.5878   24.6547 C.3     1  UNL1        0.0727
     16 N           3.4865    1.5235   23.6155 N.3     1  UNL1       -0.2652
     17 C           3.9843    1.4454   22.2027 C.3     1  UNL1        0.0994
     18 C           1.1731    0.2801   18.8877 C.ar    1  UNL1       -0.0000
     19 C           1.9825    1.5382   18.7772 C.ar    1  UNL1       -0.0003
     20 C           2.9196    1.9267   19.8821 C.ar    1  UNL1       -0.0029
     21 C           3.0473    1.0570   21.0977 C.ar    1  UNL1       -0.0061
     22 C           2.2379   -0.2010   21.2082 C.ar    1  UNL1       -0.0029
     23 C           1.3008   -0.5895   20.1032 C.ar    1  UNL1       -0.0003
     24 C           2.4460    2.5373   23.9891 C.3     1  UNL1        0.0994
     25 C           1.6004    2.3290   25.2103 C.ar    1  UNL1       -0.0061
     26 C           1.9748    2.9904   26.5036 C.ar    1  UNL1       -0.0029
     27 C           1.1291    2.7821   27.7248 C.ar    1  UNL1       -0.0003
     28 C          -0.0909    1.9124   27.6529 C.ar    1  UNL1       -0.0000
     29 C          -0.4652    1.2510   26.3597 C.ar    1  UNL1       -0.0003
     30 C           0.3804    1.4593   25.1384 C.ar    1  UNL1       -0.0029
     31 C           7.5968   -2.9717   22.2293 C.3     1  UNL1        0.0886
     32 C           7.8110   -4.2234   23.0277 C.3     1  UNL1        0.0748
     33 C           7.4899   -4.2427   24.4928 C.3     1  UNL1        0.0432
     34 C           7.7042   -5.4943   25.2912 C.ar    1  UNL1       -0.0234
     35 C           7.3831   -5.5136   26.7563 C.ar    1  UNL1       -0.0045
     36 C           7.5974   -6.7652   27.5546 C.ar    1  UNL1       -0.0003
     37 C           8.1328   -7.9976   26.8879 C.ar    1  UNL1       -0.0003
     38 C           8.4539   -7.9784   25.4228 C.ar    1  UNL1       -0.0032
     39 C           8.2396   -6.7268   24.6245 C.ar    1  UNL1       -0.0103
     40 C           8.5607   -6.7075   23.1593 C.3     1  UNL1        0.0953
     41 N           8.3464   -5.4558   22.3610 N.3     1  UNL1       -0.2934
     42 H           7.6953   -5.6920   21.6122 H       1  UNL1        0.1236
@<TRIPOS>BOND
     1    18    19   ar
     2    19    20   ar
     3    20    21   ar
     4    21    17    1
     5    17    16    1
     6    16    15    1
     7    15    14    1
     8    14    13    1
     9    13    12    1
    10    12     1    1
    11     1    31    1
    12    32    31    1
    13    32    33    1
    14    33    34    1
    15    34    35   ar
    16    35    36   ar
    17    36    37   ar
    18    37    38   ar
    19    38    39   ar
    20    39    40    1
    21    40    41    1
    22     2     1    1
    23     2     3    1
    24     3     4    1
    25     4     5    1
    26     5     6    1
    27     6     7   ar
    28     7     8   ar
    29     8     9   ar
    30     9    10   ar
    31    10    11   ar
    32    16    24    1
    33    24    25    1
    34    25    26   ar
    35    26    27   ar
    36    27    28   ar
    37    28    29   ar
    38    29    30   ar
    39    21    22   ar
    40    22    23   ar
    41    23    18   ar
    42    41    32    1
    43    11     2    1
    44    30    25   ar
    45    39    34   ar
    46    11     6   ar
    47    41    42    1
@<TRIPOS>MOLECULE
*****
 42 47 0 0 0
SMALL
GASTEIGER

@<TRIPOS>ATOM
      1 N          -8.0197  -19.6957   21.6556 N.3     1  UNL1       -0.2679
      2 C          -9.1790  -19.0011   21.0048 C.3     1  UNL1        0.0978
      3 C         -10.3065  -19.8044   20.4273 C.3     1  UNL1        0.0224
      4 C         -11.4658  -19.1097   19.7765 C.3     1  UNL1        0.0065
      5 C         -11.4976  -17.6119   19.7032 C.3     1  UNL1        0.0277
      6 C         -10.3702  -16.8087   20.2807 C.ar    1  UNL1       -0.0073
      7 C         -10.4019  -15.3108   20.2074 C.ar    1  UNL1       -0.0015
      8 C          -9.2744  -14.5075   20.7849 C.ar    1  UNL1        0.0203
      9 C          -8.1151  -15.2021   21.4357 C.ar    1  UNL1        0.0985
     10 N          -8.0833  -16.7000   21.5090 N.ar    1  UNL1       -0.2471
     11 C          -9.2109  -17.5033   20.9315 C.ar    1  UNL1        0.0695
     12 C          -8.0721  -20.0347   23.1158 C.3     1  UNL1        0.0725
     13 C          -9.3319  -20.5889   23.7124 C.3     1  UNL1        0.0188
     14 C          -9.9106  -19.9707   24.9505 C.3     1  UNL1        0.0188
     15 C          -9.5661  -18.5568   25.3141 C.3     1  UNL1        0.0727
     16 N         -10.0916  -17.4205   24.4878 N.3     1  UNL1       -0.2652
     17 C          -9.5914  -16.0265   24.7252 C.3     1  UNL1        0.0994
     18 C          -5.5190  -15.3731   26.5249 C.ar    1  UNL1       -0.0000
     19 C          -5.6632  -15.5591   25.0434 C.ar    1  UNL1       -0.0003
     20 C          -7.0207  -15.7769   24.4435 C.ar    1  UNL1       -0.0029
     21 C          -8.2339  -15.8087   25.3251 C.ar    1  UNL1       -0.0061
     22 C          -8.0897  -15.6227   26.8065 C.ar    1  UNL1       -0.0029
     23 C          -6.7322  -15.4049   27.4064 C.ar    1  UNL1       -0.0003
     24 C         -11.1172  -17.6784   23.4240 C.3     1  UNL1        0.0994
     25 C         -12.5345  -17.9854   23.8073 C.ar    1  UNL1       -0.0061
     26 C         -12.8847  -18.2399   25.2436 C.ar    1  UNL1       -0.0029
     27 C         -14.3020  -18.5469   25.6269 C.ar    1  UNL1       -0.0003
     28 C         -15.3691  -18.5994   24.5741 C.ar    1  UNL1       -0.0000
     29 C         -15.0190  -18.3450   23.1379 C.ar    1  UNL1       -0.0003
     30 C         -13.6016  -18.0379   22.7545 C.ar    1  UNL1       -0.0029
     31 C          -6.8080  -20.0514   20.8462 C.3     1  UNL1        0.0886
     32 C          -5.5358  -19.2760   21.0201 C.3     1  UNL1        0.0748
     33 C          -4.5046  -19.2728   19.9308 C.3     1  UNL1        0.0432
     34 C          -3.2323  -18.4974   20.1047 C.ar    1  UNL1       -0.0234
     35 C          -2.2011  -18.4942   19.0155 C.ar    1  UNL1       -0.0045
     36 C          -0.9289  -17.7188   19.1894 C.ar    1  UNL1       -0.0003
     37 C          -0.6880  -16.9466   20.4526 C.ar    1  UNL1       -0.0003
     38 C          -1.7192  -16.9498   21.5419 C.ar    1  UNL1       -0.0032
     39 C          -2.9913  -17.7252   21.3679 C.ar    1  UNL1       -0.0103
     40 C          -4.0226  -17.7285   22.4572 C.3     1  UNL1        0.0953
     41 N          -5.2948  -18.5038   22.2833 N.3     1  UNL1       -0.2934
     42 H          -6.0609  -17.8362   22.3709 H       1  UNL1        0.1236
@<TRIPOS>BOND
     1    18    19   ar
     2    19    20   ar
     3    20    21   ar
     4    21    17    1
     5    17    16    1
     6    16    15    1
     7    15    14    1
     8    14    13    1
     9    13    12    1
    10    12     1    1
    11     1    31    1
    12    32    31    1
    13    32    33    1
    14    33    34    1
    15    34    35   ar
    16    35    36   ar
    17    36    37   ar
    18    37    38   ar
    19    38    39   ar
    20    39    40    1
    21    40    41    1
    22     2     1    1
    23     2     3    1
    24     3     4    1
    25     4     5    1
    26     5     6    1
    27     6     7   ar
    28     7     8   ar
    29     8     9   ar
    30     9    10   ar
    31    10    11   ar
    32    16    24    1
    33    24    25    1
    34    25    26   ar
    35    26    27   ar
    36    27    28   ar
    37    28    29   ar
    38    29    30   ar
    39    21    22   ar
    40    22    23   ar
    41    23    18   ar
    42    41    32    1
    43    11     2    1
    44    30    25   ar
    45    39    34   ar
    46    11     6   ar
    47    41    42    1
@<TRIPOS>MOLECULE
*****
 42 47 0 0 0
SMALL
GASTEIGER

@<TRIPOS>ATOM
      1 N          -8.0434  -19.6729   21.6468 N.3     1  UNL1       -0.2679
      2 C          -9.1914  -18.9556   21.0005 C.3     1  UNL1        0.0978
      3 C         -10.3283  -19.7372   20.4118 C.3     1  UNL1        0.0224
      4 C         -11.4762  -19.0200   19.7655 C.3     1  UNL1        0.0065
      5 C         -11.4874  -17.5212   19.7079 C.3     1  UNL1        0.0277
      6 C         -10.3505  -16.7396   20.2966 C.ar    1  UNL1       -0.0073
      7 C         -10.3616  -15.2407   20.2390 C.ar    1  UNL1       -0.0015
      8 C          -9.2248  -14.4591   20.8276 C.ar    1  UNL1        0.0203
      9 C          -8.0768  -15.1763   21.4739 C.ar    1  UNL1        0.0985
     10 N          -8.0656  -16.6751   21.5316 N.ar    1  UNL1       -0.2471
     11 C          -9.2025  -17.4568   20.9429 C.ar    1  UNL1        0.0695
     12 C          -8.1021  -20.0219   23.1044 C.3     1  UNL1        0.0725
     13 C          -9.3752  -20.5467   23.6993 C.3     1  UNL1        0.0188
     14 C          -9.8903  -19.9793   24.9887 C.3     1  UNL1        0.0188
     15 C          -9.5736  -18.5620   25.3639 C.3     1  UNL1        0.0727
     16 N         -10.0885  -17.4308   24.5240 N.3     1  UNL1       -0.2652
     17 C         -11.0976  -17.6957   23.4463 C.3     1  UNL1        0.0994
     18 C         -15.3704  -18.5933   24.5360 C.ar    1  UNL1       -0.0000
     19 C         -14.3131  -18.5746   25.5999 C.ar    1  UNL1       -0.0003
     20 C         -12.8888  -18.2754   25.2367 C.ar    1  UNL1       -0.0029
     21 C         -12.5218  -17.9949   23.8095 C.ar    1  UNL1       -0.0061
     22 C         -13.5791  -18.0136   22.7457 C.ar    1  UNL1       -0.0029
     23 C         -15.0034  -18.3128   23.1089 C.ar    1  UNL1       -0.0003
     24 C          -9.5943  -16.0347   24.7619 C.3     1  UNL1        0.0994
     25 C          -8.2345  -15.8112   25.3544 C.ar    1  UNL1       -0.0061
     26 C          -7.0167  -15.8698   24.4806 C.ar    1  UNL1       -0.0029
     27 C          -5.6570  -15.6463   25.0731 C.ar    1  UNL1       -0.0003
     28 C          -5.5150  -15.3642   26.5395 C.ar    1  UNL1       -0.0000
     29 C          -6.7327  -15.3056   27.4133 C.ar    1  UNL1       -0.0003
     30 C          -8.0925  -15.5291   26.8208 C.ar    1  UNL1       -0.0029
     31 C          -6.8367  -20.0410   20.8355 C.3     1  UNL1        0.0886
     32 C          -5.5574  -19.2761   21.0044 C.3     1  UNL1        0.0748
     33 C          -4.5319  -19.2788   19.9098 C.3     1  UNL1        0.0432
     34 C          -3.2526  -18.5138   20.0787 C.ar    1  UNL1       -0.0234
     35 C          -2.2271  -18.5165   18.9841 C.ar    1  UNL1       -0.0045
     36 C          -0.9479  -17.7516   19.1530 C.ar    1  UNL1       -0.0003
     37 C          -0.6943  -16.9841   20.4166 C.ar    1  UNL1       -0.0003
     38 C          -1.7198  -16.9814   21.5112 C.ar    1  UNL1       -0.0032
     39 C          -2.9990  -17.7463   21.3422 C.ar    1  UNL1       -0.0103
     40 C          -4.0246  -17.7436   22.4369 C.3     1  UNL1        0.0953
     41 N          -5.3038  -18.5085   22.2679 N.3     1  UNL1       -0.2934
     42 H          -6.0641  -17.8350   22.3609 H       1  UNL1        0.1236
@<TRIPOS>BOND
     1    18    19   ar
     2    19    20   ar
     3    20    21   ar
     4    21    17    1
     5    17    16    1
     6    16    15    1
     7    15    14    1
     8    14    13    1
     9    13    12    1
    10    12     1    1
    11     1    31    1
    12    32    31    1
    13    32    33    1
    14    33    34    1
    15    34    35   ar
    16    35    36   ar
    17    36    37   ar
    18    37    38   ar
    19    38    39   ar
    20    39    40    1
    21    40    41    1
    22     2     1    1
    23     2     3    1
    24     3     4    1
    25     4     5    1
    26     5     6    1
    27     6     7   ar
    28     7     8   ar
    29     8     9   ar
    30     9    10   ar
    31    10    11   ar
    32    16    24    1
    33    24    25    1
    34    25    26   ar
    35    26    27   ar
    36    27    28   ar
    37    28    29   ar
    38    29    30   ar
    39    21    22   ar
    40    22    23   ar
    41    23    18   ar
    42    41    32    1
    43    11     2    1
    44    30    25   ar
    45    39    34   ar
    46    11     6   ar
    47    41    42    1
@<TRIPOS>MOLECULE
*****
 42 47 0 0 0
SMALL
GASTEIGER

@<TRIPOS>ATOM
      1 N           0.1131    2.4462   20.2573 N.3     1  UNL1       -0.2679
      2 C          -0.7890    3.2094   19.3332 C.3     1  UNL1        0.0978
      3 C          -0.2603    3.7297   18.0295 C.3     1  UNL1        0.0224
      4 C          -1.1624    4.4929   17.1054 C.3     1  UNL1        0.0065
      5 C          -2.5930    4.7357   17.4851 C.3     1  UNL1        0.0277
      6 C          -3.1217    4.2154   18.7889 C.ar    1  UNL1       -0.0073
      7 C          -4.5524    4.4582   19.1686 C.ar    1  UNL1       -0.0015
      8 C          -5.0810    3.9379   20.4723 C.ar    1  UNL1        0.0203
      9 C          -4.1790    3.1747   21.3964 C.ar    1  UNL1        0.0985
     10 N          -2.7483    2.9319   21.0167 N.ar    1  UNL1       -0.2471
     11 C          -2.2196    3.4522   19.7129 C.ar    1  UNL1        0.0695
     12 C           0.9131    3.1751   21.2958 C.3     1  UNL1        0.0725
     13 C           0.3582    3.3593   22.6772 C.3     1  UNL1        0.0188
     14 C           0.2688    2.1895   23.6118 C.3     1  UNL1        0.0188
     15 C           1.2164    1.0364   23.4626 C.3     1  UNL1        0.0727
     16 N           2.6915    1.2513   23.6296 N.3     1  UNL1       -0.2652
     17 C           3.2327    1.7582   24.9335 C.3     1  UNL1        0.0994
     18 C           4.5809   -1.1491   28.0926 C.ar    1  UNL1       -0.0000
     19 C           3.1329   -0.7710   27.9902 C.ar    1  UNL1       -0.0003
     20 C           2.6835    0.1981   26.9372 C.ar    1  UNL1       -0.0029
     21 C           3.6821    0.7891   25.9865 C.ar    1  UNL1       -0.0061
     22 C           5.1300    0.4110   26.0889 C.ar    1  UNL1       -0.0029
     23 C           5.5794   -0.5581   27.1419 C.ar    1  UNL1       -0.0003
     24 C           3.6254    0.9594   22.4927 C.3     1  UNL1        0.0994
     25 C           4.4028   -0.3232   22.4711 C.ar    1  UNL1       -0.0061
     26 C           3.8797   -1.5295   23.1930 C.ar    1  UNL1       -0.0029
     27 C           4.6571   -2.8122   23.1714 C.ar    1  UNL1       -0.0003
     28 C           5.9576   -2.8885   22.4279 C.ar    1  UNL1       -0.0000
     29 C           6.4807   -1.6823   21.7060 C.ar    1  UNL1       -0.0003
     30 C           5.7033   -0.3995   21.7275 C.ar    1  UNL1       -0.0029
     31 C           0.2151    0.9541   20.1428 C.3     1  UNL1        0.0886
     32 C           1.4573    0.3282   19.5811 C.3     1  UNL1        0.0748
     33 C           1.8078   -1.0876   19.9311 C.3     1  UNL1        0.0432
     34 C           3.0499   -1.7136   19.3694 C.ar    1  UNL1       -0.0234
     35 C           3.4005   -3.1294   19.7194 C.ar    1  UNL1       -0.0045
     36 C           4.6426   -3.7552   19.1577 C.ar    1  UNL1       -0.0003
     37 C           5.5341   -2.9653   18.2459 C.ar    1  UNL1       -0.0003
     38 C           5.1835   -1.5495   17.8959 C.ar    1  UNL1       -0.0032
     39 C           3.9414   -0.9236   18.4576 C.ar    1  UNL1       -0.0103
     40 C           3.5908    0.4923   18.1076 C.3     1  UNL1        0.0953
     41 N           2.3487    1.1181   18.6693 N.3     1  UNL1       -0.2934
     42 H           1.7775    1.4040   17.8741 H       1  UNL1        0.1236
@<TRIPOS>BOND
     1    18    19   ar
     2    19    20   ar
     3    20    21   ar
     4    21    17    1
     5    17    16    1
     6    16    15    1
     7    15    14    1
     8    14    13    1
     9    13    12    1
    10    12     1    1
    11     1    31    1
    12    32    31    1
    13    32    33    1
    14    33    34    1
    15    34    35   ar
    16    35    36   ar
    17    36    37   ar
    18    37    38   ar
    19    38    39   ar
    20    39    40    1
    21    40    41    1
    22     2     1    1
    23     2     3    1
    24     3     4    1
    25     4     5    1
    26     5     6    1
    27     6     7   ar
    28     7     8   ar
    29     8     9   ar
    30     9    10   ar
    31    10    11   ar
    32    16    24    1
    33    24    25    1
    34    25    26   ar
    35    26    27   ar
    36    27    28   ar
    37    28    29   ar
    38    29    30   ar
    39    21    22   ar
    40    22    23   ar
    41    23    18   ar
    42    41    32    1
    43    11     2    1
    44    30    25   ar
    45    39    34   ar
    46    11     6   ar
    47    41    42    1
