@<TRIPOS>MOLECULE
*****
 32 34 0 0 0
SMALL
GASTEIGER

@<TRIPOS>ATOM
      1 C          -8.2909  -15.9503   23.6906 C.2     1  UNL1        0.2270
      2 O          -7.5678  -16.0505   22.3803 O.2     1  UNL1       -0.2748
      3 N          -7.5220  -15.7033   24.9547 N.am    1  UNL1       -0.2794
      4 C          -8.1048  -15.5799   26.3313 C.3     1  UNL1        0.0935
      5 C          -6.9783  -15.3368   27.2915 C.3     1  UNL1        0.0233
      6 C          -5.6993  -15.3100   26.5082 C.3     1  UNL1        0.0233
      7 C          -6.0354  -15.5365   25.0640 C.3     1  UNL1        0.0949
      8 C          -9.7830  -16.0969   23.7370 C.3     1  UNL1        0.1010
      9 N         -11.2197  -15.8003   21.5927 N.3     1  UNL1       -0.3215
     10 C         -10.5146  -16.6926   22.5708 C.3     1  UNL1        0.0644
     11 H         -11.0989  -14.8269   21.8722 H       1  UNL1        0.1188
     12 H         -12.2136  -16.0293   21.5789 H       1  UNL1        0.1188
     13 C         -10.5412  -18.1805   22.3828 C.3     1  UNL1        0.0447
     14 C          -9.4154  -18.8663   21.6668 C.ar    1  UNL1        0.0090
     15 C          -8.2152  -19.3370   22.4336 C.ar    1  UNL1        0.0300
     16 C          -7.0895  -20.0227   21.7177 C.ar    1  UNL1        0.1672
     17 F          -5.8893  -20.4935   22.4844 F       1  UNL1       -0.2018
     18 C          -7.1640  -20.2376   20.2350 C.ar    1  UNL1        0.1696
     19 F          -6.0382  -20.9234   19.5191 F       1  UNL1       -0.2017
     20 C          -8.3641  -19.7669   19.4683 C.ar    1  UNL1        0.0612
     21 C          -9.4898  -19.0812   20.1842 C.ar    1  UNL1        0.1386
     22 F         -10.6901  -18.6104   19.4174 F       1  UNL1       -0.2044
     23 C          -5.0566  -15.5873   23.9285 C.3     1  UNL1        0.1091
     24 N          -4.7099  -16.9022   23.2953 N.am    1  UNL1       -0.3026
     25 C          -3.5582  -16.9935   22.3386 C.2     1  UNL1        0.2276
     26 O          -2.7532  -15.7698   22.0150 O.2     1  UNL1       -0.2749
     27 H          -5.2382  -17.7053   23.5076 H       1  UNL1        0.1495
     28 C          -3.2115  -18.3084   21.7054 C.3     1  UNL1        0.1429
     29 C          -2.4463  -19.5983   21.7258 C.3     1  UNL1        0.0817
     30 C          -3.3765  -19.2958   20.5885 C.3     1  UNL1        0.2727
     31 F          -3.1966  -20.5383   19.7674 F       1  UNL1       -0.2038
     32 F          -4.3690  -18.5620   19.7364 F       1  UNL1       -0.2038
@<TRIPOS>BOND
     1    10     9    1
     2    10     8    1
     3     8     1    1
     4     1     2    2
     5     1     3   am
     6     3     4    1
     7     4     5    1
     8     5     6    1
     9     6     7    1
    10     7    23    1
    11    23    24    1
    12    24    25   am
    13    25    26    2
    14    25    28    1
    15    28    29    1
    16    29    30    1
    17    30    31    1
    18    30    32    1
    19    10    13    1
    20    13    14    1
    21    14    15   ar
    22    15    16   ar
    23    16    17    1
    24    16    18   ar
    25    18    19    1
    26    18    20   ar
    27    20    21   ar
    28    21    22    1
    29     7     3    1
    30    30    28    1
    31    21    14   ar
    32     9    11    1
    33     9    12    1
    34    24    27    1
@<TRIPOS>MOLECULE
*****
 32 34 0 0 0
SMALL
GASTEIGER

@<TRIPOS>ATOM
      1 C         -14.5487   -2.5316   17.6824 C.2     1  UNL1        0.2270
      2 O         -14.9161   -3.7120   16.8328 O.2     1  UNL1       -0.2748
      3 N         -15.5823   -1.8867   18.5575 N.am    1  UNL1       -0.2794
      4 C         -15.3638   -0.7061   19.4567 C.3     1  UNL1        0.0935
      5 C         -16.6623   -0.3989   20.1420 C.3     1  UNL1        0.0233
      6 C         -17.6832   -1.3896   19.6663 C.3     1  UNL1        0.0233
      7 C         -17.0157   -2.3090   18.6870 C.3     1  UNL1        0.0949
      8 C         -13.1478   -1.9961   17.6568 C.3     1  UNL1        0.1010
      9 N         -10.9883   -1.5290   19.0237 N.3     1  UNL1       -0.3215
     10 C         -12.1706   -2.4009   18.7205 C.3     1  UNL1        0.0644
     11 H         -11.0060   -0.7091   18.4172 H       1  UNL1        0.1188
     12 H         -10.1286   -2.0534   18.8613 H       1  UNL1        0.1188
     13 C         -12.3758   -3.6774   19.4809 C.3     1  UNL1        0.0447
     14 C         -11.8124   -4.9636   18.9534 C.ar    1  UNL1        0.0090
     15 C         -12.7307   -6.0175   18.4096 C.ar    1  UNL1        0.0300
     16 C         -12.1673   -7.3036   17.8820 C.ar    1  UNL1        0.1672
     17 F         -13.0856   -8.3577   17.3382 F       1  UNL1       -0.2018
     18 C         -10.6854   -7.5358   17.8983 C.ar    1  UNL1        0.1696
     19 F         -10.1220   -8.8220   17.3707 F       1  UNL1       -0.2017
     20 C          -9.7671   -6.4819   18.4421 C.ar    1  UNL1        0.0612
     21 C         -10.3306   -5.1957   18.9696 C.ar    1  UNL1        0.1386
     22 F          -9.4122   -4.1417   19.5135 F       1  UNL1       -0.2044
     23 C         -17.6673   -3.4505   17.9642 C.3     1  UNL1        0.1091
     24 N         -17.3449   -4.8640   18.3491 N.am    1  UNL1       -0.3026
     25 C         -18.1987   -5.5816   19.3521 C.2     1  UNL1        0.2276
     26 O         -19.3750   -4.8856   19.9703 O.2     1  UNL1       -0.2749
     27 H         -16.5729   -5.3207   17.9433 H       1  UNL1        0.1495
     28 C         -17.8763   -6.9951   19.7369 C.3     1  UNL1        0.1429
     29 C         -18.3261   -8.3550   20.1822 C.3     1  UNL1        0.0817
     30 C         -16.8680   -8.0833   19.9581 C.3     1  UNL1        0.2727
     31 F         -16.2972   -9.4282   20.2982 F       1  UNL1       -0.2038
     32 F         -15.6081   -7.3446   19.6160 F       1  UNL1       -0.2038
@<TRIPOS>BOND
     1    10     9    1
     2    10     8    1
     3     8     1    1
     4     1     2    2
     5     1     3   am
     6     3     4    1
     7     4     5    1
     8     5     6    1
     9     6     7    1
    10     7    23    1
    11    23    24    1
    12    24    25   am
    13    25    26    2
    14    25    28    1
    15    28    29    1
    16    29    30    1
    17    30    31    1
    18    30    32    1
    19    10    13    1
    20    13    14    1
    21    14    15   ar
    22    15    16   ar
    23    16    17    1
    24    16    18   ar
    25    18    19    1
    26    18    20   ar
    27    20    21   ar
    28    21    22    1
    29     7     3    1
    30    30    28    1
    31    21    14   ar
    32     9    11    1
    33     9    12    1
    34    24    27    1
@<TRIPOS>MOLECULE
*****
 32 34 0 0 0
SMALL
GASTEIGER

@<TRIPOS>ATOM
      1 C         -16.4434   -6.0064   18.3073 C.2     1  UNL1        0.2270
      2 O         -15.2238   -5.9095   17.4395 O.2     1  UNL1       -0.2748
      3 N         -16.7436   -7.2807   19.0394 N.am    1  UNL1       -0.2794
      4 C         -17.9192   -7.5251   19.9385 C.3     1  UNL1        0.0935
      5 C         -17.8231   -8.9298   20.4557 C.3     1  UNL1        0.0233
      6 C         -16.5882   -9.5536   19.8762 C.3     1  UNL1        0.0233
      7 C         -15.9210   -8.5344   19.0009 C.3     1  UNL1        0.0949
      8 C         -17.3628   -4.8290   18.4431 C.3     1  UNL1        0.1010
      9 N         -17.2996   -2.2913   17.8900 N.3     1  UNL1       -0.3215
     10 C         -16.7982   -3.4605   18.6847 C.3     1  UNL1        0.0644
     11 H         -18.0168   -2.6066   17.2368 H       1  UNL1        0.1188
     12 H         -16.5259   -1.8761   17.3709 H       1  UNL1        0.1188
     13 C         -15.7322   -3.2611   19.7210 C.3     1  UNL1        0.0447
     14 C         -14.3992   -2.6971   19.3270 C.ar    1  UNL1        0.0090
     15 C         -14.2858   -1.2600   18.9126 C.ar    1  UNL1        0.0300
     16 C         -12.9528   -0.6961   18.5186 C.ar    1  UNL1        0.1672
     17 F         -12.8393    0.7411   18.1042 F       1  UNL1       -0.2018
     18 C         -11.7334   -1.5693   18.5390 C.ar    1  UNL1        0.1696
     19 F         -10.4004   -1.0054   18.1450 F       1  UNL1       -0.2017
     20 C         -11.8469   -3.0065   18.9534 C.ar    1  UNL1        0.0612
     21 C         -13.1798   -3.5704   19.3474 C.ar    1  UNL1        0.1386
     22 F         -13.2933   -5.0076   19.7618 F       1  UNL1       -0.2044
     23 C         -14.6538   -8.7339   18.2236 C.3     1  UNL1        0.1091
     24 N         -13.4176   -7.9699   18.5954 N.am    1  UNL1       -0.3026
     25 C         -12.4124   -7.6108   17.5416 C.2     1  UNL1        0.2276
     26 O         -12.6435   -8.0156   16.1158 O.2     1  UNL1       -0.2749
     27 H         -13.2659   -7.7042   19.5312 H       1  UNL1        0.1495
     28 C         -11.1763   -6.8468   17.9135 C.3     1  UNL1        0.1429
     29 C         -10.1146   -6.5017   18.9154 C.3     1  UNL1        0.0817
     30 C         -10.0969   -5.8686   17.5556 C.3     1  UNL1        0.2727
     31 F          -8.8764   -5.0063   17.6858 F       1  UNL1       -0.2038
     32 F         -10.5030   -5.5350   16.1508 F       1  UNL1       -0.2038
@<TRIPOS>BOND
     1    10     9    1
     2    10     8    1
     3     8     1    1
     4     1     2    2
     5     1     3   am
     6     3     4    1
     7     4     5    1
     8     5     6    1
     9     6     7    1
    10     7    23    1
    11    23    24    1
    12    24    25   am
    13    25    26    2
    14    25    28    1
    15    28    29    1
    16    29    30    1
    17    30    31    1
    18    30    32    1
    19    10    13    1
    20    13    14    1
    21    14    15   ar
    22    15    16   ar
    23    16    17    1
    24    16    18   ar
    25    18    19    1
    26    18    20   ar
    27    20    21   ar
    28    21    22    1
    29     7     3    1
    30    30    28    1
    31    21    14   ar
    32     9    11    1
    33     9    12    1
    34    24    27    1
