@<TRIPOS>MOLECULE
*****
 38 42 0 0 0
SMALL
GASTEIGER

@<TRIPOS>ATOM
      1 C           0.0088    5.4552   20.6348 C.3     1  UNL1        0.0972
      2 C           1.2426    5.1881   21.4450 C.3     1  UNL1        0.0431
      3 C           0.8275    4.4853   22.7035 C.3     1  UNL1        0.0968
      4 N          -0.6628    4.3180   22.6711 N.am    1  UNL1       -0.2623
      5 C          -1.5001    3.6658   23.7311 C.2     1  UNL1        0.3073
      6 O          -2.9872    3.5711   23.5595 O.2     1  UNL1       -0.2523
      7 N          -0.8502    3.1084   24.9628 N.am    1  UNL1       -0.2626
      8 C           0.6175    3.1297   25.2718 C.3     1  UNL1        0.0964
      9 C           0.8208    2.4663   26.6017 C.3     1  UNL1        0.0390
     10 C          -0.5212    2.0350   27.1146 C.3     1  UNL1        0.0758
     11 C          -1.5539    2.4319   26.1017 C.3     1  UNL1        0.1106
     12 C          -1.1688    4.9174   21.3926 C.3     1  UNL1        0.1147
     13 C           0.5267    5.4611   18.0889 C.2     1  UNL1        0.2491
     14 O           0.4788    6.1458   16.7551 O.2     1  UNL1       -0.2699
     15 N          -0.0391    6.1398   19.3010 N.am    1  UNL1       -0.2742
     16 C          -0.6527    7.5032   19.1794 C.3     1  UNL1        0.1152
     17 C           2.3675    1.3711   18.4538 C.ar    1  UNL1        0.0000
     18 C           0.8780    1.5169   18.3524 C.ar    1  UNL1        0.0001
     19 C           0.2644    2.8802   18.2308 C.ar    1  UNL1        0.0045
     20 C           1.1403    4.0978   18.2105 C.ar    1  UNL1        0.0536
     21 C           2.6297    3.9520   18.3119 C.ar    1  UNL1        0.0045
     22 C           3.2433    2.5886   18.4335 C.ar    1  UNL1        0.0001
     23 C           4.2082   -2.7189   18.8186 C.ar    1  UNL1       -0.0222
     24 C           3.2104   -2.2520   19.8366 C.ar    1  UNL1       -0.0043
     25 C           2.5968   -0.8887   19.7150 C.ar    1  UNL1       -0.0003
     26 C           2.9810    0.0077   18.5754 C.ar    1  UNL1       -0.0000
     27 C           3.9789   -0.4592   17.5574 C.ar    1  UNL1       -0.0003
     28 C           4.5925   -1.8225   17.6790 C.ar    1  UNL1       -0.0043
     29 C           3.9618   -5.2647   19.2751 C.3     1  UNL1        0.0050
     30 C           4.8218   -4.0823   18.9402 C.3     1  UNL1        0.0264
     31 N          -0.7843    1.3306   28.4124 N.3     1  UNL1       -0.2980
     32 H          -1.2247    0.4404   28.1803 H       1  UNL1        0.1232
     33 C           0.3518    1.0223   29.3421 C.3     1  UNL1        0.0590
     34 C           1.1793   -0.2110   29.1322 C.3     1  UNL1        0.0478
     35 C           2.3153   -0.5193   30.0619 C.3     1  UNL1        0.1435
     36 O           2.6239    0.4058   31.2016 O.3     1  UNL1       -0.3537
     37 C           1.7964    1.6391   31.4117 C.3     1  UNL1        0.1435
     38 C           0.6603    1.9475   30.4819 C.3     1  UNL1        0.0478
@<TRIPOS>BOND
     1    29    30    1
     2    30    23    1
     3    23    24   ar
     4    24    25   ar
     5    25    26   ar
     6    26    17    1
     7    17    18   ar
     8    18    19   ar
     9    19    20   ar
    10    20    13    1
    11    13    14    2
    12    13    15   am
    13    15    16    1
    14     1    15    1
    15     1     2    1
    16     2     3    1
    17     3     4    1
    18     4     5   am
    19     5     6    2
    20     5     7   am
    21     7     8    1
    22     8     9    1
    23     9    10    1
    24    10    31    1
    25    31    33    1
    26    33    34    1
    27    34    35    1
    28    35    36    1
    29    36    37    1
    30    37    38    1
    31    10    11    1
    32     4    12    1
    33    20    21   ar
    34    21    22   ar
    35    26    27   ar
    36    27    28   ar
    37    28    23   ar
    38    22    17   ar
    39    12     1    1
    40    11     7    1
    41    38    33    1
    42    31    32    1
@<TRIPOS>MOLECULE
*****
 38 42 0 0 0
SMALL
GASTEIGER

@<TRIPOS>ATOM
      1 C           4.5477   -0.0045   19.6226 C.3     1  UNL1        0.0972
      2 C           5.2607    0.6503   20.7683 C.3     1  UNL1        0.0431
      3 C           4.2309    1.0786   21.7713 C.3     1  UNL1        0.0968
      4 N           2.8813    0.6885   21.2453 N.am    1  UNL1       -0.2623
      5 C           1.5667    0.9261   21.9276 C.2     1  UNL1        0.3073
      6 O           0.2920    0.4778   21.2764 O.2     1  UNL1       -0.2523
      7 N           1.5269    1.6120   23.2610 N.am    1  UNL1       -0.2626
      8 C           2.7131    2.1136   24.0302 C.3     1  UNL1        0.0964
      9 C           2.2132    2.7283   25.3039 C.3     1  UNL1        0.0390
     10 C           0.7183    2.6067   25.3219 C.3     1  UNL1        0.0758
     11 C           0.2941    1.9168   24.0593 C.3     1  UNL1        0.1106
     12 C           3.0772    0.0191   19.9174 C.3     1  UNL1        0.1147
     13 C           6.0701   -1.7924   18.5109 C.2     1  UNL1        0.2491
     14 O           6.7145   -2.3695   17.2855 O.2     1  UNL1       -0.2699
     15 N           5.1921   -0.5816   18.3971 N.am    1  UNL1       -0.2742
     16 C           4.9585    0.0521   17.0577 C.3     1  UNL1        0.1152
     17 C           6.7711   -3.6936   22.5289 C.ar    1  UNL1        0.0000
     18 C           5.4487   -3.8602   21.8408 C.ar    1  UNL1        0.0001
     19 C           5.2151   -3.2265   20.5015 C.ar    1  UNL1        0.0045
     20 C           6.3038   -2.4262   19.8503 C.ar    1  UNL1        0.0536
     21 C           7.6262   -2.2596   20.5384 C.ar    1  UNL1        0.0045
     22 C           7.8598   -2.8933   21.8777 C.ar    1  UNL1        0.0001
     23 C           7.4720   -5.5949   26.5469 C.ar    1  UNL1       -0.0222
     24 C           7.9069   -6.3009   25.2970 C.ar    1  UNL1       -0.0043
     25 C           7.6732   -5.6672   23.9576 C.ar    1  UNL1       -0.0003
     26 C           7.0047   -4.3274   23.8682 C.ar    1  UNL1       -0.0000
     27 C           6.5699   -3.6213   25.1182 C.ar    1  UNL1       -0.0003
     28 C           6.8035   -4.2551   26.4575 C.ar    1  UNL1       -0.0043
     29 C           7.0200   -5.6834   29.1038 C.3     1  UNL1        0.0050
     30 C           7.7057   -6.2286   27.8862 C.3     1  UNL1        0.0264
     31 N          -0.1926    3.0900   26.4111 N.3     1  UNL1       -0.2980
     32 H          -1.1401    3.0679   26.0341 H       1  UNL1        0.1232
     33 C          -0.2337    2.3727   27.7278 C.3     1  UNL1        0.0590
     34 C          -1.0777    1.1428   27.8859 C.3     1  UNL1        0.0478
     35 C          -1.1188    0.4254   29.2026 C.3     1  UNL1        0.1435
     36 O          -0.3159    0.9380   30.3613 O.3     1  UNL1       -0.3537
     37 C           0.5281    2.1680   30.2034 C.3     1  UNL1        0.1435
     38 C           0.5692    2.8854   28.8866 C.3     1  UNL1        0.0478
@<TRIPOS>BOND
     1    29    30    1
     2    30    23    1
     3    23    24   ar
     4    24    25   ar
     5    25    26   ar
     6    26    17    1
     7    17    18   ar
     8    18    19   ar
     9    19    20   ar
    10    20    13    1
    11    13    14    2
    12    13    15   am
    13    15    16    1
    14     1    15    1
    15     1     2    1
    16     2     3    1
    17     3     4    1
    18     4     5   am
    19     5     6    2
    20     5     7   am
    21     7     8    1
    22     8     9    1
    23     9    10    1
    24    10    31    1
    25    31    33    1
    26    33    34    1
    27    34    35    1
    28    35    36    1
    29    36    37    1
    30    37    38    1
    31    10    11    1
    32     4    12    1
    33    20    21   ar
    34    21    22   ar
    35    26    27   ar
    36    27    28   ar
    37    28    23   ar
    38    22    17   ar
    39    12     1    1
    40    11     7    1
    41    38    33    1
    42    31    32    1
@<TRIPOS>MOLECULE
*****
 38 42 0 0 0
SMALL
GASTEIGER

@<TRIPOS>ATOM
      1 C          -0.8479    4.2309   23.9950 C.3     1  UNL1        0.0972
      2 C          -1.7822    3.2088   24.5716 C.3     1  UNL1        0.0431
      3 C          -1.0574    2.4838   25.6666 C.3     1  UNL1        0.0968
      4 N           0.3248    3.0578   25.7668 N.am    1  UNL1       -0.2623
      5 C           1.3904    2.6276   26.7308 C.2     1  UNL1        0.3073
      6 O           2.7323    3.2976   26.7135 O.2     1  UNL1       -0.2523
      7 N           1.1141    1.5273   27.7122 N.am    1  UNL1       -0.2626
      8 C          -0.1729    0.7686   27.8468 C.3     1  UNL1        0.0964
      9 C          -0.0062   -0.2350   28.9490 C.3     1  UNL1        0.0390
     10 C           1.3838   -0.0966   29.4956 C.3     1  UNL1        0.0758
     11 C           2.0762    0.9926   28.7312 C.3     1  UNL1        0.1106
     12 C           0.4543    4.1375   24.7337 C.3     1  UNL1        0.1147
     13 C          -0.6740    4.8886   21.4875 C.2     1  UNL1        0.2491
     14 O          -0.9869    5.8374   20.3687 O.2     1  UNL1       -0.2699
     15 N          -1.1608    5.1797   22.8761 N.am    1  UNL1       -0.2742
     16 C          -1.9605    6.4198   23.1459 C.3     1  UNL1        0.1152
     17 C           1.7252    1.1685   20.6782 C.ar    1  UNL1        0.0000
     18 C           2.4226    2.4485   21.0322 C.ar    1  UNL1        0.0001
     19 C           1.6228    3.6885   21.3020 C.ar    1  UNL1        0.0045
     20 C           0.1258    3.6486   21.2177 C.ar    1  UNL1        0.0536
     21 C          -0.5716    2.3686   20.8637 C.ar    1  UNL1        0.0045
     22 C           0.2282    1.1286   20.5939 C.ar    1  UNL1        0.0001
     23 C           4.1244   -2.5515   19.8688 C.ar    1  UNL1       -0.0222
     24 C           3.7533   -2.1899   21.2764 C.ar    1  UNL1       -0.0043
     25 C           2.9536   -0.9498   21.5462 C.ar    1  UNL1       -0.0003
     26 C           2.5250   -0.0715   20.4084 C.ar    1  UNL1       -0.0000
     27 C           2.8961   -0.4331   19.0007 C.ar    1  UNL1       -0.0003
     28 C           3.6958   -1.6732   18.7310 C.ar    1  UNL1       -0.0043
     29 C           4.2818   -4.9658   18.9220 C.3     1  UNL1        0.0050
     30 C           4.9242   -3.7915   19.5990 C.3     1  UNL1        0.0264
     31 N           1.9773   -0.9053   30.6108 N.3     1  UNL1       -0.2980
     32 H           2.2159   -1.8164   30.2192 H       1  UNL1        0.1232
     33 C           3.1972   -0.4100   31.3296 C.3     1  UNL1        0.0590
     34 C           4.5550   -0.9114   30.9360 C.3     1  UNL1        0.0478
     35 C           5.7748   -0.4161   31.6547 C.3     1  UNL1        0.1435
     36 O           5.6369    0.5806   32.7671 O.3     1  UNL1       -0.3537
     37 C           4.2792    1.0821   33.1608 C.3     1  UNL1        0.1435
     38 C           3.0592    0.5868   32.4420 C.3     1  UNL1        0.0478
@<TRIPOS>BOND
     1    29    30    1
     2    30    23    1
     3    23    24   ar
     4    24    25   ar
     5    25    26   ar
     6    26    17    1
     7    17    18   ar
     8    18    19   ar
     9    19    20   ar
    10    20    13    1
    11    13    14    2
    12    13    15   am
    13    15    16    1
    14     1    15    1
    15     1     2    1
    16     2     3    1
    17     3     4    1
    18     4     5   am
    19     5     6    2
    20     5     7   am
    21     7     8    1
    22     8     9    1
    23     9    10    1
    24    10    31    1
    25    31    33    1
    26    33    34    1
    27    34    35    1
    28    35    36    1
    29    36    37    1
    30    37    38    1
    31    10    11    1
    32     4    12    1
    33    20    21   ar
    34    21    22   ar
    35    26    27   ar
    36    27    28   ar
    37    28    23   ar
    38    22    17   ar
    39    12     1    1
    40    11     7    1
    41    38    33    1
    42    31    32    1
@<TRIPOS>MOLECULE
*****
 38 42 0 0 0
SMALL
GASTEIGER

@<TRIPOS>ATOM
      1 C           3.7060   -0.4086   19.8926 C.3     1  UNL1        0.0972
      2 C           2.3167   -0.7654   20.3315 C.3     1  UNL1        0.0431
      3 C           2.0472   -0.0663   21.6310 C.3     1  UNL1        0.0968
      4 N           3.2700    0.7226   21.9953 N.am    1  UNL1       -0.2623
      5 C           3.4380    1.5736   23.2190 C.2     1  UNL1        0.3073
      6 O           4.7252    2.3081   23.4507 O.2     1  UNL1       -0.2523
      7 N           2.3189    1.6901   24.2110 N.am    1  UNL1       -0.2626
      8 C           0.9813    1.0180   24.1142 C.3     1  UNL1        0.0964
      9 C           0.1766    1.4116   25.3173 C.3     1  UNL1        0.0390
     10 C           1.0168    2.3270   26.1576 C.3     1  UNL1        0.0758
     11 C           2.3408    2.4991   25.4739 C.3     1  UNL1        0.1106
     12 C           4.2951    0.5111   20.9209 C.3     1  UNL1        0.1147
     13 C           5.4305   -1.9615   18.7245 C.2     1  UNL1        0.2491
     14 O           6.1111   -2.4402   17.4765 O.2     1  UNL1       -0.2699
     15 N           4.3867   -0.8873   18.6446 N.am    1  UNL1       -0.2742
     16 C           4.0235   -0.2918   17.3167 C.3     1  UNL1        0.1152
     17 C           6.5201   -3.7482   22.7083 C.ar    1  UNL1        0.0000
     18 C           5.1957   -4.0669   22.0804 C.ar    1  UNL1        0.0001
     19 C           4.8325   -3.4714   20.7525 C.ar    1  UNL1        0.0045
     20 C           5.7937   -2.5571   20.0525 C.ar    1  UNL1        0.0536
     21 C           7.1181   -2.2383   20.6804 C.ar    1  UNL1        0.0045
     22 C           7.4812   -2.8338   22.0083 C.ar    1  UNL1        0.0001
     23 C           7.6096   -5.5348   26.6922 C.ar    1  UNL1       -0.0222
     24 C           6.8562   -4.2391   26.6321 C.ar    1  UNL1       -0.0043
     25 C           6.4930   -3.6436   25.3042 C.ar    1  UNL1       -0.0003
     26 C           6.8833   -4.3437   24.0363 C.ar    1  UNL1       -0.0000
     27 C           7.6367   -5.6393   24.0963 C.ar    1  UNL1       -0.0003
     28 C           7.9999   -6.2349   25.4243 C.ar    1  UNL1       -0.0043
     29 C           7.2043   -5.7464   29.2497 C.3     1  UNL1        0.0050
     30 C           7.9728   -6.1303   28.0201 C.3     1  UNL1        0.0264
     31 N           0.6053    2.9593   27.4541 N.3     1  UNL1       -0.2980
     32 H          -0.4091    3.0619   27.4227 H       1  UNL1        0.1232
     33 C           0.9325    2.2862   28.7540 C.3     1  UNL1        0.0590
     34 C           0.6827    2.9974   30.0507 C.3     1  UNL1        0.0478
     35 C           1.0100    2.3243   31.3506 C.3     1  UNL1        0.1435
     36 O           1.5870    0.9397   31.3538 O.3     1  UNL1       -0.3537
     37 C           1.8369    0.2284   30.0570 C.3     1  UNL1        0.1435
     38 C           1.5096    0.9016   28.7570 C.3     1  UNL1        0.0478
@<TRIPOS>BOND
     1    29    30    1
     2    30    23    1
     3    23    24   ar
     4    24    25   ar
     5    25    26   ar
     6    26    17    1
     7    17    18   ar
     8    18    19   ar
     9    19    20   ar
    10    20    13    1
    11    13    14    2
    12    13    15   am
    13    15    16    1
    14     1    15    1
    15     1     2    1
    16     2     3    1
    17     3     4    1
    18     4     5   am
    19     5     6    2
    20     5     7   am
    21     7     8    1
    22     8     9    1
    23     9    10    1
    24    10    31    1
    25    31    33    1
    26    33    34    1
    27    34    35    1
    28    35    36    1
    29    36    37    1
    30    37    38    1
    31    10    11    1
    32     4    12    1
    33    20    21   ar
    34    21    22   ar
    35    26    27   ar
    36    27    28   ar
    37    28    23   ar
    38    22    17   ar
    39    12     1    1
    40    11     7    1
    41    38    33    1
    42    31    32    1
@<TRIPOS>MOLECULE
*****
 38 42 0 0 0
SMALL
GASTEIGER

@<TRIPOS>ATOM
      1 C           0.8826    3.7462   27.7302 C.3     1  UNL1        0.0972
      2 C           2.3566    4.0028   27.6239 C.3     1  UNL1        0.0431
      3 C           3.0718    2.9106   28.3625 C.3     1  UNL1        0.0968
      4 N           2.0397    1.9788   28.9254 N.am    1  UNL1       -0.2623
      5 C           2.3127    0.7470   29.7365 C.2     1  UNL1        0.3073
      6 O           1.1726   -0.0912   30.2342 O.2     1  UNL1       -0.2523
      7 N           3.7257    0.3533   30.0501 N.am    1  UNL1       -0.2626
      8 C           4.9614    1.0889   29.6230 C.3     1  UNL1        0.0964
      9 C           6.1505    0.3452   30.1546 C.3     1  UNL1        0.0390
     10 C           5.6499   -0.8500   30.9103 C.3     1  UNL1        0.0758
     11 C           4.1513   -0.8450   30.8456 C.3     1  UNL1        0.1106
     12 C           0.6867    2.4953   28.5346 C.3     1  UNL1        0.1147
     13 C          -0.6130    4.3936   25.7068 C.2     1  UNL1        0.2491
     14 O          -1.7002    5.2393   25.1131 O.2     1  UNL1       -0.2699
     15 N          -0.2047    4.5919   27.1365 N.am    1  UNL1       -0.2742
     16 C          -0.8837    5.6360   27.9724 C.3     1  UNL1        0.1152
     17 C           1.4241    1.2614   23.1990 C.ar    1  UNL1        0.0000
     18 C           0.3867    0.8588   24.2048 C.ar    1  UNL1        0.0001
     19 C          -0.2923    1.9029   25.0408 C.ar    1  UNL1        0.0045
     20 C           0.0661    3.3495   24.8709 C.ar    1  UNL1        0.0536
     21 C           1.1034    3.7520   23.8650 C.ar    1  UNL1        0.0045
     22 C           1.7825    2.7079   23.0291 C.ar    1  UNL1        0.0001
     23 C           3.4612   -1.8709   20.6911 C.ar    1  UNL1       -0.0222
     24 C           2.4055   -0.9945   20.0849 C.ar    1  UNL1       -0.0043
     25 C           1.7265    0.0495   20.9208 C.ar    1  UNL1       -0.0003
     26 C           2.1031    0.2173   22.3630 C.ar    1  UNL1       -0.0000
     27 C           3.1588   -0.6591   22.9692 C.ar    1  UNL1       -0.0003
     28 C           3.8378   -1.7032   22.1333 C.ar    1  UNL1       -0.0043
     29 C           3.3677   -4.1048   19.3680 C.3     1  UNL1        0.0050
     30 C           4.1402   -2.9150   19.8551 C.3     1  UNL1        0.0264
     31 N           6.4988   -1.8710   31.6081 N.3     1  UNL1       -0.2980
     32 H           6.1033   -1.9955   32.5400 H       1  UNL1        0.1232
     33 C           6.6599   -3.2412   31.0194 C.3     1  UNL1        0.0590
     34 C           6.5490   -3.4383   29.5366 C.3     1  UNL1        0.0478
     35 C           6.7101   -4.8086   28.9480 C.3     1  UNL1        0.1435
     36 O           6.9821   -5.9817   29.8422 O.3     1  UNL1       -0.3537
     37 C           7.0930   -5.7847   31.3251 C.3     1  UNL1        0.1435
     38 C           6.9319   -4.4144   31.9137 C.3     1  UNL1        0.0478
@<TRIPOS>BOND
     1    29    30    1
     2    30    23    1
     3    23    24   ar
     4    24    25   ar
     5    25    26   ar
     6    26    17    1
     7    17    18   ar
     8    18    19   ar
     9    19    20   ar
    10    20    13    1
    11    13    14    2
    12    13    15   am
    13    15    16    1
    14     1    15    1
    15     1     2    1
    16     2     3    1
    17     3     4    1
    18     4     5   am
    19     5     6    2
    20     5     7   am
    21     7     8    1
    22     8     9    1
    23     9    10    1
    24    10    31    1
    25    31    33    1
    26    33    34    1
    27    34    35    1
    28    35    36    1
    29    36    37    1
    30    37    38    1
    31    10    11    1
    32     4    12    1
    33    20    21   ar
    34    21    22   ar
    35    26    27   ar
    36    27    28   ar
    37    28    23   ar
    38    22    17   ar
    39    12     1    1
    40    11     7    1
    41    38    33    1
    42    31    32    1
@<TRIPOS>MOLECULE
*****
 38 42 0 0 0
SMALL
GASTEIGER

@<TRIPOS>ATOM
      1 C           3.4645    1.9097   33.0478 C.3     1  UNL1        0.0972
      2 C           4.2572    2.7350   32.0780 C.3     1  UNL1        0.0431
      3 C           3.6591    2.5504   30.7149 C.3     1  UNL1        0.0968
      4 N           2.4966    1.6109   30.8422 N.am    1  UNL1       -0.2623
      5 C           1.6101    1.1485   29.7241 C.2     1  UNL1        0.3073
      6 O           0.4803    0.2026   30.0049 O.2     1  UNL1       -0.2523
      7 N           1.8533    1.6321   28.3251 N.am    1  UNL1       -0.2626
      8 C           2.9382    2.5742   27.8940 C.3     1  UNL1        0.0964
      9 C           2.8098    2.7829   26.4142 C.3     1  UNL1        0.0390
     10 C           1.6456    1.9698   25.9307 C.3     1  UNL1        0.0758
     11 C           1.0545    1.2586   27.1117 C.3     1  UNL1        0.1106
     12 C           2.3764    1.2150   32.2840 C.3     1  UNL1        0.1147
     13 C           4.4821    0.6297   35.0667 C.2     1  UNL1        0.2491
     14 O           4.7333    0.5186   36.5413 O.2     1  UNL1       -0.2699
     15 N           3.7158    1.7986   34.5225 N.am    1  UNL1       -0.2742
     16 C           3.2007    2.8565   35.4528 C.3     1  UNL1        0.1152
     17 C           6.0273   -2.5441   32.2757 C.ar    1  UNL1        0.0000
     18 C           6.8019   -1.2744   32.4701 C.ar    1  UNL1        0.0001
     19 C           6.2869   -0.2165   33.4004 C.ar    1  UNL1        0.0045
     20 C           4.9972   -0.4282   34.1364 C.ar    1  UNL1        0.0536
     21 C           4.2225   -1.6979   33.9421 C.ar    1  UNL1        0.0045
     22 C           4.7376   -2.7558   33.0117 C.ar    1  UNL1        0.0001
     23 C           7.5725   -5.7178   29.4847 C.ar    1  UNL1       -0.0222
     24 C           7.1317   -4.3911   28.9413 C.ar    1  UNL1       -0.0043
     25 C           6.6167   -3.3332   29.8716 C.ar    1  UNL1       -0.0003
     26 C           6.5424   -3.6020   31.3454 C.ar    1  UNL1       -0.0000
     27 C           6.9832   -4.9287   31.8889 C.ar    1  UNL1       -0.0003
     28 C           7.4983   -5.9866   30.9585 C.ar    1  UNL1       -0.0043
     29 C           9.2552   -7.6262   28.9587 C.3     1  UNL1        0.0050
     30 C           8.0876   -6.7757   28.5544 C.3     1  UNL1        0.0264
     31 N           1.1582    1.8831   24.5148 N.3     1  UNL1       -0.2980
     32 H           1.3166    2.7979   24.0923 H       1  UNL1        0.1232
     33 C           1.7451    0.8670   23.5804 C.3     1  UNL1        0.0590
     34 C           2.7372   -0.1359   24.0901 C.3     1  UNL1        0.0478
     35 C           3.3241   -1.1520   23.1557 C.3     1  UNL1        0.1435
     36 O           2.9190   -1.1651   21.7115 O.3     1  UNL1       -0.3537
     37 C           1.9269   -0.1622   21.2017 C.3     1  UNL1        0.1435
     38 C           1.3399    0.8540   22.1362 C.3     1  UNL1        0.0478
@<TRIPOS>BOND
     1    29    30    1
     2    30    23    1
     3    23    24   ar
     4    24    25   ar
     5    25    26   ar
     6    26    17    1
     7    17    18   ar
     8    18    19   ar
     9    19    20   ar
    10    20    13    1
    11    13    14    2
    12    13    15   am
    13    15    16    1
    14     1    15    1
    15     1     2    1
    16     2     3    1
    17     3     4    1
    18     4     5   am
    19     5     6    2
    20     5     7   am
    21     7     8    1
    22     8     9    1
    23     9    10    1
    24    10    31    1
    25    31    33    1
    26    33    34    1
    27    34    35    1
    28    35    36    1
    29    36    37    1
    30    37    38    1
    31    10    11    1
    32     4    12    1
    33    20    21   ar
    34    21    22   ar
    35    26    27   ar
    36    27    28   ar
    37    28    23   ar
    38    22    17   ar
    39    12     1    1
    40    11     7    1
    41    38    33    1
    42    31    32    1
@<TRIPOS>MOLECULE
*****
 38 42 0 0 0
SMALL
GASTEIGER

@<TRIPOS>ATOM
      1 C           6.5779   -2.4184   20.7967 C.3     1  UNL1        0.0972
      2 C           5.7752   -3.5716   21.3219 C.3     1  UNL1        0.0431
      3 C           6.3325   -3.9523   22.6615 C.3     1  UNL1        0.0968
      4 N           7.4797   -3.0344   22.9642 N.am    1  UNL1       -0.2623
      5 C           8.3265   -3.0600   24.2020 C.2     1  UNL1        0.3073
      6 O           9.4450   -2.0741   24.3660 O.2     1  UNL1       -0.2523
      7 N           8.0548   -4.0715   25.2758 N.am    1  UNL1       -0.2626
      8 C           6.9770   -5.1146   25.2521 C.3     1  UNL1        0.0964
      9 C           7.0692   -5.9053   26.5234 C.3     1  UNL1        0.0390
     10 C           8.2039   -5.3508   27.3328 C.3     1  UNL1        0.0758
     11 C           8.8130   -4.2175   26.5617 C.3     1  UNL1        0.1106
     12 C           7.6313   -2.0864   21.8116 C.3     1  UNL1        0.1147
     13 C           5.3087   -0.6616   19.3639 C.2     1  UNL1        0.2491
     14 O           5.0954    0.0370   18.0538 O.2     1  UNL1       -0.2699
     15 N           6.3646   -1.7198   19.4865 N.am    1  UNL1       -0.2742
     16 C           7.2073   -2.0795   18.2988 C.3     1  UNL1        0.1152
     17 C           2.7805    0.4176   22.9268 C.ar    1  UNL1        0.0000
     18 C           2.2910   -0.6013   21.9407 C.ar    1  UNL1        0.0001
     19 C           3.1337   -0.9610   20.7531 C.ar    1  UNL1        0.0045
     20 C           4.4659   -0.3019   20.5515 C.ar    1  UNL1        0.0536
     21 C           4.9554    0.7170   21.5376 C.ar    1  UNL1        0.0045
     22 C           4.1127    1.0767   22.7252 C.ar    1  UNL1        0.0001
     23 C           0.2523    1.4967   26.4896 C.ar    1  UNL1       -0.0222
     24 C           1.6456    0.9777   26.6882 C.ar    1  UNL1       -0.0043
     25 C           2.4883    0.6180   25.5005 C.ar    1  UNL1       -0.0003
     26 C           1.9378    0.7773   24.1144 C.ar    1  UNL1       -0.0000
     27 C           0.5445    1.2963   23.9158 C.ar    1  UNL1       -0.0003
     28 C          -0.2982    1.6560   25.1034 C.ar    1  UNL1       -0.0043
     29 C          -1.1904    0.7752   28.5262 C.3     1  UNL1        0.0050
     30 C          -0.5904    1.8564   27.6772 C.3     1  UNL1        0.0264
     31 N           8.6511   -5.8432   28.6773 N.3     1  UNL1       -0.2980
     32 H           9.6626   -5.9638   28.6252 H       1  UNL1        0.1232
     33 C           8.3749   -5.0268   29.9049 C.3     1  UNL1        0.0590
     34 C           7.0366   -5.1117   30.5769 C.3     1  UNL1        0.0478
     35 C           6.7604   -4.2953   31.8045 C.3     1  UNL1        0.1435
     36 O           7.8227   -3.3937   32.3602 O.3     1  UNL1       -0.3537
     37 C           9.1611   -3.3086   31.6883 C.3     1  UNL1        0.1435
     38 C           9.4372   -4.1252   30.4606 C.3     1  UNL1        0.0478
@<TRIPOS>BOND
     1    29    30    1
     2    30    23    1
     3    23    24   ar
     4    24    25   ar
     5    25    26   ar
     6    26    17    1
     7    17    18   ar
     8    18    19   ar
     9    19    20   ar
    10    20    13    1
    11    13    14    2
    12    13    15   am
    13    15    16    1
    14     1    15    1
    15     1     2    1
    16     2     3    1
    17     3     4    1
    18     4     5   am
    19     5     6    2
    20     5     7   am
    21     7     8    1
    22     8     9    1
    23     9    10    1
    24    10    31    1
    25    31    33    1
    26    33    34    1
    27    34    35    1
    28    35    36    1
    29    36    37    1
    30    37    38    1
    31    10    11    1
    32     4    12    1
    33    20    21   ar
    34    21    22   ar
    35    26    27   ar
    36    27    28   ar
    37    28    23   ar
    38    22    17   ar
    39    12     1    1
    40    11     7    1
    41    38    33    1
    42    31    32    1
@<TRIPOS>MOLECULE
*****
 38 42 0 0 0
SMALL
GASTEIGER

@<TRIPOS>ATOM
      1 C           3.6200    1.8986   33.8112 C.3     1  UNL1        0.0972
      2 C           4.5254    2.4244   32.7371 C.3     1  UNL1        0.0431
      3 C           3.7325    2.5176   31.4671 C.3     1  UNL1        0.0968
      4 N           2.3371    2.0493   31.7564 N.am    1  UNL1       -0.2623
      5 C           1.2093    1.9763   30.7701 C.2     1  UNL1        0.3073
      6 O          -0.1386    1.4844   31.2073 O.2     1  UNL1       -0.2523
      7 N           1.4295    2.3953   29.3467 N.am    1  UNL1       -0.2626
      8 C           2.7154    2.9054   28.7666 C.3     1  UNL1        0.0964
      9 C           2.4831    3.2031   27.3150 C.3     1  UNL1        0.0390
     10 C           1.0537    2.8770   26.9979 C.3     1  UNL1        0.0758
     11 C           0.4025    2.3777   28.2536 C.3     1  UNL1        0.1106
     12 C           2.2676    1.6667   33.2051 C.3     1  UNL1        0.1147
     13 C           4.7880    0.4248   35.6040 C.2     1  UNL1        0.2491
     14 O           5.1682    0.1747   37.0332 O.2     1  UNL1       -0.2699
     15 N           4.0003    1.6484   35.2406 N.am    1  UNL1       -0.2742
     16 C           3.5927    2.6220   36.3064 C.3     1  UNL1        0.1152
     17 C           6.0107   -2.4959   32.4064 C.ar    1  UNL1        0.0000
     18 C           6.9665   -1.4298   32.8536 C.ar    1  UNL1        0.0001
     19 C           6.5589   -0.4562   33.9194 C.ar    1  UNL1        0.0045
     20 C           5.1956   -0.5488   34.5381 C.ar    1  UNL1        0.0536
     21 C           4.2399   -1.6148   34.0909 C.ar    1  UNL1        0.0045
     22 C           4.6474   -2.5884   33.0250 C.ar    1  UNL1        0.0001
     23 C           7.2335   -5.4166   29.2088 C.ar    1  UNL1       -0.0222
     24 C           6.8217   -4.0236   28.8345 C.ar    1  UNL1       -0.0043
     25 C           6.4141   -3.0501   29.9004 C.ar    1  UNL1       -0.0003
     26 C           6.4183   -3.4694   31.3405 C.ar    1  UNL1       -0.0000
     27 C           6.8301   -4.8624   31.7148 C.ar    1  UNL1       -0.0003
     28 C           7.2377   -5.8359   30.6489 C.ar    1  UNL1       -0.0043
     29 C           6.9862   -6.3432   26.7942 C.3     1  UNL1        0.0050
     30 C           7.6410   -6.3901   28.1429 C.3     1  UNL1        0.0264
     31 N           0.3916    3.0242   25.6600 N.3     1  UNL1       -0.2980
     32 H           0.1326    2.0861   25.3548 H       1  UNL1        0.1232
     33 C          -0.8331    3.8788   25.5193 C.3     1  UNL1        0.0590
     34 C          -0.7074    5.2984   25.0515 C.3     1  UNL1        0.0478
     35 C          -1.9320    6.1530   24.9107 C.3     1  UNL1        0.1435
     36 O          -3.2825    5.5880   25.2378 O.3     1  UNL1       -0.3537
     37 C          -3.4083    4.1684   25.7056 C.3     1  UNL1        0.1435
     38 C          -2.1836    3.3137   25.8464 C.3     1  UNL1        0.0478
@<TRIPOS>BOND
     1    29    30    1
     2    30    23    1
     3    23    24   ar
     4    24    25   ar
     5    25    26   ar
     6    26    17    1
     7    17    18   ar
     8    18    19   ar
     9    19    20   ar
    10    20    13    1
    11    13    14    2
    12    13    15   am
    13    15    16    1
    14     1    15    1
    15     1     2    1
    16     2     3    1
    17     3     4    1
    18     4     5   am
    19     5     6    2
    20     5     7   am
    21     7     8    1
    22     8     9    1
    23     9    10    1
    24    10    31    1
    25    31    33    1
    26    33    34    1
    27    34    35    1
    28    35    36    1
    29    36    37    1
    30    37    38    1
    31    10    11    1
    32     4    12    1
    33    20    21   ar
    34    21    22   ar
    35    26    27   ar
    36    27    28   ar
    37    28    23   ar
    38    22    17   ar
    39    12     1    1
    40    11     7    1
    41    38    33    1
    42    31    32    1
@<TRIPOS>MOLECULE
*****
 38 42 0 0 0
SMALL
GASTEIGER

@<TRIPOS>ATOM
      1 C           3.2552    2.5477   27.8933 C.3     1  UNL1        0.0972
      2 C           3.4881    3.5138   26.7698 C.3     1  UNL1        0.0431
      3 C           3.6843    2.7222   25.5109 C.3     1  UNL1        0.0968
      4 N           3.5727    1.2667   25.8563 N.am    1  UNL1       -0.2623
      5 C           3.7033    0.1205   24.8977 C.2     1  UNL1        0.3073
      6 O           3.5669   -1.2894   25.3915 O.2     1  UNL1       -0.2523
      7 N           3.9703    0.3840   23.4454 N.am    1  UNL1       -0.2626
      8 C           4.1299    1.7329   22.8089 C.3     1  UNL1        0.0964
      9 C           4.3828    1.5276   21.3447 C.3     1  UNL1        0.0390
     10 C           4.3795    0.0518   21.0763 C.3     1  UNL1        0.0758
     11 C           4.1245   -0.6550   22.3746 C.3     1  UNL1        0.1106
     12 C           3.3075    1.1589   27.3288 C.3     1  UNL1        0.1147
     13 C           1.6493    3.3491   29.7718 C.2     1  UNL1        0.2491
     14 O           1.4068    3.7085   31.2077 O.2     1  UNL1       -0.2699
     15 N           3.0127    2.9071   29.3293 N.am    1  UNL1       -0.2742
     16 C           4.1335    2.8246   30.3227 C.3     1  UNL1        0.1152
     17 C          -1.7132    3.5968   26.7915 C.ar    1  UNL1        0.0000
     18 C          -1.2724    2.2623   27.3157 C.ar    1  UNL1        0.0001
     19 C          -0.1516    2.1797   28.3092 C.ar    1  UNL1        0.0045
     20 C           0.5285    3.4316   28.7784 C.ar    1  UNL1        0.0536
     21 C           0.0877    4.7661   28.2542 C.ar    1  UNL1        0.0045
     22 C          -1.0332    4.8487   27.2608 C.ar    1  UNL1        0.0001
     23 C          -5.0758    3.8444   23.8113 C.ar    1  UNL1       -0.0222
     24 C          -3.6728    3.5995   23.3405 C.ar    1  UNL1       -0.0043
     25 C          -2.5520    3.5169   24.3339 C.ar    1  UNL1       -0.0003
     26 C          -2.8341    3.6793   25.7981 C.ar    1  UNL1       -0.0000
     27 C          -4.2370    3.9242   26.2689 C.ar    1  UNL1       -0.0003
     28 C          -5.3579    4.0068   25.2755 C.ar    1  UNL1       -0.0043
     29 C          -7.5034    4.5492   23.2116 C.3     1  UNL1        0.0050
     30 C          -6.1966    3.9270   22.8179 C.3     1  UNL1        0.0264
     31 N           4.5935   -0.6025   19.7436 N.3     1  UNL1       -0.2980
     32 H           5.4370   -0.1900   19.3452 H       1  UNL1        0.1232
     33 C           4.7566   -2.0910   19.6564 C.3     1  UNL1        0.0590
     34 C           3.6046   -2.9476   19.2217 C.3     1  UNL1        0.0478
     35 C           3.7677   -4.4362   19.1346 C.3     1  UNL1        0.1435
     36 O           5.0829   -5.0682   19.4820 O.3     1  UNL1       -0.3537
     37 C           6.2351   -4.2116   19.9167 C.3     1  UNL1        0.1435
     38 C           6.0719   -2.7230   20.0039 C.3     1  UNL1        0.0478
@<TRIPOS>BOND
     1    29    30    1
     2    30    23    1
     3    23    24   ar
     4    24    25   ar
     5    25    26   ar
     6    26    17    1
     7    17    18   ar
     8    18    19   ar
     9    19    20   ar
    10    20    13    1
    11    13    14    2
    12    13    15   am
    13    15    16    1
    14     1    15    1
    15     1     2    1
    16     2     3    1
    17     3     4    1
    18     4     5   am
    19     5     6    2
    20     5     7   am
    21     7     8    1
    22     8     9    1
    23     9    10    1
    24    10    31    1
    25    31    33    1
    26    33    34    1
    27    34    35    1
    28    35    36    1
    29    36    37    1
    30    37    38    1
    31    10    11    1
    32     4    12    1
    33    20    21   ar
    34    21    22   ar
    35    26    27   ar
    36    27    28   ar
    37    28    23   ar
    38    22    17   ar
    39    12     1    1
    40    11     7    1
    41    38    33    1
    42    31    32    1
