@<TRIPOS>MOLECULE
*****
 28 30 0 0 0
SMALL
GASTEIGER

@<TRIPOS>ATOM
      1 N          -7.7953  -19.0579   20.9377 N.ar    1  UNL1       -0.3190
      2 C          -6.5873  -19.7104   20.3336 C.ar    1  UNL1        0.0823
      3 C          -5.3703  -19.1363   20.9964 C.ar    1  UNL1        0.0895
      4 C          -5.8262  -18.1290   22.0101 C.ar    1  UNL1        0.1028
      5 N          -5.0702  -17.2496   22.9615 N.ar    1  UNL1       -0.2425
      6 C          -5.8130  -16.3218   23.8766 C.ar    1  UNL1        0.0946
      7 C          -7.3117  -16.2734   23.8402 C.ar    1  UNL1       -0.0013
      8 C          -8.0545  -15.3455   24.7554 C.3     1  UNL1        0.0327
      9 C          -8.0677  -17.1527   22.8889 C.ar    1  UNL1        0.0160
     10 C          -7.3249  -18.0805   21.9738 C.ar    1  UNL1        0.0780
     11 C          -3.9472  -19.5048   20.6980 C.2     1  UNL1        0.2489
     12 O          -3.6037  -20.9099   20.3012 O.2     1  UNL1       -0.2700
     13 N          -2.8675  -18.4680   20.7964 N.am    1  UNL1       -0.2984
     14 H          -3.0930  -17.5457   21.0568 H       1  UNL1        0.1498
     15 C          -1.4445  -18.8365   20.4979 C.3     1  UNL1        0.1215
     16 C          -0.5513  -17.8638   19.7865 C.3     1  UNL1        0.1583
     17 O          -0.5248  -17.8283   18.2872 O.3     1  UNL1       -0.3802
     18 H          -0.1587  -18.6611   17.9505 H       1  UNL1        0.2105
     19 C          -9.2231  -19.3342   20.5701 C.3     1  UNL1        0.1518
     20 C         -12.1131  -17.9832   22.9309 C.ar    1  UNL1        0.2234
     21 N         -12.5111  -16.7326   22.2045 N.ar    1  UNL1       -0.1896
     22 C         -11.8131  -16.3492   20.9333 C.ar    1  UNL1        0.2012
     23 N         -10.7171  -17.2164   20.3885 N.ar    1  UNL1       -0.2265
     24 C         -10.3191  -18.4670   21.1149 C.ar    1  UNL1        0.0841
     25 C         -11.0172  -18.8504   22.3861 C.ar    1  UNL1        0.0468
     26 C         -10.6191  -20.1010   23.1124 C.3     1  UNL1        0.0372
     27 C         -14.2917  -18.1656   24.3346 C.3     1  UNL1        0.2542
     28 O         -12.8111  -18.3666   24.2020 O.3     1  UNL1       -0.4563
@<TRIPOS>BOND
     1    27    28    1
     2    28    20    1
     3    20    21   ar
     4    21    22   ar
     5    22    23   ar
     6    23    24   ar
     7    24    19    1
     8    19     1    1
     9     1     2   ar
    10     2     3   ar
    11     3    11    1
    12    11    12    2
    13    11    13   am
    14    13    15    1
    15    15    16    1
    16    16    17    1
    17     3     4   ar
    18     4     5   ar
    19     5     6   ar
    20     6     7   ar
    21     7     8    1
    22     7     9   ar
    23     9    10   ar
    24    24    25   ar
    25    25    26    1
    26    25    20   ar
    27    10     1   ar
    28    10     4   ar
    29    13    14    1
    30    17    18    1
@<TRIPOS>MOLECULE
*****
 28 30 0 0 0
SMALL
GASTEIGER

@<TRIPOS>ATOM
      1 N          -7.5523  -19.4716   22.2254 N.ar    1  UNL1       -0.3190
      2 C          -6.3356  -19.9986   21.5240 C.ar    1  UNL1        0.0823
      3 C          -5.2172  -19.0226   21.7396 C.ar    1  UNL1        0.0895
      4 C          -5.7426  -17.8923   22.5742 C.ar    1  UNL1        0.1028
      5 N          -5.0934  -16.6464   23.0995 N.ar    1  UNL1       -0.2425
      6 C          -5.8873  -15.6779   23.9251 C.ar    1  UNL1        0.0946
      7 C          -7.3305  -15.9554   24.2254 C.ar    1  UNL1       -0.0013
      8 C          -8.1245  -14.9869   25.0510 C.3     1  UNL1        0.0327
      9 C          -7.9798  -17.2014   23.7000 C.ar    1  UNL1        0.0160
     10 C          -7.1858  -18.1698   22.8744 C.ar    1  UNL1        0.0780
     11 C          -3.8188  -19.1537   21.2130 C.2     1  UNL1        0.2489
     12 O          -2.8771  -20.1480   21.8249 O.2     1  UNL1       -0.2700
     13 N          -3.3620  -18.2904   20.0744 N.am    1  UNL1       -0.2984
     14 H          -3.9801  -17.6378   19.6727 H       1  UNL1        0.1498
     15 C          -1.9636  -18.4216   19.5478 C.3     1  UNL1        0.1215
     16 C          -0.8335  -17.7166   20.2374 C.3     1  UNL1        0.1583
     17 O          -1.1162  -16.5590   21.1485 O.3     1  UNL1       -0.3802
     18 H          -1.4765  -15.8214   20.6318 H       1  UNL1        0.2105
     19 C          -8.8990  -20.1305   22.2700 C.3     1  UNL1        0.1518
     20 C         -11.8107  -17.7548   20.9939 C.ar    1  UNL1        0.2234
     21 N         -12.6341  -17.6208   22.2405 N.ar    1  UNL1       -0.1896
     22 C         -12.2124  -18.3233   23.4969 C.ar    1  UNL1        0.2012
     23 N         -10.9675  -19.1599   23.5068 N.ar    1  UNL1       -0.2265
     24 C         -10.1441  -19.2939   22.2602 C.ar    1  UNL1        0.0841
     25 C         -10.5657  -18.5914   21.0037 C.ar    1  UNL1        0.0468
     26 C          -9.7423  -18.7254   19.7571 C.3     1  UNL1        0.0372
     27 C         -11.6495  -15.7131   19.3953 C.3     1  UNL1        0.2542
     28 O         -12.2323  -17.0522   19.7374 O.3     1  UNL1       -0.4563
@<TRIPOS>BOND
     1    27    28    1
     2    28    20    1
     3    20    21   ar
     4    21    22   ar
     5    22    23   ar
     6    23    24   ar
     7    24    19    1
     8    19     1    1
     9     1     2   ar
    10     2     3   ar
    11     3    11    1
    12    11    12    2
    13    11    13   am
    14    13    15    1
    15    15    16    1
    16    16    17    1
    17     3     4   ar
    18     4     5   ar
    19     5     6   ar
    20     6     7   ar
    21     7     8    1
    22     7     9   ar
    23     9    10   ar
    24    24    25   ar
    25    25    26    1
    26    25    20   ar
    27    10     1   ar
    28    10     4   ar
    29    13    14    1
    30    17    18    1
@<TRIPOS>MOLECULE
*****
 28 30 0 0 0
SMALL
GASTEIGER

@<TRIPOS>ATOM
      1 N          -6.0057  -18.6387   21.6259 N.ar    1  UNL1       -0.3190
      2 C          -5.7925  -17.7054   22.7807 C.ar    1  UNL1        0.0823
      3 C          -7.1130  -17.0808   23.1218 C.ar    1  UNL1        0.0895
      4 C          -8.1422  -17.6280   22.1777 C.ar    1  UNL1        0.1028
      5 N          -9.6141  -17.3740   22.0405 N.ar    1  UNL1       -0.2425
      6 C         -10.4017  -18.0827   20.9787 C.ar    1  UNL1        0.0946
      7 C          -9.7174  -19.0455   20.0542 C.ar    1  UNL1       -0.0013
      8 C         -10.5050  -19.7543   18.9924 C.3     1  UNL1        0.0327
      9 C          -8.2454  -19.2996   20.1914 C.ar    1  UNL1        0.0160
     10 C          -7.4579  -18.5908   21.2532 C.ar    1  UNL1        0.0780
     11 C          -7.3607  -16.0840   24.2149 C.2     1  UNL1        0.2489
     12 O          -6.4514  -14.9015   24.3719 O.2     1  UNL1       -0.2700
     13 N          -8.5179  -16.2698   25.1513 N.am    1  UNL1       -0.2984
     14 H          -9.1147  -17.0460   25.0483 H       1  UNL1        0.1498
     15 C          -8.7656  -15.2730   26.2444 C.3     1  UNL1        0.1215
     16 C          -7.8907  -15.2632   27.4628 C.3     1  UNL1        0.1583
     17 O          -6.5219  -14.6532   27.3982 O.3     1  UNL1       -0.3802
     18 H          -5.9631  -15.1751   26.8012 H       1  UNL1        0.2105
     19 C          -4.9517  -19.4732   20.9606 C.3     1  UNL1        0.1518
     20 C          -1.3024  -18.3420   19.8868 C.ar    1  UNL1        0.2234
     21 N          -1.6101  -17.4887   18.6921 N.ar    1  UNL1       -0.1896
     22 C          -3.0317  -17.2969   18.2536 C.ar    1  UNL1        0.2012
     23 N          -4.1456  -17.9584   19.0097 N.ar    1  UNL1       -0.2265
     24 C          -3.8378  -18.8117   20.2044 C.ar    1  UNL1        0.0841
     25 C          -2.4162  -19.0035   20.6428 C.ar    1  UNL1        0.0468
     26 C          -2.1086  -19.8568   21.8375 C.3     1  UNL1        0.0372
     27 C           1.1050  -17.4119   20.1855 C.3     1  UNL1        0.2542
     28 O           0.1192  -18.5338   20.3252 O.3     1  UNL1       -0.4563
@<TRIPOS>BOND
     1    27    28    1
     2    28    20    1
     3    20    21   ar
     4    21    22   ar
     5    22    23   ar
     6    23    24   ar
     7    24    19    1
     8    19     1    1
     9     1     2   ar
    10     2     3   ar
    11     3    11    1
    12    11    12    2
    13    11    13   am
    14    13    15    1
    15    15    16    1
    16    16    17    1
    17     3     4   ar
    18     4     5   ar
    19     5     6   ar
    20     6     7   ar
    21     7     8    1
    22     7     9   ar
    23     9    10   ar
    24    24    25   ar
    25    25    26    1
    26    25    20   ar
    27    10     1   ar
    28    10     4   ar
    29    13    14    1
    30    17    18    1
@<TRIPOS>MOLECULE
*****
 28 30 0 0 0
SMALL
GASTEIGER

@<TRIPOS>ATOM
      1 N         -13.9159   -4.4590   19.9348 N.ar    1  UNL1       -0.3190
      2 C         -15.2486   -5.1474   19.9436 C.ar    1  UNL1        0.0823
      3 C         -15.0862   -6.4803   19.2750 C.ar    1  UNL1        0.0895
      4 C         -13.6531   -6.6157   18.8530 C.ar    1  UNL1        0.1028
      5 N         -12.9134   -7.7151   18.1502 N.ar    1  UNL1       -0.2425
      6 C         -11.4504   -7.5652   17.8551 C.ar    1  UNL1        0.0946
      7 C         -10.7271   -6.3160   18.2629 C.ar    1  UNL1       -0.0013
      8 C          -9.2640   -6.1662   17.9678 C.3     1  UNL1        0.0327
      9 C         -11.4669   -5.2166   18.9657 C.ar    1  UNL1        0.0160
     10 C         -12.9299   -5.3664   19.2608 C.ar    1  UNL1        0.0780
     11 C         -16.1670   -7.4990   19.0652 C.2     1  UNL1        0.2489
     12 O         -17.1881   -7.2976   17.9851 O.2     1  UNL1       -0.2700
     13 N         -16.2268   -8.7192   19.9357 N.am    1  UNL1       -0.2984
     14 H         -15.5566   -8.8514   20.6447 H       1  UNL1        0.1498
     15 C         -17.3076   -9.7379   19.7259 C.3     1  UNL1        0.1215
     16 C         -17.1546  -10.7857   18.6636 C.3     1  UNL1        0.1583
     17 O         -16.7969  -12.1921   19.0434 O.3     1  UNL1       -0.3802
     18 H         -15.9021  -12.2083   19.4176 H       1  UNL1        0.2105
     19 C         -13.6210   -3.1015   20.5006 C.3     1  UNL1        0.1518
     20 C         -13.2735    0.0778   18.1507 C.ar    1  UNL1        0.2234
     21 N         -14.6827    0.5915   18.1586 N.ar    1  UNL1       -0.1896
     22 C         -15.7381   -0.1257   18.9472 C.ar    1  UNL1        0.2012
     23 N         -15.3842   -1.3567   19.7278 N.ar    1  UNL1       -0.2265
     24 C         -13.9750   -1.8704   19.7199 C.ar    1  UNL1        0.0841
     25 C         -12.9196   -1.1532   18.9314 C.ar    1  UNL1        0.0468
     26 C         -11.5104   -1.6670   18.9235 C.3     1  UNL1        0.0372
     27 C         -12.5838    1.9910   16.5340 C.3     1  UNL1        0.2542
     28 O         -12.2181    0.7950   17.3622 O.3     1  UNL1       -0.4563
@<TRIPOS>BOND
     1    27    28    1
     2    28    20    1
     3    20    21   ar
     4    21    22   ar
     5    22    23   ar
     6    23    24   ar
     7    24    19    1
     8    19     1    1
     9     1     2   ar
    10     2     3   ar
    11     3    11    1
    12    11    12    2
    13    11    13   am
    14    13    15    1
    15    15    16    1
    16    16    17    1
    17     3     4   ar
    18     4     5   ar
    19     5     6   ar
    20     6     7   ar
    21     7     8    1
    22     7     9   ar
    23     9    10   ar
    24    24    25   ar
    25    25    26    1
    26    25    20   ar
    27    10     1   ar
    28    10     4   ar
    29    13    14    1
    30    17    18    1
@<TRIPOS>MOLECULE
*****
 28 30 0 0 0
SMALL
GASTEIGER

@<TRIPOS>ATOM
      1 N           4.2477   -2.6919   21.0964 N.ar    1  UNL1       -0.3190
      2 C           5.2544   -3.7186   21.5234 C.ar    1  UNL1        0.0823
      3 C           5.4745   -3.5660   22.9993 C.ar    1  UNL1        0.0895
      4 C           4.6039   -2.4450   23.4844 C.ar    1  UNL1        0.1028
      5 N           4.4036   -1.8463   24.8451 N.ar    1  UNL1       -0.2425
      6 C           3.4451   -0.7075   25.0297 C.ar    1  UNL1        0.0946
      7 C           2.6868   -0.1672   23.8536 C.ar    1  UNL1       -0.0013
      8 C           1.7282    0.9717   24.0382 C.3     1  UNL1        0.0327
      9 C           2.8871   -0.7659   22.4929 C.ar    1  UNL1        0.0160
     10 C           3.8456   -1.9047   22.3083 C.ar    1  UNL1        0.0780
     11 C           6.4024   -4.3898   23.8422 C.2     1  UNL1        0.2489
     12 O           7.3736   -5.3287   23.1902 O.2     1  UNL1       -0.2700
     13 N           6.3591   -4.2746   25.3372 N.am    1  UNL1       -0.2984
     14 H           5.7217   -3.6583   25.7652 H       1  UNL1        0.1498
     15 C           7.2870   -5.0984   26.1800 C.3     1  UNL1        0.1215
     16 C           6.7318   -6.1220   27.1254 C.3     1  UNL1        0.1583
     17 O           5.4429   -5.8568   27.8455 O.3     1  UNL1       -0.3802
     18 H           5.5625   -5.1160   28.4602 H       1  UNL1        0.2105
     19 C           3.7333   -2.4881   19.7022 C.3     1  UNL1        0.1518
     20 C           5.6544    0.1494   17.4431 C.ar    1  UNL1        0.2234
     21 N           4.6979    1.3042   17.4800 N.ar    1  UNL1       -0.1896
     22 C           3.4199    1.1950   18.2576 C.ar    1  UNL1        0.2012
     23 N           3.0983   -0.0690   18.9983 N.ar    1  UNL1       -0.2265
     24 C           4.0548   -1.2239   18.9614 C.ar    1  UNL1        0.0841
     25 C           5.3328   -1.1147   18.1838 C.ar    1  UNL1        0.0468
     26 C           6.2893   -2.2696   18.1470 C.3     1  UNL1        0.0372
     27 C           7.9144    1.3464   16.9855 C.3     1  UNL1        0.2542
     28 O           6.9325    0.2586   16.6655 O.3     1  UNL1       -0.4563
@<TRIPOS>BOND
     1    27    28    1
     2    28    20    1
     3    20    21   ar
     4    21    22   ar
     5    22    23   ar
     6    23    24   ar
     7    24    19    1
     8    19     1    1
     9     1     2   ar
    10     2     3   ar
    11     3    11    1
    12    11    12    2
    13    11    13   am
    14    13    15    1
    15    15    16    1
    16    16    17    1
    17     3     4   ar
    18     4     5   ar
    19     5     6   ar
    20     6     7   ar
    21     7     8    1
    22     7     9   ar
    23     9    10   ar
    24    24    25   ar
    25    25    26    1
    26    25    20   ar
    27    10     1   ar
    28    10     4   ar
    29    13    14    1
    30    17    18    1
@<TRIPOS>MOLECULE
*****
 28 30 0 0 0
SMALL
GASTEIGER

@<TRIPOS>ATOM
      1 N           3.9538   -2.3155   21.3531 N.ar    1  UNL1       -0.3190
      2 C           4.9553   -3.3923   21.6491 C.ar    1  UNL1        0.0823
      3 C           5.2816   -3.3324   23.1120 C.ar    1  UNL1        0.0895
      4 C           4.4818   -2.2185   23.7201 C.ar    1  UNL1        0.1028
      5 N           4.3948   -1.6954   25.1231 N.ar    1  UNL1       -0.2425
      6 C           3.4872   -0.5438   25.4392 C.ar    1  UNL1        0.0946
      7 C           2.6666    0.0847   24.3522 C.ar    1  UNL1       -0.0013
      8 C           1.7589    1.2364   24.6683 C.3     1  UNL1        0.0327
      9 C           2.7536   -0.4385   22.9491 C.ar    1  UNL1        0.0160
     10 C           3.6612   -1.5901   22.6330 C.ar    1  UNL1        0.0780
     11 C           6.2395   -4.2289   23.8391 C.2     1  UNL1        0.2489
     12 O           7.1987   -5.0852   23.0669 O.2     1  UNL1       -0.2700
     13 N           6.2381   -4.2690   25.3386 N.am    1  UNL1       -0.2984
     14 H           5.6085   -3.7070   25.8455 H       1  UNL1        0.1498
     15 C           7.1960   -5.1655   26.0658 C.3     1  UNL1        0.1215
     16 C           6.8662   -5.6538   27.4452 C.3     1  UNL1        0.1583
     17 O           5.4355   -5.8608   27.8453 O.3     1  UNL1       -0.3802
     18 H           4.9774   -5.0060   27.8619 H       1  UNL1        0.2105
     19 C           3.3508   -2.0166   20.0126 C.3     1  UNL1        0.1518
     20 C           2.6179    1.6142   18.5877 C.ar    1  UNL1        0.2234
     21 N           3.9827    2.0117   18.1089 N.ar    1  UNL1       -0.1896
     22 C           5.1369    1.0664   18.2648 C.ar    1  UNL1        0.2012
     23 N           4.9264   -0.2763   18.8993 N.ar    1  UNL1       -0.2265
     24 C           3.5615   -0.6738   19.3780 C.ar    1  UNL1        0.0841
     25 C           2.4073    0.2715   19.2222 C.ar    1  UNL1        0.0468
     26 C           1.0424   -0.1261   19.7009 C.3     1  UNL1        0.0372
     27 C           1.2558    3.6602   19.4294 C.3     1  UNL1        0.2542
     28 O           1.4637    2.5595   18.4318 O.3     1  UNL1       -0.4563
@<TRIPOS>BOND
     1    27    28    1
     2    28    20    1
     3    20    21   ar
     4    21    22   ar
     5    22    23   ar
     6    23    24   ar
     7    24    19    1
     8    19     1    1
     9     1     2   ar
    10     2     3   ar
    11     3    11    1
    12    11    12    2
    13    11    13   am
    14    13    15    1
    15    15    16    1
    16    16    17    1
    17     3     4   ar
    18     4     5   ar
    19     5     6   ar
    20     6     7   ar
    21     7     8    1
    22     7     9   ar
    23     9    10   ar
    24    24    25   ar
    25    25    26    1
    26    25    20   ar
    27    10     1   ar
    28    10     4   ar
    29    13    14    1
    30    17    18    1
@<TRIPOS>MOLECULE
*****
 28 30 0 0 0
SMALL
GASTEIGER

@<TRIPOS>ATOM
      1 N           2.3037   -0.8988   20.2212 N.ar    1  UNL1       -0.3190
      2 C           1.3444    0.0033   19.5030 C.ar    1  UNL1        0.0823
      3 C           0.7858    0.9741   20.5007 C.ar    1  UNL1        0.0895
      4 C           1.3999    0.6721   21.8355 C.ar    1  UNL1        0.1028
      5 N           1.2260    1.3015   23.1859 N.ar    1  UNL1       -0.2425
      6 C           1.9903    0.7733   24.3635 C.ar    1  UNL1        0.0946
      7 C           2.9285   -0.3842   24.1908 C.ar    1  UNL1       -0.0013
      8 C           3.6928   -0.9124   25.3685 C.3     1  UNL1        0.0327
      9 C           3.1024   -1.0137   22.8404 C.ar    1  UNL1        0.0160
     10 C           2.3381   -0.4855   21.6628 C.ar    1  UNL1        0.0780
     11 C          -0.2119    2.0570   20.2140 C.2     1  UNL1        0.2489
     12 O          -0.1967    2.7589   18.8886 O.2     1  UNL1       -0.2700
     13 N          -1.2247    2.4379   21.2529 N.am    1  UNL1       -0.2984
     14 H          -1.2347    1.9772   22.1229 H       1  UNL1        0.1498
     15 C          -2.2223    3.5208   20.9662 C.3     1  UNL1        0.1215
     16 C          -3.5972    3.4507   21.5618 C.3     1  UNL1        0.1583
     17 O          -4.5817    2.4370   21.0587 O.3     1  UNL1       -0.3802
     18 H          -4.8134    2.6401   20.1389 H       1  UNL1        0.2105
     19 C           3.0907   -2.0178   19.6059 C.3     1  UNL1        0.1518
     20 C           6.4556   -0.9438   17.7963 C.ar    1  UNL1        0.2234
     21 N           7.4768   -1.4812   18.7546 N.ar    1  UNL1       -0.1896
     22 C           7.0360   -2.1975   19.9967 C.ar    1  UNL1        0.2012
     23 N           5.5740   -2.3763   20.2805 N.ar    1  UNL1       -0.2265
     24 C           4.5528   -1.8389   19.3222 C.ar    1  UNL1        0.0841
     25 C           4.9936   -1.1227   18.0801 C.ar    1  UNL1        0.0468
     26 C           3.9723   -0.5853   17.1219 C.3     1  UNL1        0.0372
     27 C           7.2869    1.2191   16.6214 C.3     1  UNL1        0.2542
     28 O           6.8963   -0.2276   16.5543 O.3     1  UNL1       -0.4563
@<TRIPOS>BOND
     1    27    28    1
     2    28    20    1
     3    20    21   ar
     4    21    22   ar
     5    22    23   ar
     6    23    24   ar
     7    24    19    1
     8    19     1    1
     9     1     2   ar
    10     2     3   ar
    11     3    11    1
    12    11    12    2
    13    11    13   am
    14    13    15    1
    15    15    16    1
    16    16    17    1
    17     3     4   ar
    18     4     5   ar
    19     5     6   ar
    20     6     7   ar
    21     7     8    1
    22     7     9   ar
    23     9    10   ar
    24    24    25   ar
    25    25    26    1
    26    25    20   ar
    27    10     1   ar
    28    10     4   ar
    29    13    14    1
    30    17    18    1
@<TRIPOS>MOLECULE
*****
 28 30 0 0 0
SMALL
GASTEIGER

@<TRIPOS>ATOM
      1 N           6.2913   -3.8152   22.3956 N.ar    1  UNL1       -0.3190
      2 C           7.0483   -4.3761   23.5628 C.ar    1  UNL1        0.0823
      3 C           6.5299   -3.7218   24.8091 C.ar    1  UNL1        0.0895
      4 C           5.4525   -2.7565   24.4121 C.ar    1  UNL1        0.1028
      5 N           4.5868   -1.8324   25.2161 N.ar    1  UNL1       -0.2425
      6 C           3.5735   -0.9661   24.5286 C.ar    1  UNL1        0.0946
      7 C           3.4261   -1.0239   23.0369 C.ar    1  UNL1       -0.0013
      8 C           2.4127   -0.1575   22.3494 C.3     1  UNL1        0.0327
      9 C           4.2918   -1.9479   22.2329 C.ar    1  UNL1        0.0160
     10 C           5.3051   -2.8142   22.9205 C.ar    1  UNL1        0.0780
     11 C           7.0054   -3.9863   26.2069 C.2     1  UNL1        0.2489
     12 O           8.3957   -4.4976   26.4421 O.2     1  UNL1       -0.2700
     13 N           6.0904   -3.7394   27.3697 N.am    1  UNL1       -0.2984
     14 H           5.1778   -3.4038   27.2154 H       1  UNL1        0.1498
     15 C           6.5659   -4.0039   28.7675 C.3     1  UNL1        0.1215
     16 C           6.5949   -5.4071   29.2969 C.3     1  UNL1        0.1583
     17 O           7.2135   -6.5035   28.4813 O.3     1  UNL1       -0.3802
     18 H           6.6888   -6.6440   27.6776 H       1  UNL1        0.2105
     19 C           6.4863   -4.1895   20.9562 C.3     1  UNL1        0.1518
     20 C           5.7596   -1.8063   17.8671 C.ar    1  UNL1        0.2234
     21 N           7.0103   -0.9784   17.8474 N.ar    1  UNL1       -0.1896
     22 C           8.0863   -1.2209   18.8640 C.ar    1  UNL1        0.2012
     23 N           7.9117   -2.2912   19.9002 N.ar    1  UNL1       -0.2265
     24 C           6.6610   -3.1191   19.9199 C.ar    1  UNL1        0.0841
     25 C           5.5849   -2.8766   18.9033 C.ar    1  UNL1        0.0468
     26 C           4.3342   -3.7045   18.9231 C.3     1  UNL1        0.0372
     27 C           3.6309   -0.5262   17.1057 C.3     1  UNL1        0.2542
     28 O           4.6836   -1.5638   16.8505 O.3     1  UNL1       -0.4563
@<TRIPOS>BOND
     1    27    28    1
     2    28    20    1
     3    20    21   ar
     4    21    22   ar
     5    22    23   ar
     6    23    24   ar
     7    24    19    1
     8    19     1    1
     9     1     2   ar
    10     2     3   ar
    11     3    11    1
    12    11    12    2
    13    11    13   am
    14    13    15    1
    15    15    16    1
    16    16    17    1
    17     3     4   ar
    18     4     5   ar
    19     5     6   ar
    20     6     7   ar
    21     7     8    1
    22     7     9   ar
    23     9    10   ar
    24    24    25   ar
    25    25    26    1
    26    25    20   ar
    27    10     1   ar
    28    10     4   ar
    29    13    14    1
    30    17    18    1
@<TRIPOS>MOLECULE
*****
 28 30 0 0 0
SMALL
GASTEIGER

@<TRIPOS>ATOM
      1 N           7.0868   -3.8432   22.8544 N.ar    1  UNL1       -0.3190
      2 C           6.2941   -2.6462   23.2889 C.ar    1  UNL1        0.0823
      3 C           6.0061   -2.7881   24.7542 C.ar    1  UNL1        0.0895
      4 C           6.6208   -4.0728   25.2252 C.ar    1  UNL1        0.1028
      5 N           6.6587   -4.7330   26.5715 N.ar    1  UNL1       -0.2425
      6 C           7.3645   -6.0453   26.7436 C.ar    1  UNL1        0.0946
      7 C           8.0324   -6.6974   25.5695 C.ar    1  UNL1       -0.0013
      8 C           8.7382   -8.0097   25.7417 C.3     1  UNL1        0.0327
      9 C           7.9945   -6.0372   24.2232 C.ar    1  UNL1        0.0160
     10 C           7.2887   -4.7249   24.0510 C.ar    1  UNL1        0.0780
     11 C           5.2382   -1.8160   25.6000 C.2     1  UNL1        0.2489
     12 O           3.9288   -1.2697   25.1134 O.2     1  UNL1       -0.2700
     13 N           5.7798   -1.3903   26.9325 N.am    1  UNL1       -0.2984
     14 H           6.6392   -1.7489   27.2519 H       1  UNL1        0.1498
     15 C           5.0119   -0.4182   27.7783 C.3     1  UNL1        0.1215
     16 C           3.8103   -0.8801   28.5482 C.3     1  UNL1        0.1583
     17 O           2.5621   -1.2822   27.8199 O.3     1  UNL1       -0.3802
     18 H           2.1828   -0.5075   27.3762 H       1  UNL1        0.2105
     19 C           7.5893   -4.1115   21.4667 C.3     1  UNL1        0.1518
     20 C           6.3761   -2.2822   18.1603 C.ar    1  UNL1        0.2234
     21 N           5.0765   -2.9870   17.9070 N.ar    1  UNL1       -0.1896
     22 C           4.6145   -4.0667   18.8402 C.ar    1  UNL1        0.2012
     23 N           5.4520   -4.4415   20.0268 N.ar    1  UNL1       -0.2265
     24 C           6.7517   -3.7367   20.2801 C.ar    1  UNL1        0.0841
     25 C           7.2137   -2.6570   19.3469 C.ar    1  UNL1        0.0468
     26 C           8.5133   -1.9522   19.6003 C.3     1  UNL1        0.0372
     27 C           6.1755    0.1430   17.2503 C.3     1  UNL1        0.2542
     28 O           6.8381   -1.2025   17.2271 O.3     1  UNL1       -0.4563
@<TRIPOS>BOND
     1    27    28    1
     2    28    20    1
     3    20    21   ar
     4    21    22   ar
     5    22    23   ar
     6    23    24   ar
     7    24    19    1
     8    19     1    1
     9     1     2   ar
    10     2     3   ar
    11     3    11    1
    12    11    12    2
    13    11    13   am
    14    13    15    1
    15    15    16    1
    16    16    17    1
    17     3     4   ar
    18     4     5   ar
    19     5     6   ar
    20     6     7   ar
    21     7     8    1
    22     7     9   ar
    23     9    10   ar
    24    24    25   ar
    25    25    26    1
    26    25    20   ar
    27    10     1   ar
    28    10     4   ar
    29    13    14    1
    30    17    18    1
