@<TRIPOS>MOLECULE
*****
 28 31 0 0 0
SMALL
GASTEIGER

@<TRIPOS>ATOM
      1 C          -7.7198  -20.2160   21.7319 C.3     1  UNL1        0.1363
      2 N          -6.3313  -19.7222   21.4519 N.ar    1  UNL1       -0.2667
      3 C          -5.8824  -18.3981   21.9951 C.ar    1  UNL1        0.2036
      4 N          -4.4939  -17.9043   21.7151 N.ar    1  UNL1       -0.2133
      5 C          -3.5544  -18.7347   20.8918 C.ar    1  UNL1        0.1065
      6 C          -4.0033  -20.0588   20.3486 C.ar    1  UNL1        0.0815
      7 C          -5.3918  -20.5526   20.6287 C.ar    1  UNL1        0.2646
      8 O          -5.8407  -21.8768   20.0854 O.2     1  UNL1       -0.2668
      9 N          -6.8219  -17.5676   22.8183 N.pl3   1  UNL1       -0.2740
     10 C          -6.2920  -16.4360   23.6481 C.3     1  UNL1        0.1257
     11 C          -7.2316  -15.6056   24.4714 C.3     1  UNL1        0.1640
     12 O          -8.7010  -15.9068   24.4648 O.3     1  UNL1       -0.3482
     13 C          -9.2309  -17.0385   23.6349 C.3     1  UNL1        0.1602
     14 C          -8.2914  -17.8689   22.8117 C.3     1  UNL1        0.1277
     15 C         -10.7003  -17.3397   23.6283 C.ar    1  UNL1        0.0443
     16 C         -11.6192  -16.5721   22.7247 C.ar    1  UNL1        0.1393
     17 F         -11.0687  -15.5033   21.8277 F       1  UNL1       -0.2044
     18 C         -13.0886  -16.8733   22.7181 C.ar    1  UNL1        0.0294
     19 C         -13.6392  -17.9422   23.6151 C.ar    1  UNL1        0.0032
     20 C         -12.7203  -18.7097   24.5187 C.ar    1  UNL1        0.0113
     21 C         -11.2509  -18.4085   24.5253 C.ar    1  UNL1        0.0582
     22 CL        -10.3320  -19.1761   25.4289 Cl      1  UNL1       -0.0824
     23 C          -2.1660  -18.2409   20.6118 C.ar    1  UNL1        0.1024
     24 C          -1.8146  -16.8054   20.8679 C.ar    1  UNL1        0.0414
     25 C          -0.4261  -16.3116   20.5879 C.ar    1  UNL1        0.1023
     26 N           0.6109  -17.2534   20.0518 N.ar    1  UNL1       -0.2224
     27 C           0.2595  -18.6890   19.7957 C.ar    1  UNL1        0.1989
     28 N          -1.1289  -19.1828   20.0757 N.ar    1  UNL1       -0.2224
@<TRIPOS>BOND
     1     1     2    1
     2     2     3   ar
     3     3     9    1
     4     9    10    1
     5    10    11    1
     6    11    12    1
     7    12    13    1
     8    13    15    1
     9    15    16   ar
    10    16    17    1
    11    16    18   ar
    12    18    19   ar
    13    19    20   ar
    14    20    21   ar
    15    21    22    1
    16    13    14    1
    17     3     4   ar
    18     4     5   ar
    19     5    23    1
    20    23    24   ar
    21    24    25   ar
    22    25    26   ar
    23    26    27   ar
    24    27    28   ar
    25     5     6   ar
    26     6     7   ar
    27     7     8    2
    28     7     2   ar
    29    14     9    1
    30    28    23   ar
    31    21    15   ar
@<TRIPOS>MOLECULE
*****
 28 31 0 0 0
SMALL
GASTEIGER

@<TRIPOS>ATOM
      1 C          -7.7679  -16.3512   24.1776 C.3     1  UNL1        0.1363
      2 N          -6.4915  -16.7295   23.4865 N.ar    1  UNL1       -0.2667
      3 C          -6.5151  -17.7107   22.3522 C.ar    1  UNL1        0.2036
      4 N          -5.2387  -18.0890   21.6611 N.ar    1  UNL1       -0.2133
      5 C          -3.9387  -17.4861   22.1042 C.ar    1  UNL1        0.1065
      6 C          -3.9151  -16.5048   23.2385 C.ar    1  UNL1        0.0815
      7 C          -5.1915  -16.1266   23.9296 C.ar    1  UNL1        0.2646
      8 O          -5.1679  -15.1453   25.0639 O.2     1  UNL1       -0.2668
      9 N          -7.8152  -18.3137   21.9090 N.pl3   1  UNL1       -0.2740
     10 C          -7.8799  -19.1042   20.6359 C.3     1  UNL1        0.1257
     11 C          -9.1799  -19.7072   20.1927 C.3     1  UNL1        0.1640
     12 O         -10.4152  -19.5197   21.0227 O.3     1  UNL1       -0.3482
     13 C         -10.3504  -18.7291   22.2959 C.3     1  UNL1        0.1602
     14 C          -9.0505  -18.1262   22.7390 C.3     1  UNL1        0.1277
     15 C         -11.5857  -18.5415   23.1258 C.ar    1  UNL1        0.0443
     16 C         -11.6433  -19.0920   24.5201 C.ar    1  UNL1        0.1393
     17 F         -10.4656  -19.8300   25.0842 F       1  UNL1       -0.2044
     18 C         -12.8786  -18.9045   25.3500 C.ar    1  UNL1        0.0294
     19 C         -14.0563  -18.1664   24.7858 C.ar    1  UNL1        0.0032
     20 C         -13.9987  -17.6160   23.3917 C.ar    1  UNL1        0.0113
     21 C         -12.7635  -17.8036   22.5617 C.ar    1  UNL1        0.0582
     22 CL        -12.7059  -17.2531   21.1675 Cl      1  UNL1       -0.0824
     23 C          -2.6623  -17.8643   21.4131 C.ar    1  UNL1        0.1024
     24 C          -2.3611  -19.3064   21.1309 C.ar    1  UNL1        0.0414
     25 C          -1.0847  -19.6847   20.4397 C.ar    1  UNL1        0.1023
     26 N          -0.1094  -18.6209   20.0308 N.ar    1  UNL1       -0.2224
     27 C          -0.4106  -17.1788   20.3131 C.ar    1  UNL1        0.1989
     28 N          -1.6870  -16.8006   21.0042 N.ar    1  UNL1       -0.2224
@<TRIPOS>BOND
     1     1     2    1
     2     2     3   ar
     3     3     9    1
     4     9    10    1
     5    10    11    1
     6    11    12    1
     7    12    13    1
     8    13    15    1
     9    15    16   ar
    10    16    17    1
    11    16    18   ar
    12    18    19   ar
    13    19    20   ar
    14    20    21   ar
    15    21    22    1
    16    13    14    1
    17     3     4   ar
    18     4     5   ar
    19     5    23    1
    20    23    24   ar
    21    24    25   ar
    22    25    26   ar
    23    26    27   ar
    24    27    28   ar
    25     5     6   ar
    26     6     7   ar
    27     7     8    2
    28     7     2   ar
    29    14     9    1
    30    28    23   ar
    31    21    15   ar
@<TRIPOS>MOLECULE
*****
 28 31 0 0 0
SMALL
GASTEIGER

@<TRIPOS>ATOM
      1 C           6.2734   -2.2005   32.0388 C.3     1  UNL1        0.1363
      2 N           5.1413   -1.6511   31.2224 N.ar    1  UNL1       -0.2667
      3 C           5.2384   -1.6275   29.7258 C.ar    1  UNL1        0.2036
      4 N           4.1063   -1.0781   28.9093 N.ar    1  UNL1       -0.2133
      5 C           2.8772   -0.5522   29.5896 C.ar    1  UNL1        0.1065
      6 C           2.7802   -0.5758   31.0862 C.ar    1  UNL1        0.0815
      7 C           3.9123   -1.1252   31.9026 C.ar    1  UNL1        0.2646
      8 O           3.8152   -1.1487   33.3993 O.2     1  UNL1       -0.2668
      9 N           6.4675   -2.1534   29.0455 N.pl3   1  UNL1       -0.2740
     10 C           7.5956   -1.2232   28.7108 C.3     1  UNL1        0.1257
     11 C           8.8247   -1.7490   28.0305 C.3     1  UNL1        0.1640
     12 O           8.9257   -3.2052   27.6849 O.3     1  UNL1       -0.3482
     13 C           7.7975   -4.1355   28.0196 C.3     1  UNL1        0.1602
     14 C           6.5685   -3.6096   28.6999 C.3     1  UNL1        0.1277
     15 C           7.8985   -5.5916   27.6740 C.ar    1  UNL1        0.0443
     16 C           7.2403   -6.1150   26.4318 C.ar    1  UNL1        0.1393
     17 F           6.4812   -5.1823   25.5353 F       1  UNL1       -0.2044
     18 C           7.3413   -7.5712   26.0862 C.ar    1  UNL1        0.0294
     19 C           8.1005   -8.5039   26.9828 C.ar    1  UNL1        0.0032
     20 C           8.7586   -7.9805   28.2249 C.ar    1  UNL1        0.0113
     21 C           8.6576   -6.5243   28.5705 C.ar    1  UNL1        0.0582
     22 CL          9.3158   -6.0009   29.8127 Cl      1  UNL1       -0.0824
     23 C           1.7451   -0.0028   28.7731 C.ar    1  UNL1        0.1024
     24 C           2.0303    0.7667   27.5176 C.ar    1  UNL1        0.0414
     25 C           0.8982    1.3161   26.7012 C.ar    1  UNL1        0.1023
     26 N          -0.5190    1.0960   27.1403 N.ar    1  UNL1       -0.2224
     27 C          -0.8042    0.3265   28.3958 C.ar    1  UNL1        0.1989
     28 N           0.3279   -0.2229   29.2123 N.ar    1  UNL1       -0.2224
@<TRIPOS>BOND
     1     1     2    1
     2     2     3   ar
     3     3     9    1
     4     9    10    1
     5    10    11    1
     6    11    12    1
     7    12    13    1
     8    13    15    1
     9    15    16   ar
    10    16    17    1
    11    16    18   ar
    12    18    19   ar
    13    19    20   ar
    14    20    21   ar
    15    21    22    1
    16    13    14    1
    17     3     4   ar
    18     4     5   ar
    19     5    23    1
    20    23    24   ar
    21    24    25   ar
    22    25    26   ar
    23    26    27   ar
    24    27    28   ar
    25     5     6   ar
    26     6     7   ar
    27     7     8    2
    28     7     2   ar
    29    14     9    1
    30    28    23   ar
    31    21    15   ar
@<TRIPOS>MOLECULE
*****
 28 31 0 0 0
SMALL
GASTEIGER

@<TRIPOS>ATOM
      1 C           0.6410    2.6038   20.9037 C.3     1  UNL1        0.1363
      2 N           1.4481    1.3543   20.7105 N.ar    1  UNL1       -0.2667
      3 C           2.3076    0.8367   21.8254 C.ar    1  UNL1        0.2036
      4 N           3.1147   -0.4129   21.6321 N.ar    1  UNL1       -0.2133
      5 C           3.0622   -1.1447   20.3239 C.ar    1  UNL1        0.1065
      6 C           2.2027   -0.6271   19.2089 C.ar    1  UNL1        0.0815
      7 C           1.3956    0.6224   19.4022 C.ar    1  UNL1        0.2646
      8 O           0.5360    1.1401   18.2871 O.2     1  UNL1       -0.2668
      9 N           2.3601    1.5685   23.1338 N.pl3   1  UNL1       -0.2740
     10 C           3.1687    2.8258   23.2579 C.3     1  UNL1        0.1257
     11 C           3.2212    3.5577   24.5662 C.3     1  UNL1        0.1640
     12 O           2.4651    3.0322   25.7504 O.3     1  UNL1       -0.3482
     13 C           1.6565    1.7749   25.6262 C.3     1  UNL1        0.1602
     14 C           1.6041    1.0431   24.3179 C.3     1  UNL1        0.1277
     15 C           0.9004    1.2494   26.8104 C.ar    1  UNL1        0.0443
     16 C          -0.5752    1.4928   26.9262 C.ar    1  UNL1        0.1393
     17 F          -1.2947    2.2616   25.8579 F       1  UNL1       -0.2044
     18 C          -1.3313    0.9673   28.1103 C.ar    1  UNL1        0.0294
     19 C          -0.6117    0.1985   29.1787 C.ar    1  UNL1        0.0032
     20 C           0.8638   -0.0448   29.0628 C.ar    1  UNL1        0.0113
     21 C           1.6199    0.4806   27.8786 C.ar    1  UNL1        0.0582
     22 CL          3.0956    0.2373   27.7628 Cl      1  UNL1       -0.0824
     23 C           3.8692   -2.3943   20.1306 C.ar    1  UNL1        0.1024
     24 C           3.3999   -3.4497   19.1737 C.ar    1  UNL1        0.0414
     25 C           4.2070   -4.6992   18.9804 C.ar    1  UNL1        0.1023
     26 N           5.4834   -4.8933   19.7440 N.ar    1  UNL1       -0.2224
     27 C           5.9527   -3.8379   20.7009 C.ar    1  UNL1        0.1989
     28 N           5.1456   -2.5883   20.8942 N.ar    1  UNL1       -0.2224
@<TRIPOS>BOND
     1     1     2    1
     2     2     3   ar
     3     3     9    1
     4     9    10    1
     5    10    11    1
     6    11    12    1
     7    12    13    1
     8    13    15    1
     9    15    16   ar
    10    16    17    1
    11    16    18   ar
    12    18    19   ar
    13    19    20   ar
    14    20    21   ar
    15    21    22    1
    16    13    14    1
    17     3     4   ar
    18     4     5   ar
    19     5    23    1
    20    23    24   ar
    21    24    25   ar
    22    25    26   ar
    23    26    27   ar
    24    27    28   ar
    25     5     6   ar
    26     6     7   ar
    27     7     8    2
    28     7     2   ar
    29    14     9    1
    30    28    23   ar
    31    21    15   ar
@<TRIPOS>MOLECULE
*****
 28 31 0 0 0
SMALL
GASTEIGER

@<TRIPOS>ATOM
      1 C           0.6742    2.6576   20.8587 C.3     1  UNL1        0.1363
      2 N           1.4722    1.4015   20.6701 N.ar    1  UNL1       -0.2667
      3 C           2.3165    0.8738   21.7920 C.ar    1  UNL1        0.2036
      4 N           3.1145   -0.3823   21.6034 N.ar    1  UNL1       -0.2133
      5 C           3.0682   -1.1106   20.2930 C.ar    1  UNL1        0.1065
      6 C           2.2239   -0.5829   19.1711 C.ar    1  UNL1        0.0815
      7 C           1.4259    0.6732   19.3597 C.ar    1  UNL1        0.2646
      8 O           0.5816    1.2009   18.2377 O.2     1  UNL1       -0.2668
      9 N           2.3629    1.6021   23.1026 N.pl3   1  UNL1       -0.2740
     10 C           3.1318    2.8846   23.2211 C.3     1  UNL1        0.1257
     11 C           3.1781    3.6129   24.5316 C.3     1  UNL1        0.1640
     12 O           2.4556    3.0587   25.7236 O.3     1  UNL1       -0.3482
     13 C           1.6867    1.7762   25.6050 C.3     1  UNL1        0.1602
     14 C           1.6403    1.0479   24.2945 C.3     1  UNL1        0.1277
     15 C           0.9641    1.2220   26.7970 C.ar    1  UNL1        0.0443
     16 C           1.6956    0.3614   27.7841 C.ar    1  UNL1        0.1393
     17 F           3.1496    0.0549   27.5792 F       1  UNL1       -0.2044
     18 C           0.9730   -0.1928   28.9760 C.ar    1  UNL1        0.0294
     19 C          -0.4810    0.1136   29.1809 C.ar    1  UNL1        0.0032
     20 C          -1.2124    0.9743   28.1939 C.ar    1  UNL1        0.0113
     21 C          -0.4899    1.5285   27.0019 C.ar    1  UNL1        0.0582
     22 CL         -1.2214    2.3891   26.0148 Cl      1  UNL1       -0.0824
     23 C           3.8662   -2.3666   20.1044 C.ar    1  UNL1        0.1024
     24 C           5.2312   -2.4867   20.7145 C.ar    1  UNL1        0.0414
     25 C           6.0292   -3.7428   20.5259 C.ar    1  UNL1        0.1023
     26 N           5.4622   -4.8787   19.7272 N.ar    1  UNL1       -0.2224
     27 C           4.0972   -4.7586   19.1170 C.ar    1  UNL1        0.1989
     28 N           3.2992   -3.5026   19.3056 N.ar    1  UNL1       -0.2224
@<TRIPOS>BOND
     1     1     2    1
     2     2     3   ar
     3     3     9    1
     4     9    10    1
     5    10    11    1
     6    11    12    1
     7    12    13    1
     8    13    15    1
     9    15    16   ar
    10    16    17    1
    11    16    18   ar
    12    18    19   ar
    13    19    20   ar
    14    20    21   ar
    15    21    22    1
    16    13    14    1
    17     3     4   ar
    18     4     5   ar
    19     5    23    1
    20    23    24   ar
    21    24    25   ar
    22    25    26   ar
    23    26    27   ar
    24    27    28   ar
    25     5     6   ar
    26     6     7   ar
    27     7     8    2
    28     7     2   ar
    29    14     9    1
    30    28    23   ar
    31    21    15   ar
@<TRIPOS>MOLECULE
*****
 28 31 0 0 0
SMALL
GASTEIGER

@<TRIPOS>ATOM
      1 C           8.0900   -7.2328   24.2277 C.3     1  UNL1        0.1363
      2 N           7.7846   -6.5220   25.5128 N.ar    1  UNL1       -0.2667
      3 C           7.5867   -5.0352   25.5189 C.ar    1  UNL1        0.2036
      4 N           7.2812   -4.3245   26.8040 N.ar    1  UNL1       -0.2133
      5 C           7.1737   -5.1006   28.0831 C.ar    1  UNL1        0.1065
      6 C           7.3716   -6.5874   28.0770 C.ar    1  UNL1        0.0815
      7 C           7.6770   -7.2981   26.7919 C.ar    1  UNL1        0.2646
      8 O           7.8749   -8.7851   26.7858 O.2     1  UNL1       -0.2668
      9 N           7.6942   -4.2590   24.2398 N.pl3   1  UNL1       -0.2740
     10 C           9.0431   -3.8880   23.6987 C.3     1  UNL1        0.1257
     11 C           9.1506   -3.1118   22.4196 C.3     1  UNL1        0.1640
     12 O           7.9092   -2.7066   21.6816 O.3     1  UNL1       -0.3482
     13 C           6.5602   -3.0776   22.2228 C.3     1  UNL1        0.1602
     14 C           6.4528   -3.8538   23.5018 C.3     1  UNL1        0.1277
     15 C           5.3188   -2.6724   21.4848 C.ar    1  UNL1        0.0443
     16 C           4.9028   -3.4174   20.2510 C.ar    1  UNL1        0.1393
     17 F           5.7283   -4.5675   19.7553 F       1  UNL1       -0.2044
     18 C           3.6614   -3.0122   19.5130 C.ar    1  UNL1        0.0294
     19 C           2.8359   -1.8620   20.0088 C.ar    1  UNL1        0.0032
     20 C           3.2519   -1.1171   21.2425 C.ar    1  UNL1        0.0113
     21 C           4.4933   -1.5223   21.9805 C.ar    1  UNL1        0.0582
     22 CL          4.9093   -0.7773   23.2142 Cl      1  UNL1       -0.0824
     23 C           6.8682   -4.3899   29.3682 C.ar    1  UNL1        0.1024
     24 C           7.0061   -5.1119   30.6757 C.ar    1  UNL1        0.0414
     25 C           6.7007   -4.4012   31.9608 C.ar    1  UNL1        0.1023
     26 N           6.2573   -2.9684   31.9385 N.ar    1  UNL1       -0.2224
     27 C           6.1195   -2.2463   30.6310 C.ar    1  UNL1        0.1989
     28 N           6.4249   -2.9571   29.3459 N.ar    1  UNL1       -0.2224
@<TRIPOS>BOND
     1     1     2    1
     2     2     3   ar
     3     3     9    1
     4     9    10    1
     5    10    11    1
     6    11    12    1
     7    12    13    1
     8    13    15    1
     9    15    16   ar
    10    16    17    1
    11    16    18   ar
    12    18    19   ar
    13    19    20   ar
    14    20    21   ar
    15    21    22    1
    16    13    14    1
    17     3     4   ar
    18     4     5   ar
    19     5    23    1
    20    23    24   ar
    21    24    25   ar
    22    25    26   ar
    23    26    27   ar
    24    27    28   ar
    25     5     6   ar
    26     6     7   ar
    27     7     8    2
    28     7     2   ar
    29    14     9    1
    30    28    23   ar
    31    21    15   ar
@<TRIPOS>MOLECULE
*****
 28 31 0 0 0
SMALL
GASTEIGER

@<TRIPOS>ATOM
      1 C           0.0560    2.3521   22.8264 C.3     1  UNL1        0.1363
      2 N           0.3919    2.0297   24.2523 N.ar    1  UNL1       -0.2667
      3 C           1.7282    1.4395   24.5930 C.ar    1  UNL1        0.2036
      4 N           2.0641    1.1170   26.0189 N.ar    1  UNL1       -0.2133
      5 C           1.0637    1.3848   27.1041 C.ar    1  UNL1        0.1065
      6 C          -0.2725    1.9750   26.7633 C.ar    1  UNL1        0.0815
      7 C          -0.6084    2.2974   25.3374 C.ar    1  UNL1        0.2646
      8 O          -1.9447    2.8877   24.9967 O.2     1  UNL1       -0.2668
      9 N           2.7286    1.1717   23.5078 N.pl3   1  UNL1       -0.2740
     10 C           3.6628    2.2581   23.0642 C.3     1  UNL1        0.1257
     11 C           4.6632    1.9903   21.9790 C.3     1  UNL1        0.1640
     12 O           4.7293    0.6361   21.3375 O.3     1  UNL1       -0.3482
     13 C           3.7950   -0.4504   21.7811 C.3     1  UNL1        0.1602
     14 C           2.7947   -0.1826   22.8663 C.3     1  UNL1        0.1277
     15 C           3.8611   -1.8047   21.1396 C.ar    1  UNL1        0.0443
     16 C           4.3314   -2.9880   21.9324 C.ar    1  UNL1        0.1393
     17 F           4.7356   -2.8171   23.3668 F       1  UNL1       -0.2044
     18 C           4.3975   -4.3423   21.2909 C.ar    1  UNL1        0.0294
     19 C           3.9933   -4.5132   19.8565 C.ar    1  UNL1        0.0032
     20 C           3.5230   -3.3299   19.0637 C.ar    1  UNL1        0.0113
     21 C           3.4569   -1.9756   19.7053 C.ar    1  UNL1        0.0582
     22 CL          2.9865   -0.7923   18.9124 Cl      1  UNL1       -0.0824
     23 C           1.3996    1.0623   28.5300 C.ar    1  UNL1        0.1024
     24 C           2.0739   -0.2345   28.8669 C.ar    1  UNL1        0.0414
     25 C           2.4098   -0.5569   30.2928 C.ar    1  UNL1        0.1023
     26 N           2.0715    0.4175   31.3818 N.ar    1  UNL1       -0.2224
     27 C           1.3972    1.7143   31.0449 C.ar    1  UNL1        0.1989
     28 N           1.0613    2.0367   29.6190 N.ar    1  UNL1       -0.2224
@<TRIPOS>BOND
     1     1     2    1
     2     2     3   ar
     3     3     9    1
     4     9    10    1
     5    10    11    1
     6    11    12    1
     7    12    13    1
     8    13    15    1
     9    15    16   ar
    10    16    17    1
    11    16    18   ar
    12    18    19   ar
    13    19    20   ar
    14    20    21   ar
    15    21    22    1
    16    13    14    1
    17     3     4   ar
    18     4     5   ar
    19     5    23    1
    20    23    24   ar
    21    24    25   ar
    22    25    26   ar
    23    26    27   ar
    24    27    28   ar
    25     5     6   ar
    26     6     7   ar
    27     7     8    2
    28     7     2   ar
    29    14     9    1
    30    28    23   ar
    31    21    15   ar
@<TRIPOS>MOLECULE
*****
 28 31 0 0 0
SMALL
GASTEIGER

@<TRIPOS>ATOM
      1 C           2.4929   -0.2576   27.9600 C.3     1  UNL1        0.1363
      2 N           1.3874    0.5827   27.3929 N.ar    1  UNL1       -0.2667
      3 C           1.5099    1.1488   26.0093 C.ar    1  UNL1        0.2036
      4 N           0.4044    1.9892   25.4421 N.ar    1  UNL1       -0.2133
      5 C          -0.8236    2.2635   26.2587 C.ar    1  UNL1        0.1065
      6 C          -0.9461    1.6974   27.6423 C.ar    1  UNL1        0.0815
      7 C           0.1594    0.8570   28.2094 C.ar    1  UNL1        0.2646
      8 O           0.0369    0.2910   29.5931 O.2     1  UNL1       -0.2668
      9 N           2.7379    0.8745   25.1927 N.pl3   1  UNL1       -0.2740
     10 C           3.9973    1.6478   25.4492 C.3     1  UNL1        0.1257
     11 C           5.2254    1.3735   24.6326 C.3     1  UNL1        0.1640
     12 O           5.1939    0.3259   23.5595 O.3     1  UNL1       -0.3482
     13 C           3.9344   -0.4474   23.3029 C.3     1  UNL1        0.1602
     14 C           2.7064   -0.1731   24.1195 C.3     1  UNL1        0.1277
     15 C           3.9029   -1.4950   22.2298 C.ar    1  UNL1        0.0443
     16 C           3.2406   -1.2030   20.9159 C.ar    1  UNL1        0.1393
     17 F           2.6098    0.1364   20.6752 F       1  UNL1       -0.2044
     18 C           3.2091   -2.2506   19.8428 C.ar    1  UNL1        0.0294
     19 C           3.8400   -3.5901   20.0836 C.ar    1  UNL1        0.0032
     20 C           4.5022   -3.8820   21.3974 C.ar    1  UNL1        0.0113
     21 C           4.5337   -2.8344   22.4705 C.ar    1  UNL1        0.0582
     22 CL          5.1960   -3.1263   23.7844 Cl      1  UNL1       -0.0824
     23 C          -1.9291    3.1039   25.6915 C.ar    1  UNL1        0.1024
     24 C          -3.0452    3.5722   26.5775 C.ar    1  UNL1        0.0414
     25 C          -4.1507    4.4126   26.0104 C.ar    1  UNL1        0.1023
     26 N          -4.1401    4.7846   24.5573 N.ar    1  UNL1       -0.2224
     27 C          -3.0240    4.3163   23.6714 C.ar    1  UNL1        0.1989
     28 N          -1.9185    3.4759   24.2385 N.ar    1  UNL1       -0.2224
@<TRIPOS>BOND
     1     1     2    1
     2     2     3   ar
     3     3     9    1
     4     9    10    1
     5    10    11    1
     6    11    12    1
     7    12    13    1
     8    13    15    1
     9    15    16   ar
    10    16    17    1
    11    16    18   ar
    12    18    19   ar
    13    19    20   ar
    14    20    21   ar
    15    21    22    1
    16    13    14    1
    17     3     4   ar
    18     4     5   ar
    19     5    23    1
    20    23    24   ar
    21    24    25   ar
    22    25    26   ar
    23    26    27   ar
    24    27    28   ar
    25     5     6   ar
    26     6     7   ar
    27     7     8    2
    28     7     2   ar
    29    14     9    1
    30    28    23   ar
    31    21    15   ar
@<TRIPOS>MOLECULE
*****
 28 31 0 0 0
SMALL
GASTEIGER

@<TRIPOS>ATOM
      1 C           3.0647   -0.1322   27.2755 C.3     1  UNL1        0.1363
      2 N           1.8418    0.6473   26.8924 N.ar    1  UNL1       -0.2667
      3 C           1.7155    1.2123   25.5087 C.ar    1  UNL1        0.2036
      4 N           0.4925    1.9919   25.1256 N.ar    1  UNL1       -0.2133
      5 C          -0.6041    2.2064   26.1263 C.ar    1  UNL1        0.1065
      6 C          -0.4778    1.6414   27.5100 C.ar    1  UNL1        0.0815
      7 C           0.7451    0.8618   27.8931 C.ar    1  UNL1        0.2646
      8 O           0.8714    0.2968   29.2769 O.2     1  UNL1       -0.2668
      9 N           2.8121    0.9978   24.5080 N.pl3   1  UNL1       -0.2740
     10 C           3.9126    2.0081   24.3731 C.3     1  UNL1        0.1257
     11 C           5.0092    1.7936   23.3724 C.3     1  UNL1        0.1640
     12 O           5.0054    0.5687   22.5065 O.3     1  UNL1       -0.3482
     13 C           3.9048   -0.4416   22.6414 C.3     1  UNL1        0.1602
     14 C           2.8082   -0.2271   23.6421 C.3     1  UNL1        0.1277
     15 C           3.9009   -1.6665   21.7756 C.ar    1  UNL1        0.0443
     16 C           4.3830   -2.9758   22.3263 C.ar    1  UNL1        0.1393
     17 F           4.8689   -3.0603   23.7429 F       1  UNL1       -0.2044
     18 C           4.3791   -4.2007   21.4605 C.ar    1  UNL1        0.0294
     19 C           3.8932   -4.1162   20.0438 C.ar    1  UNL1        0.0032
     20 C           3.4111   -2.8069   19.4931 C.ar    1  UNL1        0.0113
     21 C           3.4150   -1.5820   20.3590 C.ar    1  UNL1        0.0582
     22 CL          2.9329   -0.2727   19.8082 Cl      1  UNL1       -0.0824
     23 C          -1.8270    2.9860   25.7432 C.ar    1  UNL1        0.1024
     24 C          -2.0115    3.4437   24.3268 C.ar    1  UNL1        0.0414
     25 C          -3.2344    4.2233   23.9437 C.ar    1  UNL1        0.1023
     26 N          -4.2729    4.5451   24.9771 N.ar    1  UNL1       -0.2224
     27 C          -4.0884    4.0873   26.3935 C.ar    1  UNL1        0.1989
     28 N          -2.8655    3.3078   26.7766 N.ar    1  UNL1       -0.2224
@<TRIPOS>BOND
     1     1     2    1
     2     2     3   ar
     3     3     9    1
     4     9    10    1
     5    10    11    1
     6    11    12    1
     7    12    13    1
     8    13    15    1
     9    15    16   ar
    10    16    17    1
    11    16    18   ar
    12    18    19   ar
    13    19    20   ar
    14    20    21   ar
    15    21    22    1
    16    13    14    1
    17     3     4   ar
    18     4     5   ar
    19     5    23    1
    20    23    24   ar
    21    24    25   ar
    22    25    26   ar
    23    26    27   ar
    24    27    28   ar
    25     5     6   ar
    26     6     7   ar
    27     7     8    2
    28     7     2   ar
    29    14     9    1
    30    28    23   ar
    31    21    15   ar
