@<TRIPOS>MOLECULE
*****
 26 29 0 0 0
SMALL
GASTEIGER

@<TRIPOS>ATOM
      1 C          -6.1394  -16.1560   24.0779 C.2     1  UNL1        0.3270
      2 N          -4.6473  -16.2727   23.9784 N.2     1  UNL1       -0.0380
      3 C          -4.3319  -17.4105   23.0532 C.2     1  UNL1        0.2637
      4 C          -3.0312  -17.9882   22.5799 C.2     1  UNL1        0.2821
      5 N          -3.0276  -19.1526   21.6341 N.2     1  UNL1       -0.0268
      6 C          -4.3248  -19.7392   21.1619 C.2     1  UNL1        0.3760
      7 N          -4.6332  -20.8791   20.2370 N.2     1  UNL1       -0.0306
      8 C          -6.1246  -21.0059   20.1388 C.2     1  UNL1        0.2361
      9 C          -6.7379  -19.9443   21.0030 C.2     1  UNL1        0.0583
     10 C          -5.6256  -19.1614   21.6353 C.2     1  UNL1        0.1203
     11 C          -5.6292  -17.9971   22.5810 C.3     1  UNL1        0.2596
     12 N          -6.7463  -17.2218   23.2142 N.pl3   1  UNL1       -0.1887
     13 C          -8.2127  -17.4688   23.0183 C.3     1  UNL1        0.1605
     14 C          -9.0036  -16.5932   22.0921 C.3     1  UNL1        0.0466
     15 C         -10.4702  -16.8403   21.8962 C.3     1  UNL1        0.0041
     16 C         -11.1457  -17.9630   22.6263 C.3     1  UNL1        0.0013
     17 C         -10.3548  -18.8386   23.5525 C.3     1  UNL1        0.0041
     18 C          -8.8883  -18.5916   23.7484 C.3     1  UNL1        0.0466
     19 C         -12.6121  -18.2101   22.4304 C.3     1  UNL1        0.0162
     20 C         -13.6127  -17.5246   23.3129 C.3     1  UNL1        0.1054
     21 C         -14.0291  -18.1579   24.6074 C.1     1  UNL1        0.0731
     22 N         -14.4454  -18.7912   25.9019 N.1     1  UNL1       -0.1959
     23 C          -6.8892  -15.2485   26.3940 C.3     1  UNL1        0.0450
     24 C          -6.8925  -15.1503   24.8972 C.3     1  UNL1        0.2165
     25 O          -7.6488  -14.0462   24.2197 O.3     1  UNL1       -0.3737
     26 H          -7.5479  -14.1277   23.2584 H       1  UNL1        0.2111
@<TRIPOS>BOND
     1    24    23    1
     2    24    25    1
     3    24     1    1
     4     1     2    2
     5     2     3    1
     6     3     4    2
     7     4     5    1
     8     5     6    2
     9     6     7    1
    10     7     8    2
    11     8     9    1
    12     9    10    2
    13    10    11    1
    14    11    12    1
    15    13    12    1
    16    13    14    1
    17    14    15    1
    18    15    16    1
    19    16    19    1
    20    19    20    1
    21    20    21    1
    22    21    22    3
    23    16    17    1
    24    17    18    1
    25    12     1    1
    26    18    13    1
    27    11     3    1
    28    10     6    1
    29    25    26    1
@<TRIPOS>MOLECULE
*****
 26 29 0 0 0
SMALL
GASTEIGER

@<TRIPOS>ATOM
      1 C         -11.6606  -17.8685   21.9884 C.2     1  UNL1        0.3270
      2 N         -11.7625  -18.5567   20.6595 N.2     1  UNL1       -0.0380
      3 C         -10.3953  -19.0475   20.2856 C.2     1  UNL1        0.2637
      4 C          -9.8903  -19.7951   19.0873 C.2     1  UNL1        0.2821
      5 N          -8.4382  -20.1580   18.9868 N.2     1  UNL1       -0.0268
      6 C          -7.4913  -19.7732   20.0846 C.2     1  UNL1        0.3760
      7 N          -6.0180  -19.9921   20.2619 N.2     1  UNL1       -0.0306
      8 C          -5.6126  -19.3798   21.5698 C.2     1  UNL1        0.2361
      9 C          -6.8352  -18.7824   22.2008 C.2     1  UNL1        0.0583
     10 C          -7.9964  -19.0255   21.2829 C.2     1  UNL1        0.1203
     11 C          -9.4484  -18.6627   21.3834 C.3     1  UNL1        0.2596
     12 N         -10.2304  -17.9340   22.4358 N.pl3   1  UNL1       -0.1887
     13 C          -9.6789  -17.3699   23.7116 C.3     1  UNL1        0.1605
     14 C          -9.1463  -15.9680   23.7433 C.3     1  UNL1        0.0466
     15 C          -8.5949  -15.4039   25.0192 C.3     1  UNL1        0.0041
     16 C          -8.5761  -16.2417   26.2633 C.3     1  UNL1        0.0013
     17 C          -9.1088  -17.6436   26.2315 C.3     1  UNL1        0.0041
     18 C          -9.6602  -18.2077   24.9558 C.3     1  UNL1        0.0466
     19 C          -8.0247  -15.6776   27.5391 C.3     1  UNL1        0.0162
     20 C          -6.5807  -15.2797   27.6208 C.3     1  UNL1        0.1054
     21 C          -5.7810  -15.0964   26.3651 C.1     1  UNL1        0.0731
     22 N          -4.9813  -14.9131   25.1094 N.1     1  UNL1       -0.1959
     23 C         -13.6526  -18.0537   23.6460 C.3     1  UNL1        0.0450
     24 C         -12.7905  -17.2274   22.7382 C.3     1  UNL1        0.2165
     25 O         -13.0583  -15.7600   22.5803 O.3     1  UNL1       -0.3737
     26 H         -12.4148  -15.3785   21.9628 H       1  UNL1        0.2111
@<TRIPOS>BOND
     1    24    23    1
     2    24    25    1
     3    24     1    1
     4     1     2    2
     5     2     3    1
     6     3     4    2
     7     4     5    1
     8     5     6    2
     9     6     7    1
    10     7     8    2
    11     8     9    1
    12     9    10    2
    13    10    11    1
    14    11    12    1
    15    13    12    1
    16    13    14    1
    17    14    15    1
    18    15    16    1
    19    16    19    1
    20    19    20    1
    21    20    21    1
    22    21    22    3
    23    16    17    1
    24    17    18    1
    25    12     1    1
    26    18    13    1
    27    11     3    1
    28    10     6    1
    29    25    26    1
@<TRIPOS>MOLECULE
*****
 26 29 0 0 0
SMALL
GASTEIGER

@<TRIPOS>ATOM
      1 C          -5.8422  -16.2147   24.1544 C.2     1  UNL1        0.3270
      2 N          -4.3443  -16.2863   24.1864 N.2     1  UNL1       -0.0380
      3 C          -3.9119  -17.3720   23.2460 C.2     1  UNL1        0.2637
      4 C          -2.5566  -17.8922   22.8688 C.2     1  UNL1        0.2821
      5 N          -2.4319  -19.0120   21.8785 N.2     1  UNL1       -0.0268
      6 C          -3.6627  -19.6115   21.2654 C.2     1  UNL1        0.3760
      7 N          -3.8511  -20.7162   20.2684 N.2     1  UNL1       -0.0306
      8 C          -5.3230  -20.8787   20.0295 C.2     1  UNL1        0.2361
      9 C          -6.0442  -19.8744   20.8787 C.2     1  UNL1        0.0583
     10 C          -5.0180  -19.0912   21.6426 C.2     1  UNL1        0.1203
     11 C          -5.1427  -17.9715   22.6329 C.3     1  UNL1        0.2596
     12 N          -6.3357  -17.2562   23.1943 N.pl3   1  UNL1       -0.1887
     13 C          -7.7702  -17.5338   22.8552 C.3     1  UNL1        0.1605
     14 C          -8.4028  -18.8281   23.2730 C.3     1  UNL1        0.0466
     15 C          -9.8374  -19.1056   22.9338 C.3     1  UNL1        0.0041
     16 C         -10.6394  -18.0888   22.1770 C.3     1  UNL1        0.0013
     17 C         -10.0068  -16.7944   21.7593 C.3     1  UNL1        0.0041
     18 C          -8.5723  -16.5169   22.0984 C.3     1  UNL1        0.0466
     19 C         -12.0739  -18.3663   21.8379 C.3     1  UNL1        0.0162
     20 C         -12.9708  -17.2472   21.3985 C.3     1  UNL1        0.1054
     21 C         -12.5740  -16.3780   20.2421 C.1     1  UNL1        0.0731
     22 N         -12.1773  -15.5089   19.0857 N.1     1  UNL1       -0.1959
     23 C          -6.8279  -15.4362   26.4287 C.3     1  UNL1        0.0450
     24 C          -6.6967  -15.2679   24.9440 C.3     1  UNL1        0.2165
     25 O          -7.4199  -14.1527   24.2487 O.3     1  UNL1       -0.3737
     26 H          -7.2289  -14.1864   23.2983 H       1  UNL1        0.2111
@<TRIPOS>BOND
     1    24    23    1
     2    24    25    1
     3    24     1    1
     4     1     2    2
     5     2     3    1
     6     3     4    2
     7     4     5    1
     8     5     6    2
     9     6     7    1
    10     7     8    2
    11     8     9    1
    12     9    10    2
    13    10    11    1
    14    11    12    1
    15    13    12    1
    16    13    14    1
    17    14    15    1
    18    15    16    1
    19    16    19    1
    20    19    20    1
    21    20    21    1
    22    21    22    3
    23    16    17    1
    24    17    18    1
    25    12     1    1
    26    18    13    1
    27    11     3    1
    28    10     6    1
    29    25    26    1
@<TRIPOS>MOLECULE
*****
 26 29 0 0 0
SMALL
GASTEIGER

@<TRIPOS>ATOM
      1 C          -9.1768  -20.0739   19.3645 C.2     1  UNL1        0.3270
      2 N         -10.6167  -19.6705   19.4822 N.2     1  UNL1       -0.0380
      3 C         -10.7296  -18.6755   20.5991 C.2     1  UNL1        0.2637
      4 C         -11.9029  -17.9348   21.1687 C.2     1  UNL1        0.2821
      5 N         -11.7061  -16.9826   22.3109 N.2     1  UNL1       -0.0268
      6 C         -10.3359  -16.7712   22.8835 C.2     1  UNL1        0.3760
      7 N          -9.8381  -15.9033   24.0011 N.2     1  UNL1       -0.0306
      8 C          -8.3570  -16.1077   24.1221 C.2     1  UNL1        0.2361
      9 C          -7.9395  -17.1019   23.0794 C.2     1  UNL1        0.0583
     10 C          -9.1625  -17.5119   22.3138 C.2     1  UNL1        0.1203
     11 C          -9.3594  -18.4641   21.1717 C.3     1  UNL1        0.2596
     12 N          -8.3997  -19.3283   20.4087 N.pl3   1  UNL1       -0.1887
     13 C          -6.9224  -19.4293   20.6478 C.3     1  UNL1        0.1605
     14 C          -6.4084  -19.9836   21.9434 C.3     1  UNL1        0.0466
     15 C          -4.9310  -20.0845   22.1825 C.3     1  UNL1        0.0041
     16 C          -3.9676  -19.6312   21.1260 C.3     1  UNL1        0.0013
     17 C          -4.4815  -19.0769   19.8304 C.3     1  UNL1        0.0041
     18 C          -5.9588  -18.9760   19.5912 C.3     1  UNL1        0.0466
     19 C          -2.4903  -19.7322   21.3651 C.3     1  UNL1        0.0162
     20 C          -1.7635  -18.6140   22.0518 C.3     1  UNL1        0.1054
     21 C          -2.2951  -17.2136   21.9723 C.1     1  UNL1        0.0731
     22 N          -2.8268  -15.8132   21.8929 N.1     1  UNL1       -0.1959
     23 C          -9.2062  -21.1554   17.0024 C.3     1  UNL1        0.0450
     24 C          -8.6130  -21.0513   18.3762 C.3     1  UNL1        0.2165
     25 O          -7.4560  -21.9247   18.7617 O.3     1  UNL1       -0.3737
     26 H          -7.1962  -21.7322   19.6762 H       1  UNL1        0.2111
@<TRIPOS>BOND
     1    24    23    1
     2    24    25    1
     3    24     1    1
     4     1     2    2
     5     2     3    1
     6     3     4    2
     7     4     5    1
     8     5     6    2
     9     6     7    1
    10     7     8    2
    11     8     9    1
    12     9    10    2
    13    10    11    1
    14    11    12    1
    15    13    12    1
    16    13    14    1
    17    14    15    1
    18    15    16    1
    19    16    19    1
    20    19    20    1
    21    20    21    1
    22    21    22    3
    23    16    17    1
    24    17    18    1
    25    12     1    1
    26    18    13    1
    27    11     3    1
    28    10     6    1
    29    25    26    1
@<TRIPOS>MOLECULE
*****
 26 29 0 0 0
SMALL
GASTEIGER

@<TRIPOS>ATOM
      1 C          -6.2647  -19.4888   21.0553 C.2     1  UNL1        0.3270
      2 N          -4.8054  -19.1940   21.2386 N.2     1  UNL1       -0.0380
      3 C          -4.6772  -18.1108   22.2683 C.2     1  UNL1        0.2637
      4 C          -3.4821  -17.4172   22.8519 C.2     1  UNL1        0.2821
      5 N          -3.6670  -16.3489   23.8886 N.2     1  UNL1       -0.0268
      6 C          -5.0470  -15.9744   24.3417 C.2     1  UNL1        0.3760
      7 N          -5.5369  -14.9678   25.3400 N.2     1  UNL1       -0.0306
      8 C          -7.0348  -15.0394   25.3734 C.2     1  UNL1        0.2361
      9 C          -7.4706  -16.0901   24.3957 C.2     1  UNL1        0.0583
     10 C          -6.2421  -16.6680   23.7580 C.2     1  UNL1        0.1203
     11 C          -6.0572  -17.7362   22.7214 C.3     1  UNL1        0.2596
     12 N          -7.0383  -18.5879   21.9717 N.pl3   1  UNL1       -0.1887
     13 C          -8.5310  -18.5460   22.1135 C.3     1  UNL1        0.1605
     14 C          -9.3163  -17.4497   21.4567 C.3     1  UNL1        0.0466
     15 C         -10.8090  -17.4078   21.5986 C.3     1  UNL1        0.0041
     16 C         -11.5164  -18.4623   22.3971 C.3     1  UNL1        0.0013
     17 C         -10.7311  -19.5586   23.0539 C.3     1  UNL1        0.0041
     18 C          -9.2384  -19.6005   22.9121 C.3     1  UNL1        0.0466
     19 C         -13.0090  -18.4204   22.5389 C.3     1  UNL1        0.0162
     20 C         -13.6376  -17.5731   23.6053 C.3     1  UNL1        0.1054
     21 C         -14.1317  -18.2063   24.8722 C.1     1  UNL1        0.0731
     22 N         -14.6258  -18.8395   26.1390 N.1     1  UNL1       -0.1959
     23 C          -6.1881  -21.8437   19.9604 C.3     1  UNL1        0.0450
     24 C          -6.8479  -20.5061   20.1198 C.3     1  UNL1        0.2165
     25 O          -8.0909  -20.1856   19.3437 O.3     1  UNL1       -0.3737
     26 H          -8.3858  -19.2876   19.5619 H       1  UNL1        0.2111
@<TRIPOS>BOND
     1    24    23    1
     2    24    25    1
     3    24     1    1
     4     1     2    2
     5     2     3    1
     6     3     4    2
     7     4     5    1
     8     5     6    2
     9     6     7    1
    10     7     8    2
    11     8     9    1
    12     9    10    2
    13    10    11    1
    14    11    12    1
    15    13    12    1
    16    13    14    1
    17    14    15    1
    18    15    16    1
    19    16    19    1
    20    19    20    1
    21    20    21    1
    22    21    22    3
    23    16    17    1
    24    17    18    1
    25    12     1    1
    26    18    13    1
    27    11     3    1
    28    10     6    1
    29    25    26    1
@<TRIPOS>MOLECULE
*****
 26 29 0 0 0
SMALL
GASTEIGER

@<TRIPOS>ATOM
      1 C          -8.4408  -19.2216   20.5455 C.2     1  UNL1        0.3270
      2 N          -7.6155  -20.0635   19.6181 N.2     1  UNL1       -0.0380
      3 C          -6.1868  -19.9848   20.0684 C.2     1  UNL1        0.2637
      4 C          -4.9310  -20.6090   19.5363 C.2     1  UNL1        0.2821
      5 N          -3.6173  -20.3427   20.2099 N.2     1  UNL1       -0.0268
      6 C          -3.5598  -19.4522   21.4155 C.2     1  UNL1        0.3760
      7 N          -2.4188  -19.0099   22.2830 N.2     1  UNL1       -0.0306
      8 C          -2.9695  -18.1123   23.3512 C.2     1  UNL1        0.2361
      9 C          -4.4509  -17.9999   23.1439 C.2     1  UNL1        0.0583
     10 C          -4.8157  -18.8280   21.9476 C.2     1  UNL1        0.1203
     11 C          -6.1292  -19.0943   21.2740 C.3     1  UNL1        0.2596
     12 N          -7.5222  -18.6227   21.5689 N.pl3   1  UNL1       -0.1887
     13 C          -7.9259  -17.7119   22.6903 C.3     1  UNL1        0.1605
     14 C          -8.8528  -18.2060   23.7612 C.3     1  UNL1        0.0466
     15 C          -9.2564  -17.2951   24.8826 C.3     1  UNL1        0.0041
     16 C          -8.7331  -15.8903   24.9332 C.3     1  UNL1        0.0013
     17 C          -7.8061  -15.3963   23.8624 C.3     1  UNL1        0.0041
     18 C          -7.4025  -16.3070   22.7410 C.3     1  UNL1        0.0466
     19 C          -9.1367  -14.9796   26.0546 C.3     1  UNL1        0.0162
     20 C          -8.4240  -15.0512   27.3725 C.3     1  UNL1        0.1054
     21 C          -7.1204  -15.7854   27.4812 C.1     1  UNL1        0.0731
     22 N          -5.8169  -16.5196   27.5899 N.1     1  UNL1       -0.1959
     23 C         -10.8525  -19.9520   21.1783 C.3     1  UNL1        0.0450
     24 C          -9.9243  -19.0151   20.4638 C.3     1  UNL1        0.2165
     25 O         -10.4795  -17.8715   19.6676 O.3     1  UNL1       -0.3737
     26 H          -9.7503  -17.3679   19.2732 H       1  UNL1        0.2111
@<TRIPOS>BOND
     1    24    23    1
     2    24    25    1
     3    24     1    1
     4     1     2    2
     5     2     3    1
     6     3     4    2
     7     4     5    1
     8     5     6    2
     9     6     7    1
    10     7     8    2
    11     8     9    1
    12     9    10    2
    13    10    11    1
    14    11    12    1
    15    13    12    1
    16    13    14    1
    17    14    15    1
    18    15    16    1
    19    16    19    1
    20    19    20    1
    21    20    21    1
    22    21    22    3
    23    16    17    1
    24    17    18    1
    25    12     1    1
    26    18    13    1
    27    11     3    1
    28    10     6    1
    29    25    26    1
@<TRIPOS>MOLECULE
*****
 26 29 0 0 0
SMALL
GASTEIGER

@<TRIPOS>ATOM
      1 C          -8.7735  -19.6372   20.0467 C.2     1  UNL1        0.3270
      2 N         -10.1537  -19.1926   20.4305 N.2     1  UNL1       -0.0380
      3 C         -10.0255  -18.1767   21.5267 C.2     1  UNL1        0.2637
      4 C         -11.0490  -17.3949   22.2954 C.2     1  UNL1        0.2821
      5 N         -10.6132  -16.4297   23.3577 N.2     1  UNL1       -0.0268
      6 C          -9.1537  -16.2464   23.6513 C.2     1  UNL1        0.3760
      7 N          -8.4293  -15.3742   24.6334 N.2     1  UNL1       -0.0306
      8 C          -6.9579  -15.6170   24.4717 C.2     1  UNL1        0.2361
      9 C          -6.7730  -16.6393   23.3896 C.2     1  UNL1        0.0583
     10 C          -8.1301  -17.0283   22.8826 C.2     1  UNL1        0.1203
     11 C          -8.5659  -17.9934   21.8203 C.3     1  UNL1        0.2596
     12 N          -7.7922  -18.8960   20.9057 N.pl3   1  UNL1       -0.1887
     13 C          -6.2993  -19.0334   20.8582 C.3     1  UNL1        0.1605
     14 C          -5.5627  -18.7754   19.5773 C.3     1  UNL1        0.0466
     15 C          -4.0697  -18.9128   19.5299 C.3     1  UNL1        0.0041
     16 C          -3.3134  -19.3082   20.7634 C.3     1  UNL1        0.0013
     17 C          -4.0500  -19.5662   22.0444 C.3     1  UNL1        0.0041
     18 C          -5.5429  -19.4288   22.0918 C.3     1  UNL1        0.0466
     19 C          -1.8205  -19.4455   20.7160 C.3     1  UNL1        0.0162
     20 C          -0.9565  -18.2214   20.6443 C.3     1  UNL1        0.1054
     21 C          -1.4614  -16.9147   21.1808 C.1     1  UNL1        0.0731
     22 N          -1.9661  -15.6080   21.7172 N.1     1  UNL1       -0.1959
     23 C          -9.2434  -20.7115   17.7284 C.3     1  UNL1        0.0450
     24 C          -8.4342  -20.6458   18.9896 C.3     1  UNL1        0.2165
     25 O          -7.2856  -21.5887   19.1938 O.3     1  UNL1       -0.3737
     26 H          -6.8726  -21.4138   20.0538 H       1  UNL1        0.2111
@<TRIPOS>BOND
     1    24    23    1
     2    24    25    1
     3    24     1    1
     4     1     2    2
     5     2     3    1
     6     3     4    2
     7     4     5    1
     8     5     6    2
     9     6     7    1
    10     7     8    2
    11     8     9    1
    12     9    10    2
    13    10    11    1
    14    11    12    1
    15    13    12    1
    16    13    14    1
    17    14    15    1
    18    15    16    1
    19    16    19    1
    20    19    20    1
    21    20    21    1
    22    21    22    3
    23    16    17    1
    24    17    18    1
    25    12     1    1
    26    18    13    1
    27    11     3    1
    28    10     6    1
    29    25    26    1
@<TRIPOS>MOLECULE
*****
 26 29 0 0 0
SMALL
GASTEIGER

@<TRIPOS>ATOM
      1 C         -13.5049   -7.6222   18.2513 C.2     1  UNL1        0.3270
      2 N         -14.4163   -8.8062   18.3831 N.2     1  UNL1       -0.0380
      3 C         -15.7751   -8.3041   18.7728 C.2     1  UNL1        0.2637
      4 C         -17.0683   -9.0145   19.0425 C.2     1  UNL1        0.2821
      5 N         -18.2899   -8.2306   19.4212 N.2     1  UNL1       -0.0268
      6 C         -18.2181   -6.7363   19.5302 C.2     1  UNL1        0.3760
      7 N         -19.2491   -5.7049   19.8813 N.2     1  UNL1       -0.0306
      8 C         -18.5930   -4.3571   19.8285 C.2     1  UNL1        0.2361
      9 C         -17.1565   -4.5554   19.4449 C.2     1  UNL1        0.0583
     10 C         -16.9248   -6.0259   19.2605 C.2     1  UNL1        0.1203
     11 C         -15.7033   -6.8098   18.8818 C.3     1  UNL1        0.2596
     12 N         -14.3003   -6.3883   18.5594 N.pl3   1  UNL1       -0.1887
     13 C         -13.7834   -4.9803   18.5474 C.3     1  UNL1        0.1605
     14 C         -13.4234   -4.3024   19.8362 C.3     1  UNL1        0.0466
     15 C         -12.9065   -2.8943   19.8241 C.3     1  UNL1        0.0041
     16 C         -12.7496   -2.1641   18.5233 C.3     1  UNL1        0.0013
     17 C         -13.1095   -2.8420   17.2345 C.3     1  UNL1        0.0041
     18 C         -13.6264   -4.2500   17.2465 C.3     1  UNL1        0.0466
     19 C         -12.2327   -0.7561   18.5112 C.3     1  UNL1        0.0162
     20 C         -11.9849   -0.0592   17.2062 C.3     1  UNL1        0.1054
     21 C         -12.0627    1.4368   17.1282 C.1     1  UNL1        0.0731
     22 N         -12.1404    2.9327   17.0503 N.1     1  UNL1       -0.1959
     23 C         -11.6522   -7.7207   16.4326 C.3     1  UNL1        0.0450
     24 C         -12.0530   -7.6646   17.8769 C.3     1  UNL1        0.2165
     25 O         -11.0019   -7.6509   18.9470 O.3     1  UNL1       -0.3737
     26 H         -11.4275   -7.6133   19.8178 H       1  UNL1        0.2111
@<TRIPOS>BOND
     1    24    23    1
     2    24    25    1
     3    24     1    1
     4     1     2    2
     5     2     3    1
     6     3     4    2
     7     4     5    1
     8     5     6    2
     9     6     7    1
    10     7     8    2
    11     8     9    1
    12     9    10    2
    13    10    11    1
    14    11    12    1
    15    13    12    1
    16    13    14    1
    17    14    15    1
    18    15    16    1
    19    16    19    1
    20    19    20    1
    21    20    21    1
    22    21    22    3
    23    16    17    1
    24    17    18    1
    25    12     1    1
    26    18    13    1
    27    11     3    1
    28    10     6    1
    29    25    26    1
@<TRIPOS>MOLECULE
*****
 26 29 0 0 0
SMALL
GASTEIGER

@<TRIPOS>ATOM
      1 C         -15.6018   -3.4282   18.0127 C.2     1  UNL1        0.3270
      2 N         -14.8813   -2.1156   18.1006 N.2     1  UNL1       -0.0380
      3 C         -13.4288   -2.3995   18.3452 C.2     1  UNL1        0.2637
      4 C         -12.2447   -1.4953   18.5185 C.2     1  UNL1        0.2821
      5 N         -10.8834   -2.0792   18.7550 N.2     1  UNL1       -0.0268
      6 C         -10.7063   -3.5674   18.8183 C.2     1  UNL1        0.3760
      7 N          -9.4956   -4.4257   19.0365 N.2     1  UNL1       -0.0306
      8 C          -9.9316   -5.8604   18.9981 C.2     1  UNL1        0.2361
      9 C         -11.4117   -5.8888   18.7561 C.2     1  UNL1        0.0583
     10 C         -11.8905   -4.4716   18.6450 C.2     1  UNL1        0.1203
     11 C         -13.2518   -3.8877   18.4084 C.3     1  UNL1        0.2596
     12 N         -14.5948   -4.5234   18.2029 N.pl3   1  UNL1       -0.1887
     13 C         -14.8805   -5.9959   18.1900 C.3     1  UNL1        0.1605
     14 C         -14.5831   -6.8068   16.9637 C.3     1  UNL1        0.0466
     15 C         -14.8688   -8.2794   16.9507 C.3     1  UNL1        0.0041
     16 C         -15.4520   -8.9409   18.1641 C.3     1  UNL1        0.0013
     17 C         -15.7494   -8.1299   19.3905 C.3     1  UNL1        0.0041
     18 C         -15.4637   -6.6575   19.4034 C.3     1  UNL1        0.0466
     19 C         -15.7377  -10.4133   18.1512 C.3     1  UNL1        0.0162
     20 C         -17.0866  -10.9192   18.5688 C.3     1  UNL1        0.1054
     21 C         -18.3201  -10.4341   17.8664 C.1     1  UNL1        0.0731
     22 N         -19.5535   -9.9490   17.1640 N.1     1  UNL1       -0.1959
     23 C         -17.9858   -3.9055   18.9287 C.3     1  UNL1        0.0450
     24 C         -17.0715   -3.6131   17.7760 C.3     1  UNL1        0.2165
     25 O         -17.6268   -3.5057   16.3868 O.3     1  UNL1       -0.3737
     26 H         -16.9073   -3.3145   15.7649 H       1  UNL1        0.2111
@<TRIPOS>BOND
     1    24    23    1
     2    24    25    1
     3    24     1    1
     4     1     2    2
     5     2     3    1
     6     3     4    2
     7     4     5    1
     8     5     6    2
     9     6     7    1
    10     7     8    2
    11     8     9    1
    12     9    10    2
    13    10    11    1
    14    11    12    1
    15    13    12    1
    16    13    14    1
    17    14    15    1
    18    15    16    1
    19    16    19    1
    20    19    20    1
    21    20    21    1
    22    21    22    3
    23    16    17    1
    24    17    18    1
    25    12     1    1
    26    18    13    1
    27    11     3    1
    28    10     6    1
    29    25    26    1
