@<TRIPOS>MOLECULE
*****
 28 30 0 0 0
SMALL
GASTEIGER

@<TRIPOS>ATOM
      1 C          -3.9510  -16.5136   22.8749 C.ar    1  UNL1        0.2136
      2 O          -2.7775  -15.7818   22.2943 O.2     1  UNL1       -0.4474
      3 C          -2.0139  -16.7414   21.4305 C.ar    1  UNL1        0.1498
      4 C          -0.7703  -16.5799   20.6075 C.ar    1  UNL1        0.0582
      5 C          -0.2284  -17.7433   19.8312 C.ar    1  UNL1        0.1020
      6 N          -0.9301  -19.0683   19.8779 N.ar    1  UNL1       -0.2421
      7 C          -2.1737  -19.2298   20.7010 C.ar    1  UNL1        0.1032
      8 C          -2.7155  -18.0663   21.4773 C.ar    1  UNL1        0.0702
      9 C          -3.9128  -17.9255   22.3700 C.ar    1  UNL1        0.0925
     10 O          -4.9002  -16.1983   25.2727 O.2     1  UNL1       -0.2646
     11 C          -4.9819  -15.9351   23.7983 C.2     1  UNL1        0.3039
     12 N          -6.0944  -15.0933   23.2473 N.am    1  UNL1       -0.1871
     13 H          -6.1481  -14.9205   22.2796 H       1  UNL1        0.1829
     14 O          -7.1253  -14.5148   24.1707 O.3     1  UNL1       -0.2634
     15 C          -8.1312  -15.4124   24.8284 C.3     1  UNL1        0.2026
     16 C          -8.1620  -15.5361   26.3230 C.3     1  UNL1        0.1719
     17 O          -7.0345  -14.9850   27.1446 O.3     1  UNL1       -0.3794
     18 H          -6.2239  -15.4838   26.9571 H       1  UNL1        0.2105
     19 N          -4.8986  -19.0069   22.6998 N.pl3   1  UNL1       -0.3081
     20 H          -4.6837  -19.6751   23.3901 H       1  UNL1        0.1524
     21 C          -6.2119  -19.0701   21.9779 C.ar    1  UNL1        0.0762
     22 C          -7.4262  -18.4194   22.5715 C.ar    1  UNL1        0.0173
     23 C          -8.7395  -18.4826   21.8497 C.ar    1  UNL1        0.0072
     24 C          -8.8387  -19.1966   20.5342 C.ar    1  UNL1        0.0324
     25 I         -10.1521  -19.2599   19.8124 I       1  UNL1       -0.0424
     26 C          -7.6245  -19.8473   19.9406 C.ar    1  UNL1        0.0367
     27 C          -6.3111  -19.7841   20.6625 C.ar    1  UNL1        0.1538
     28 F          -5.0970  -20.4348   20.0688 F       1  UNL1       -0.2028
@<TRIPOS>BOND
     1    10    11    2
     2    11    12   am
     3    12    14    1
     4    14    15    1
     5    15    16    1
     6    16    17    1
     7    11     1    1
     8     1     2   ar
     9     2     3   ar
    10     3     4   ar
    11     4     5   ar
    12     5     6   ar
    13     6     7   ar
    14     7     8   ar
    15     8     9   ar
    16     9    19    1
    17    19    21    1
    18    21    22   ar
    19    22    23   ar
    20    23    24   ar
    21    24    25    1
    22    24    26   ar
    23    26    27   ar
    24    27    28    1
    25     9     1   ar
    26    27    21   ar
    27     8     3   ar
    28    12    13    1
    29    17    18    1
    30    19    20    1
@<TRIPOS>MOLECULE
*****
 28 30 0 0 0
SMALL
GASTEIGER

@<TRIPOS>ATOM
      1 C          -8.3644  -19.1549   20.6259 C.ar    1  UNL1        0.2136
      2 O          -7.6150  -20.3906   20.2240 O.2     1  UNL1       -0.4474
      3 C          -6.1563  -20.1515   20.4788 C.ar    1  UNL1        0.1498
      4 C          -4.9469  -21.0148   20.2738 C.ar    1  UNL1        0.0582
      5 C          -3.5854  -20.4947   20.6281 C.ar    1  UNL1        0.1020
      6 N          -3.4332  -19.1112   21.1875 N.ar    1  UNL1       -0.2421
      7 C          -4.6426  -18.2479   21.3926 C.ar    1  UNL1        0.1032
      8 C          -6.0041  -18.7681   21.0382 C.ar    1  UNL1        0.0702
      9 C          -7.3688  -18.1522   21.1291 C.ar    1  UNL1        0.0925
     10 O         -10.7766  -19.9620   21.1550 O.2     1  UNL1       -0.2646
     11 C          -9.8488  -18.9568   20.5397 C.2     1  UNL1        0.3039
     12 N         -10.4053  -17.7535   19.8381 N.am    1  UNL1       -0.1871
     13 H          -9.7964  -17.0937   19.4342 H       1  UNL1        0.1829
     14 O         -11.8897  -17.5554   19.7519 O.3     1  UNL1       -0.2634
     15 C         -12.6262  -16.9023   20.8838 C.3     1  UNL1        0.2026
     16 C         -11.8903  -16.0177   21.8461 C.3     1  UNL1        0.1719
     17 O         -10.5472  -15.4614   21.4767 O.3     1  UNL1       -0.3794
     18 H          -9.9070  -16.1861   21.4004 H       1  UNL1        0.2105
     19 N          -7.6828  -16.7752   21.6344 N.pl3   1  UNL1       -0.3081
     20 H          -7.9372  -16.0649   21.0020 H       1  UNL1        0.1524
     21 C          -7.6090  -16.4804   23.1033 C.ar    1  UNL1        0.0762
     22 C          -6.4637  -15.6818   23.6514 C.ar    1  UNL1        0.0173
     23 C          -6.3899  -15.3870   25.1203 C.ar    1  UNL1        0.0072
     24 C          -7.4615  -15.8908   26.0411 C.ar    1  UNL1        0.0324
     25 I          -7.3877  -15.5960   27.5100 I       1  UNL1       -0.0424
     26 C          -8.6068  -16.6894   25.4930 C.ar    1  UNL1        0.0367
     27 C          -8.6806  -16.9842   24.0241 C.ar    1  UNL1        0.1538
     28 F          -9.8260  -17.7828   23.4761 F       1  UNL1       -0.2028
@<TRIPOS>BOND
     1    10    11    2
     2    11    12   am
     3    12    14    1
     4    14    15    1
     5    15    16    1
     6    16    17    1
     7    11     1    1
     8     1     2   ar
     9     2     3   ar
    10     3     4   ar
    11     4     5   ar
    12     5     6   ar
    13     6     7   ar
    14     7     8   ar
    15     8     9   ar
    16     9    19    1
    17    19    21    1
    18    21    22   ar
    19    22    23   ar
    20    23    24   ar
    21    24    25    1
    22    24    26   ar
    23    26    27   ar
    24    27    28    1
    25     9     1   ar
    26    27    21   ar
    27     8     3   ar
    28    12    13    1
    29    17    18    1
    30    19    20    1
@<TRIPOS>MOLECULE
*****
 28 30 0 0 0
SMALL
GASTEIGER

@<TRIPOS>ATOM
      1 C          -7.9700  -18.7548   20.9577 C.ar    1  UNL1        0.2136
      2 O          -9.2259  -19.4923   20.5987 O.2     1  UNL1       -0.4474
      3 C         -10.3937  -18.6276   20.9707 C.ar    1  UNL1        0.1498
      4 C         -11.8744  -18.8341   20.8492 C.ar    1  UNL1        0.0582
      5 C         -12.8211  -17.7686   21.3167 C.ar    1  UNL1        0.1020
      6 N         -12.2870  -16.4966   21.9056 N.ar    1  UNL1       -0.2421
      7 C         -10.8063  -16.2901   22.0271 C.ar    1  UNL1        0.1032
      8 C          -9.8596  -17.3556   21.5596 C.ar    1  UNL1        0.0702
      9 C          -8.3617  -17.4343   21.5516 C.ar    1  UNL1        0.0925
     10 O          -6.0550  -20.3978   21.5768 O.2     1  UNL1       -0.2646
     11 C          -6.5685  -19.2508   20.7580 C.2     1  UNL1        0.3039
     12 N          -5.6806  -18.5997   19.7393 N.am    1  UNL1       -0.1871
     13 H          -6.0177  -17.8469   19.2019 H       1  UNL1        0.1829
     14 O          -4.2791  -19.0957   19.5396 O.3     1  UNL1       -0.2634
     15 C          -3.1514  -18.4933   20.3241 C.3     1  UNL1        0.2026
     16 C          -2.6651  -19.1644   21.5744 C.3     1  UNL1        0.1719
     17 O          -1.8529  -20.4222   21.4831 O.3     1  UNL1       -0.3794
     18 H          -2.4007  -21.1350   21.1188 H       1  UNL1        0.2105
     19 N          -7.4207  -16.3778   22.0500 N.pl3   1  UNL1       -0.3081
     20 H          -6.8620  -15.8762   21.4132 H       1  UNL1        0.1524
     21 C          -7.3310  -16.0855   23.5184 C.ar    1  UNL1        0.0762
     22 C          -8.5068  -16.3552   24.4101 C.ar    1  UNL1        0.0173
     23 C          -8.4171  -16.0629   25.8786 C.ar    1  UNL1        0.0072
     24 C          -7.1516  -15.5009   26.4555 C.ar    1  UNL1        0.0324
     25 I          -7.0620  -15.2086   27.9240 I       1  UNL1       -0.0424
     26 C          -5.9760  -15.2312   25.5639 C.ar    1  UNL1        0.0367
     27 C          -6.0656  -15.5235   24.0954 C.ar    1  UNL1        0.1538
     28 F          -4.8898  -15.2538   23.2039 F       1  UNL1       -0.2028
@<TRIPOS>BOND
     1    10    11    2
     2    11    12   am
     3    12    14    1
     4    14    15    1
     5    15    16    1
     6    16    17    1
     7    11     1    1
     8     1     2   ar
     9     2     3   ar
    10     3     4   ar
    11     4     5   ar
    12     5     6   ar
    13     6     7   ar
    14     7     8   ar
    15     8     9   ar
    16     9    19    1
    17    19    21    1
    18    21    22   ar
    19    22    23   ar
    20    23    24   ar
    21    24    25    1
    22    24    26   ar
    23    26    27   ar
    24    27    28    1
    25     9     1   ar
    26    27    21   ar
    27     8     3   ar
    28    12    13    1
    29    17    18    1
    30    19    20    1
@<TRIPOS>MOLECULE
*****
 28 30 0 0 0
SMALL
GASTEIGER

@<TRIPOS>ATOM
      1 C          -7.9842  -19.2641   20.7403 C.ar    1  UNL1        0.2136
      2 O          -7.0103  -20.0278   19.8927 O.2     1  UNL1       -0.4474
      3 C          -5.6473  -19.8739   20.4998 C.ar    1  UNL1        0.1498
      4 C          -4.3034  -20.4049   20.0972 C.ar    1  UNL1        0.0582
      5 C          -3.0911  -20.0770   20.9173 C.ar    1  UNL1        0.1020
      6 N          -3.2226  -19.2181   22.1400 N.ar    1  UNL1       -0.2421
      7 C          -4.5664  -18.6871   22.5426 C.ar    1  UNL1        0.1032
      8 C          -5.7787  -19.0151   21.7225 C.ar    1  UNL1        0.0702
      9 C          -7.2230  -18.6382   21.8711 C.ar    1  UNL1        0.0925
     10 O         -10.3957  -20.1762   21.0604 O.2     1  UNL1       -0.2646
     11 C          -9.4600  -19.1469   20.4992 C.2     1  UNL1        0.3039
     12 N         -10.0002  -18.0003   19.6970 N.am    1  UNL1       -0.1871
     13 H          -9.3861  -17.3247   19.3287 H       1  UNL1        0.1829
     14 O         -11.4761  -17.8831   19.4560 O.3     1  UNL1       -0.2634
     15 C         -12.1854  -16.5964   19.7580 C.3     1  UNL1        0.2026
     16 C         -11.8377  -15.3516   18.9967 C.3     1  UNL1        0.1719
     17 O         -10.4234  -14.8521   18.9816 O.3     1  UNL1       -0.3794
     18 H         -10.1699  -14.5720   19.8750 H       1  UNL1        0.2105
     19 N          -7.8041  -17.7851   22.9595 N.pl3   1  UNL1       -0.3081
     20 H          -7.2315  -17.1471   23.4436 H       1  UNL1        0.1524
     21 C          -9.2575  -17.9040   23.3105 C.ar    1  UNL1        0.0762
     22 C          -9.7335  -19.0469   24.1575 C.ar    1  UNL1        0.0173
     23 C         -11.1870  -19.1659   24.5085 C.ar    1  UNL1        0.0072
     24 C         -12.1646  -18.1420   24.0124 C.ar    1  UNL1        0.0324
     25 I         -13.6181  -18.2610   24.3634 I       1  UNL1       -0.0424
     26 C         -11.6886  -16.9992   23.1654 C.ar    1  UNL1        0.0367
     27 C         -10.2351  -16.8802   22.8144 C.ar    1  UNL1        0.1538
     28 F          -9.7593  -15.7373   21.9675 F       1  UNL1       -0.2028
@<TRIPOS>BOND
     1    10    11    2
     2    11    12   am
     3    12    14    1
     4    14    15    1
     5    15    16    1
     6    16    17    1
     7    11     1    1
     8     1     2   ar
     9     2     3   ar
    10     3     4   ar
    11     4     5   ar
    12     5     6   ar
    13     6     7   ar
    14     7     8   ar
    15     8     9   ar
    16     9    19    1
    17    19    21    1
    18    21    22   ar
    19    22    23   ar
    20    23    24   ar
    21    24    25    1
    22    24    26   ar
    23    26    27   ar
    24    27    28    1
    25     9     1   ar
    26    27    21   ar
    27     8     3   ar
    28    12    13    1
    29    17    18    1
    30    19    20    1
@<TRIPOS>MOLECULE
*****
 28 30 0 0 0
SMALL
GASTEIGER

@<TRIPOS>ATOM
      1 C          -4.8510  -16.6169   23.8632 C.ar    1  UNL1        0.2136
      2 O          -4.6591  -16.1028   25.2592 O.2     1  UNL1       -0.4474
      3 C          -6.0106  -15.7797   25.8241 C.ar    1  UNL1        0.1498
      4 C          -6.4386  -15.2398   27.1565 C.ar    1  UNL1        0.0582
      5 C          -7.8937  -15.0143   27.4419 C.ar    1  UNL1        0.1020
      6 N          -8.9209  -15.3288   26.3950 N.ar    1  UNL1       -0.2421
      7 C          -8.4930  -15.8687   25.0627 C.ar    1  UNL1        0.1032
      8 C          -7.0378  -16.0941   24.7772 C.ar    1  UNL1        0.0702
      9 C          -6.3211  -16.6116   23.5653 C.ar    1  UNL1        0.0925
     10 O          -2.9301  -16.0385   22.2124 O.2     1  UNL1       -0.2646
     11 C          -3.7637  -17.0589   22.9291 C.2     1  UNL1        0.3039
     12 N          -3.5101  -18.5212   22.7118 N.am    1  UNL1       -0.1871
     13 H          -4.0572  -19.1909   23.1822 H       1  UNL1        0.1829
     14 O          -2.4228  -18.9631   21.7777 O.3     1  UNL1       -0.2634
     15 C          -2.6459  -18.9236   20.2948 C.3     1  UNL1        0.2026
     16 C          -3.9780  -19.3137   19.7262 C.3     1  UNL1        0.1719
     17 O          -5.2153  -18.5719   20.1372 O.3     1  UNL1       -0.3794
     18 H          -5.3885  -18.7287   21.0787 H       1  UNL1        0.2105
     19 N          -6.9621  -17.0472   22.2810 N.pl3   1  UNL1       -0.3081
     20 H          -6.4068  -17.2124   21.4850 H       1  UNL1        0.1524
     21 C          -8.4489  -17.2312   22.2095 C.ar    1  UNL1        0.0762
     22 C          -9.3235  -16.1009   21.7536 C.ar    1  UNL1        0.0173
     23 C         -10.8104  -16.2849   21.6821 C.ar    1  UNL1        0.0072
     24 C         -11.4229  -17.5992   22.0664 C.ar    1  UNL1        0.0324
     25 I         -12.9098  -17.7831   21.9948 I       1  UNL1       -0.0424
     26 C         -10.5484  -18.7294   22.5222 C.ar    1  UNL1        0.0367
     27 C          -9.0614  -18.5454   22.5938 C.ar    1  UNL1        0.1538
     28 F          -8.1870  -19.6757   23.0496 F       1  UNL1       -0.2028
@<TRIPOS>BOND
     1    10    11    2
     2    11    12   am
     3    12    14    1
     4    14    15    1
     5    15    16    1
     6    16    17    1
     7    11     1    1
     8     1     2   ar
     9     2     3   ar
    10     3     4   ar
    11     4     5   ar
    12     5     6   ar
    13     6     7   ar
    14     7     8   ar
    15     8     9   ar
    16     9    19    1
    17    19    21    1
    18    21    22   ar
    19    22    23   ar
    20    23    24   ar
    21    24    25    1
    22    24    26   ar
    23    26    27   ar
    24    27    28    1
    25     9     1   ar
    26    27    21   ar
    27     8     3   ar
    28    12    13    1
    29    17    18    1
    30    19    20    1
@<TRIPOS>MOLECULE
*****
 28 30 0 0 0
SMALL
GASTEIGER

@<TRIPOS>ATOM
      1 C          -6.5285  -17.4017   22.7107 C.ar    1  UNL1        0.2136
      2 O          -5.0824  -17.6328   23.0354 O.2     1  UNL1       -0.4474
      3 C          -4.5505  -18.6581   22.0783 C.ar    1  UNL1        0.1498
      4 C          -3.1931  -19.2771   21.9228 C.ar    1  UNL1        0.0582
      5 C          -2.9530  -20.2986   20.8510 C.ar    1  UNL1        0.1020
      6 N          -4.0703  -20.7012   19.9348 N.ar    1  UNL1       -0.2421
      7 C          -5.4278  -20.0822   20.0903 C.ar    1  UNL1        0.1032
      8 C          -5.6678  -19.0606   21.1621 C.ar    1  UNL1        0.0702
      9 C          -6.8903  -18.2842   21.5529 C.ar    1  UNL1        0.0925
     10 O          -7.8623  -15.1727   22.7579 O.2     1  UNL1       -0.2646
     11 C          -7.4508  -16.4545   23.4193 C.2     1  UNL1        0.3039
     12 N          -7.9617  -16.7892   24.7893 N.am    1  UNL1       -0.1871
     13 H          -7.6917  -17.6305   25.2234 H       1  UNL1        0.1829
     14 O          -8.8840  -15.8420   25.4979 O.3     1  UNL1       -0.2634
     15 C          -8.4833  -15.2510   26.8171 C.3     1  UNL1        0.2026
     16 C          -7.0330  -15.1614   27.1892 C.3     1  UNL1        0.1719
     17 O          -6.0421  -14.5973   26.2147 O.3     1  UNL1       -0.3794
     18 H          -5.9762  -15.1835   25.4447 H       1  UNL1        0.2105
     19 N          -8.2380  -18.3744   20.9005 N.pl3   1  UNL1       -0.3081
     20 H          -8.3065  -18.4576   19.9219 H       1  UNL1        0.1524
     21 C          -9.4811  -18.3377   21.7389 C.ar    1  UNL1        0.0762
     22 C         -10.5212  -17.2852   21.4925 C.ar    1  UNL1        0.0173
     23 C         -11.7644  -17.2484   22.3309 C.ar    1  UNL1        0.0072
     24 C         -11.9677  -18.2642   23.4158 C.ar    1  UNL1        0.0324
     25 I         -13.2109  -18.2275   24.2542 I       1  UNL1       -0.0424
     26 C         -10.9277  -19.3167   23.6621 C.ar    1  UNL1        0.0367
     27 C          -9.6845  -19.3534   22.8237 C.ar    1  UNL1        0.1538
     28 F          -8.6445  -20.4060   23.0702 F       1  UNL1       -0.2028
@<TRIPOS>BOND
     1    10    11    2
     2    11    12   am
     3    12    14    1
     4    14    15    1
     5    15    16    1
     6    16    17    1
     7    11     1    1
     8     1     2   ar
     9     2     3   ar
    10     3     4   ar
    11     4     5   ar
    12     5     6   ar
    13     6     7   ar
    14     7     8   ar
    15     8     9   ar
    16     9    19    1
    17    19    21    1
    18    21    22   ar
    19    22    23   ar
    20    23    24   ar
    21    24    25    1
    22    24    26   ar
    23    26    27   ar
    24    27    28    1
    25     9     1   ar
    26    27    21   ar
    27     8     3   ar
    28    12    13    1
    29    17    18    1
    30    19    20    1
@<TRIPOS>MOLECULE
*****
 28 30 0 0 0
SMALL
GASTEIGER

@<TRIPOS>ATOM
      1 C          -5.0776  -17.2530   23.0230 C.ar    1  UNL1        0.2136
      2 O          -3.8400  -17.6486   22.2734 O.2     1  UNL1       -0.4474
      3 C          -4.1667  -18.8539   21.4424 C.ar    1  UNL1        0.1498
      4 C          -3.3394  -19.6784   20.5013 C.ar    1  UNL1        0.0582
      5 C          -3.9516  -20.8523   19.7963 C.ar    1  UNL1        0.1020
      6 N          -5.3911  -21.2016   20.0324 N.ar    1  UNL1       -0.2421
      7 C          -6.2184  -20.3771   20.9734 C.ar    1  UNL1        0.1032
      8 C          -5.6062  -19.2032   21.6785 C.ar    1  UNL1        0.0702
      9 C          -6.1691  -18.2138   22.6553 C.ar    1  UNL1        0.0925
     10 O          -5.1024  -14.6924   23.4623 O.2     1  UNL1       -0.2646
     11 C          -5.2017  -16.0991   23.9734 C.2     1  UNL1        0.3039
     12 N          -5.4253  -16.3520   25.4349 N.am    1  UNL1       -0.1871
     13 H          -5.4905  -17.2753   25.7704 H       1  UNL1        0.1829
     14 O          -5.5495  -15.1982   26.3853 O.3     1  UNL1       -0.2634
     15 C          -6.7382  -15.1004   27.2949 C.3     1  UNL1        0.2026
     16 C          -8.1142  -15.3712   26.7626 C.3     1  UNL1        0.1719
     17 O          -8.3365  -16.4971   25.7967 O.3     1  UNL1       -0.3794
     18 H          -7.8756  -16.3053   24.9650 H       1  UNL1        0.2105
     19 N          -7.5766  -18.1895   23.1734 N.pl3   1  UNL1       -0.3081
     20 H          -7.7698  -18.4984   24.0881 H       1  UNL1        0.1524
     21 C          -8.6897  -17.6948   22.2982 C.ar    1  UNL1        0.0762
     22 C          -9.5272  -18.6709   21.5262 C.ar    1  UNL1        0.0173
     23 C         -10.6403  -18.1761   20.6509 C.ar    1  UNL1        0.0072
     24 C         -10.9159  -16.7053   20.5475 C.ar    1  UNL1        0.0324
     25 I         -12.0291  -16.2106   19.6722 I       1  UNL1       -0.0424
     26 C         -10.0785  -15.7292   21.3195 C.ar    1  UNL1        0.0367
     27 C          -8.9653  -16.2240   22.1948 C.ar    1  UNL1        0.1538
     28 F          -8.1279  -15.2478   22.9667 F       1  UNL1       -0.2028
@<TRIPOS>BOND
     1    10    11    2
     2    11    12   am
     3    12    14    1
     4    14    15    1
     5    15    16    1
     6    16    17    1
     7    11     1    1
     8     1     2   ar
     9     2     3   ar
    10     3     4   ar
    11     4     5   ar
    12     5     6   ar
    13     6     7   ar
    14     7     8   ar
    15     8     9   ar
    16     9    19    1
    17    19    21    1
    18    21    22   ar
    19    22    23   ar
    20    23    24   ar
    21    24    25    1
    22    24    26   ar
    23    26    27   ar
    24    27    28    1
    25     9     1   ar
    26    27    21   ar
    27     8     3   ar
    28    12    13    1
    29    17    18    1
    30    19    20    1
@<TRIPOS>MOLECULE
*****
 28 30 0 0 0
SMALL
GASTEIGER

@<TRIPOS>ATOM
      1 C          -5.0633  -17.7238   22.6578 C.ar    1  UNL1        0.2136
      2 O          -4.3395  -17.1950   23.8605 O.2     1  UNL1       -0.4474
      3 C          -5.3318  -16.4612   24.7131 C.ar    1  UNL1        0.1498
      4 C          -5.1906  -15.7342   26.0175 C.ar    1  UNL1        0.0582
      5 C          -6.3865  -15.0825   26.6461 C.ar    1  UNL1        0.1020
      6 N          -7.7235  -15.1579   25.9704 N.ar    1  UNL1       -0.2421
      7 C          -7.8647  -15.8849   24.6660 C.ar    1  UNL1        0.1032
      8 C          -6.6689  -16.5366   24.0374 C.ar    1  UNL1        0.0702
      9 C          -6.5029  -17.3169   22.7671 C.ar    1  UNL1        0.0925
     10 O          -4.9748  -19.8912   21.2278 O.2     1  UNL1       -0.2646
     11 C          -4.4544  -18.5198   21.5417 C.2     1  UNL1        0.3039
     12 N          -3.3250  -17.9445   20.7395 N.am    1  UNL1       -0.1871
     13 H          -2.9835  -17.0444   20.9455 H       1  UNL1        0.1829
     14 O          -2.7161  -18.7405   19.6234 O.3     1  UNL1       -0.2634
     15 C          -1.4119  -18.3101   19.0200 C.3     1  UNL1        0.2026
     16 C          -0.3496  -17.7010   19.8862 C.3     1  UNL1        0.1719
     17 O          -0.7042  -16.6102   20.8529 O.3     1  UNL1       -0.3794
     18 H          -0.9853  -15.8221   20.3622 H       1  UNL1        0.2105
     19 N          -7.5863  -17.6346   21.7796 N.pl3   1  UNL1       -0.3081
     20 H          -7.3596  -17.7970   20.8354 H       1  UNL1        0.1524
     21 C          -9.0152  -17.7047   22.2305 C.ar    1  UNL1        0.0762
     22 C          -9.5161  -18.9227   22.9486 C.ar    1  UNL1        0.0173
     23 C         -10.9450  -18.9929   23.3996 C.ar    1  UNL1        0.0072
     24 C         -11.8730  -17.8451   23.1324 C.ar    1  UNL1        0.0324
     25 I         -13.3019  -17.9153   23.5834 I       1  UNL1       -0.0424
     26 C         -11.3721  -16.6272   22.4143 C.ar    1  UNL1        0.0367
     27 C          -9.9432  -16.5569   21.9633 C.ar    1  UNL1        0.1538
     28 F          -9.4424  -15.3390   21.2452 F       1  UNL1       -0.2028
@<TRIPOS>BOND
     1    10    11    2
     2    11    12   am
     3    12    14    1
     4    14    15    1
     5    15    16    1
     6    16    17    1
     7    11     1    1
     8     1     2   ar
     9     2     3   ar
    10     3     4   ar
    11     4     5   ar
    12     5     6   ar
    13     6     7   ar
    14     7     8   ar
    15     8     9   ar
    16     9    19    1
    17    19    21    1
    18    21    22   ar
    19    22    23   ar
    20    23    24   ar
    21    24    25    1
    22    24    26   ar
    23    26    27   ar
    24    27    28    1
    25     9     1   ar
    26    27    21   ar
    27     8     3   ar
    28    12    13    1
    29    17    18    1
    30    19    20    1
@<TRIPOS>MOLECULE
*****
 28 30 0 0 0
SMALL
GASTEIGER

@<TRIPOS>ATOM
      1 C          -4.3501  -16.8213   23.0669 C.ar    1  UNL1        0.2136
      2 O          -3.1714  -16.0141   22.6097 O.2     1  UNL1       -0.4474
      3 C          -2.3697  -16.8588   21.6644 C.ar    1  UNL1        0.1498
      4 C          -1.1058  -16.5894   20.9028 C.ar    1  UNL1        0.0582
      5 C          -0.5252  -17.6492   20.0143 C.ar    1  UNL1        0.1020
      6 N          -1.2084  -18.9785   19.8872 N.ar    1  UNL1       -0.2421
      7 C          -2.4723  -19.2480   20.6488 C.ar    1  UNL1        0.1032
      8 C          -3.0529  -18.1881   21.5373 C.ar    1  UNL1        0.0702
      9 C          -4.2769  -18.1649   22.4041 C.ar    1  UNL1        0.0925
     10 O          -5.0435  -15.9218   25.4036 O.2     1  UNL1       -0.2646
     11 C          -5.4151  -16.3650   24.0196 C.2     1  UNL1        0.3039
     12 N          -6.8517  -16.3518   23.5883 N.am    1  UNL1       -0.1871
     13 H          -7.0956  -16.6426   22.6799 H       1  UNL1        0.1829
     14 O          -7.9166  -15.8954   24.5410 O.3     1  UNL1       -0.2634
     15 C          -9.3584  -15.9339   24.1287 C.3     1  UNL1        0.2026
     16 C          -9.7268  -16.3069   22.7233 C.3     1  UNL1        0.1719
     17 O          -9.1596  -15.5347   21.5692 O.3     1  UNL1       -0.3794
     18 H          -9.4987  -14.6261   21.5902 H       1  UNL1        0.2105
     19 N          -5.2558  -19.2882   22.5777 N.pl3   1  UNL1       -0.3081
     20 H          -5.1037  -19.9710   23.2704 H       1  UNL1        0.1524
     21 C          -6.4664  -19.3710   21.6960 C.ar    1  UNL1        0.0762
     22 C          -6.3077  -19.3964   20.2046 C.ar    1  UNL1        0.0173
     23 C          -7.5183  -19.4793   19.3228 C.ar    1  UNL1        0.0072
     24 C          -8.8876  -19.5367   19.9324 C.ar    1  UNL1        0.0324
     25 I         -10.0982  -19.6196   19.0506 I       1  UNL1       -0.0424
     26 C          -9.0463  -19.5113   21.4237 C.ar    1  UNL1        0.0367
     27 C          -7.8357  -19.4285   22.3055 C.ar    1  UNL1        0.1538
     28 F          -7.9945  -19.4030   23.7969 F       1  UNL1       -0.2028
@<TRIPOS>BOND
     1    10    11    2
     2    11    12   am
     3    12    14    1
     4    14    15    1
     5    15    16    1
     6    16    17    1
     7    11     1    1
     8     1     2   ar
     9     2     3   ar
    10     3     4   ar
    11     4     5   ar
    12     5     6   ar
    13     6     7   ar
    14     7     8   ar
    15     8     9   ar
    16     9    19    1
    17    19    21    1
    18    21    22   ar
    19    22    23   ar
    20    23    24   ar
    21    24    25    1
    22    24    26   ar
    23    26    27   ar
    24    27    28    1
    25     9     1   ar
    26    27    21   ar
    27     8     3   ar
    28    12    13    1
    29    17    18    1
    30    19    20    1
