@<TRIPOS>MOLECULE
*****
 18 19 0 0 0
SMALL
GASTEIGER

@<TRIPOS>ATOM
      1 O          -7.7281  -17.0228   21.5945 O.2     1  UNL1       -0.2681
      2 C          -7.3752  -18.4779   21.5041 C.2     1  UNL1        0.2683
      3 N          -8.3780  -19.5191   21.9042 N.am    1  UNL1       -0.2784
      4 H          -8.1463  -20.4741   21.8448 H       1  UNL1        0.1552
      5 C          -9.7338  -19.1053   22.3948 C.ar    1  UNL1        0.0613
      6 C         -10.0173  -19.0612   23.8671 C.ar    1  UNL1        0.0164
      7 C         -11.3731  -18.6474   24.3576 C.ar    1  UNL1        0.0127
      8 C         -12.4453  -18.2778   23.3759 C.ar    1  UNL1        0.0586
      9 CL        -13.8011  -17.8640   23.8665 Cl      1  UNL1       -0.0822
     10 C         -12.1617  -18.3219   21.9037 C.ar    1  UNL1        0.0240
     11 C         -10.8060  -18.7357   21.4131 C.ar    1  UNL1        0.0719
     12 CL        -10.5224  -18.7798   19.9408 Cl      1  UNL1       -0.0809
     13 C          -6.0194  -18.8917   21.0134 C.ar    1  UNL1        0.1498
     14 C          -5.0101  -19.6919   21.7822 C.ar    1  UNL1        0.1468
     15 N          -3.8017  -19.8727   20.9118 N.ar    1  UNL1       -0.1272
     16 N          -4.0644  -19.1842   19.6052 N.ar    1  UNL1       -0.0671
     17 N          -5.4350  -18.5779   19.6681 N.ar    1  UNL1       -0.2520
     18 H          -5.8739  -18.0642   18.9520 H       1  UNL1        0.1908
@<TRIPOS>BOND
     1     1     2    2
     2     2     3   am
     3     3     5    1
     4     5     6   ar
     5     6     7   ar
     6     7     8   ar
     7     8     9    1
     8     8    10   ar
     9    10    11   ar
    10    11    12    1
    11     2    13    1
    12    13    14   ar
    13    14    15   ar
    14    15    16   ar
    15    16    17   ar
    16    11     5   ar
    17    17    13   ar
    18     3     4    1
    19    17    18    1
@<TRIPOS>MOLECULE
*****
 18 19 0 0 0
SMALL
GASTEIGER

@<TRIPOS>ATOM
      1 O          -6.8961  -20.1937   22.2731 O.2     1  UNL1       -0.2681
      2 C          -6.4653  -19.0698   21.3779 C.2     1  UNL1        0.2683
      3 N          -7.4267  -17.9690   21.0404 N.am    1  UNL1       -0.2784
      4 H          -7.1439  -17.2314   20.4529 H       1  UNL1        0.1552
      5 C          -8.8190  -17.9921   21.5980 C.ar    1  UNL1        0.0613
      6 C          -9.8967  -18.7609   20.8928 C.ar    1  UNL1        0.0164
      7 C         -11.2890  -18.7839   21.4504 C.ar    1  UNL1        0.0127
      8 C         -11.6036  -18.0382   22.7133 C.ar    1  UNL1        0.0586
      9 CL        -12.9959  -18.0613   23.2709 Cl      1  UNL1       -0.0822
     10 C         -10.5259  -17.2694   23.4185 C.ar    1  UNL1        0.0240
     11 C          -9.1336  -17.2463   22.8609 C.ar    1  UNL1        0.0719
     12 CL         -8.0558  -16.4775   23.5662 Cl      1  UNL1       -0.0809
     13 C          -5.0729  -19.0467   20.8203 C.ar    1  UNL1        0.1498
     14 C          -3.8329  -19.5100   21.5258 C.ar    1  UNL1        0.1468
     15 N          -2.6697  -19.3060   20.6008 N.ar    1  UNL1       -0.1272
     16 N          -3.1909  -18.7165   19.3237 N.ar    1  UNL1       -0.0671
     17 N          -4.6762  -18.5563   19.4594 N.ar    1  UNL1       -0.2520
     18 H          -5.2839  -18.1931   18.7753 H       1  UNL1        0.1908
@<TRIPOS>BOND
     1     1     2    2
     2     2     3   am
     3     3     5    1
     4     5     6   ar
     5     6     7   ar
     6     7     8   ar
     7     8     9    1
     8     8    10   ar
     9    10    11   ar
    10    11    12    1
    11     2    13    1
    12    13    14   ar
    13    14    15   ar
    14    15    16   ar
    15    16    17   ar
    16    11     5   ar
    17    17    13   ar
    18     3     4    1
    19    17    18    1
@<TRIPOS>MOLECULE
*****
 18 19 0 0 0
SMALL
GASTEIGER

@<TRIPOS>ATOM
      1 O          -6.5672  -20.4354   22.2754 O.2     1  UNL1       -0.2681
      2 C          -6.0212  -19.3025   21.4578 C.2     1  UNL1        0.2683
      3 N          -6.9109  -18.1573   21.0746 N.am    1  UNL1       -0.2784
      4 H          -6.5526  -17.4137   20.5380 H       1  UNL1        0.1552
      5 C          -8.3466  -18.1448   21.5091 C.ar    1  UNL1        0.0613
      6 C          -8.7394  -17.4529   22.7807 C.ar    1  UNL1        0.0164
      7 C         -10.1750  -17.4405   23.2151 C.ar    1  UNL1        0.0127
      8 C         -11.2178  -18.1201   22.3780 C.ar    1  UNL1        0.0586
      9 CL        -12.6535  -18.1077   22.8125 Cl      1  UNL1       -0.0822
     10 C         -10.8250  -18.8120   21.1064 C.ar    1  UNL1        0.0240
     11 C          -9.3894  -18.8244   20.6720 C.ar    1  UNL1        0.0719
     12 CL         -8.9965  -19.5163   19.4004 Cl      1  UNL1       -0.0809
     13 C          -4.5855  -19.3149   21.0233 C.ar    1  UNL1        0.1498
     14 C          -4.0760  -18.9765   19.6536 C.ar    1  UNL1        0.1468
     15 N          -2.5829  -19.1204   19.6660 N.ar    1  UNL1       -0.1272
     16 N          -2.1698  -19.5477   21.0433 N.ar    1  UNL1       -0.0671
     17 N          -3.4075  -19.6679   21.8821 N.ar    1  UNL1       -0.2520
     18 H          -3.4408  -19.9321   22.8299 H       1  UNL1        0.1908
@<TRIPOS>BOND
     1     1     2    2
     2     2     3   am
     3     3     5    1
     4     5     6   ar
     5     6     7   ar
     6     7     8   ar
     7     8     9    1
     8     8    10   ar
     9    10    11   ar
    10    11    12    1
    11     2    13    1
    12    13    14   ar
    13    14    15   ar
    14    15    16   ar
    15    16    17   ar
    16    11     5   ar
    17    17    13   ar
    18     3     4    1
    19    17    18    1
@<TRIPOS>MOLECULE
*****
 18 19 0 0 0
SMALL
GASTEIGER

@<TRIPOS>ATOM
      1 O          -6.7578  -17.4689   22.5055 O.2     1  UNL1       -0.2681
      2 C          -6.6168  -18.8440   21.9232 C.2     1  UNL1        0.2683
      3 N          -7.8322  -19.6972   21.7118 N.am    1  UNL1       -0.2784
      4 H          -7.7396  -20.5998   21.3296 H       1  UNL1        0.1552
      5 C          -9.1887  -19.1754   22.0829 C.ar    1  UNL1        0.0613
      6 C          -9.8498  -18.1326   21.2313 C.ar    1  UNL1        0.0164
      7 C         -11.2063  -17.6108   21.6024 C.ar    1  UNL1        0.0127
      8 C         -11.9016  -18.1318   22.8251 C.ar    1  UNL1        0.0586
      9 CL        -13.2581  -17.6100   23.1962 Cl      1  UNL1       -0.0822
     10 C         -11.2404  -19.1746   23.6768 C.ar    1  UNL1        0.0240
     11 C          -9.8840  -19.6964   23.3057 C.ar    1  UNL1        0.0719
     12 CL         -9.2228  -20.7393   24.1573 Cl      1  UNL1       -0.0809
     13 C          -5.2603  -19.3658   21.5521 C.ar    1  UNL1        0.1498
     14 C          -4.0365  -19.3353   22.4190 C.ar    1  UNL1        0.1468
     15 N          -2.9093  -19.9604   21.6517 N.ar    1  UNL1       -0.1272
     16 N          -3.4365  -20.3772   20.3106 N.ar    1  UNL1       -0.0671
     17 N          -4.8894  -20.0098   20.2491 N.ar    1  UNL1       -0.2520
     18 H          -5.4936  -20.1641   19.4873 H       1  UNL1        0.1908
@<TRIPOS>BOND
     1     1     2    2
     2     2     3   am
     3     3     5    1
     4     5     6   ar
     5     6     7   ar
     6     7     8   ar
     7     8     9    1
     8     8    10   ar
     9    10    11   ar
    10    11    12    1
    11     2    13    1
    12    13    14   ar
    13    14    15   ar
    14    15    16   ar
    15    16    17   ar
    16    11     5   ar
    17    17    13   ar
    18     3     4    1
    19    17    18    1
@<TRIPOS>MOLECULE
*****
 18 19 0 0 0
SMALL
GASTEIGER

@<TRIPOS>ATOM
      1 O          -7.2530  -17.6587   20.9150 O.2     1  UNL1       -0.2681
      2 C          -7.2648  -18.7517   21.9422 C.2     1  UNL1        0.2683
      3 N          -6.0007  -19.4922   22.2639 N.am    1  UNL1       -0.2784
      4 H          -6.0084  -20.2096   22.9382 H       1  UNL1        0.1552
      5 C          -4.7247  -19.1398   21.5583 C.ar    1  UNL1        0.0613
      6 C          -4.4879  -19.6143   20.1552 C.ar    1  UNL1        0.0164
      7 C          -3.2120  -19.2619   19.4497 C.ar    1  UNL1        0.0127
      8 C          -2.1729  -18.4350   20.1473 C.ar    1  UNL1        0.0586
      9 CL         -0.8969  -18.0826   19.4417 Cl      1  UNL1       -0.0822
     10 C          -2.4097  -17.9606   21.5504 C.ar    1  UNL1        0.0240
     11 C          -3.6856  -18.3130   22.2559 C.ar    1  UNL1        0.0719
     12 CL         -3.9225  -17.8386   23.6591 Cl      1  UNL1       -0.0809
     13 C          -8.5408  -19.1041   22.6478 C.ar    1  UNL1        0.1498
     14 C          -9.7785  -18.2587   22.7060 C.ar    1  UNL1        0.1468
     15 N         -10.8058  -18.9958   23.5132 N.ar    1  UNL1       -0.1272
     16 N         -10.2028  -20.2967   23.9539 N.ar    1  UNL1       -0.0671
     17 N          -8.8030  -20.3636   23.4191 N.ar    1  UNL1       -0.2520
     18 H          -8.1678  -21.1041   23.5511 H       1  UNL1        0.1908
@<TRIPOS>BOND
     1     1     2    2
     2     2     3   am
     3     3     5    1
     4     5     6   ar
     5     6     7   ar
     6     7     8   ar
     7     8     9    1
     8     8    10   ar
     9    10    11   ar
    10    11    12    1
    11     2    13    1
    12    13    14   ar
    13    14    15   ar
    14    15    16   ar
    15    16    17   ar
    16    11     5   ar
    17    17    13   ar
    18     3     4    1
    19    17    18    1
@<TRIPOS>MOLECULE
*****
 18 19 0 0 0
SMALL
GASTEIGER

@<TRIPOS>ATOM
      1 O          -7.6229  -17.2119   21.4892 O.2     1  UNL1       -0.2681
      2 C          -7.9897  -18.4560   22.2427 C.2     1  UNL1        0.2683
      3 N          -6.9722  -19.5401   22.4410 N.am    1  UNL1       -0.2784
      4 H          -7.2129  -20.3566   22.9356 H       1  UNL1        0.1552
      5 C          -5.5879  -19.3802   21.8858 C.ar    1  UNL1        0.0613
      6 C          -4.6119  -18.4605   22.5579 C.ar    1  UNL1        0.0164
      7 C          -3.2276  -18.3006   22.0027 C.ar    1  UNL1        0.0127
      8 C          -2.8194  -19.0603   20.7754 C.ar    1  UNL1        0.0586
      9 CL         -1.4351  -18.9004   20.2202 Cl      1  UNL1       -0.0822
     10 C          -3.7954  -19.9799   20.1034 C.ar    1  UNL1        0.0240
     11 C          -5.1796  -20.1398   20.6586 C.ar    1  UNL1        0.0719
     12 CL         -6.1557  -21.0595   19.9865 Cl      1  UNL1       -0.0809
     13 C          -9.3740  -18.6159   22.7979 C.ar    1  UNL1        0.1498
     14 C          -9.7263  -18.8265   24.2407 C.ar    1  UNL1        0.1468
     15 N         -11.2191  -18.9341   24.3423 N.ar    1  UNL1       -0.1272
     16 N         -11.7892  -18.7900   22.9623 N.ar    1  UNL1       -0.0671
     17 N         -10.6488  -18.5934   22.0079 N.ar    1  UNL1       -0.2520
     18 H         -10.7240  -18.4710   21.0339 H       1  UNL1        0.1908
@<TRIPOS>BOND
     1     1     2    2
     2     2     3   am
     3     3     5    1
     4     5     6   ar
     5     6     7   ar
     6     7     8   ar
     7     8     9    1
     8     8    10   ar
     9    10    11   ar
    10    11    12    1
    11     2    13    1
    12    13    14   ar
    13    14    15   ar
    14    15    16   ar
    15    16    17   ar
    16    11     5   ar
    17    17    13   ar
    18     3     4    1
    19    17    18    1
@<TRIPOS>MOLECULE
*****
 18 19 0 0 0
SMALL
GASTEIGER

@<TRIPOS>ATOM
      1 O         -14.8142   -7.3828   17.0281 O.2     1  UNL1       -0.2681
      2 C         -14.4644   -8.2592   18.1941 C.2     1  UNL1        0.2683
      3 N         -13.1970   -8.0187   18.9594 N.am    1  UNL1       -0.2784
      4 H         -12.9674   -8.5939   19.7247 H       1  UNL1        0.1552
      5 C         -12.2793   -6.9018   18.5588 C.ar    1  UNL1        0.0613
      6 C         -11.2069   -7.1419   17.5380 C.ar    1  UNL1        0.0164
      7 C         -10.2892   -6.0250   17.1374 C.ar    1  UNL1        0.0127
      8 C         -10.4441   -4.6680   17.7576 C.ar    1  UNL1        0.0586
      9 CL         -9.5264   -3.5511   17.3570 Cl      1  UNL1       -0.0822
     10 C         -11.5166   -4.4279   18.7784 C.ar    1  UNL1        0.0240
     11 C         -12.4342   -5.5448   19.1790 C.ar    1  UNL1        0.0719
     12 CL        -13.5067   -5.3048   20.1999 Cl      1  UNL1       -0.0809
     13 C         -15.3821   -9.3761   18.5947 C.ar    1  UNL1        0.1498
     14 C         -16.5187   -9.2769   19.5685 C.ar    1  UNL1        0.1468
     15 N         -17.1634  -10.6278   19.6676 N.ar    1  UNL1       -0.1272
     16 N         -16.4251  -11.5617   18.7550 N.ar    1  UNL1       -0.0671
     17 N         -15.3242  -10.7881   18.0920 N.ar    1  UNL1       -0.2520
     18 H         -14.6773  -11.1446   17.4411 H       1  UNL1        0.1908
@<TRIPOS>BOND
     1     1     2    2
     2     2     3   am
     3     3     5    1
     4     5     6   ar
     5     6     7   ar
     6     7     8   ar
     7     8     9    1
     8     8    10   ar
     9    10    11   ar
    10    11    12    1
    11     2    13    1
    12    13    14   ar
    13    14    15   ar
    14    15    16   ar
    15    16    17   ar
    16    11     5   ar
    17    17    13   ar
    18     3     4    1
    19    17    18    1
@<TRIPOS>MOLECULE
*****
 18 19 0 0 0
SMALL
GASTEIGER

@<TRIPOS>ATOM
      1 O          -4.9756  -14.7517   22.9376 O.2     1  UNL1       -0.2681
      2 C          -5.2100  -15.8488   23.9332 C.2     1  UNL1        0.2683
      3 N          -4.4887  -17.1564   23.7921 N.am    1  UNL1       -0.2784
      4 H          -4.6426  -17.8765   24.4456 H       1  UNL1        0.1552
      5 C          -3.5329  -17.3669   22.6554 C.ar    1  UNL1        0.0613
      6 C          -2.5164  -16.3143   22.3255 C.ar    1  UNL1        0.0164
      7 C          -1.5606  -16.5248   21.1888 C.ar    1  UNL1        0.0127
      8 C          -1.6214  -17.7879   20.3819 C.ar    1  UNL1        0.0586
      9 CL         -0.6655  -17.9983   19.2452 Cl      1  UNL1       -0.0822
     10 C          -2.6379  -18.8404   20.7118 C.ar    1  UNL1        0.0240
     11 C          -3.5936  -18.6299   21.8485 C.ar    1  UNL1        0.0719
     12 CL         -4.6102  -19.6825   22.1784 Cl      1  UNL1       -0.0809
     13 C          -6.1659  -15.6384   25.0700 C.ar    1  UNL1        0.1498
     14 C          -5.7941  -15.4478   26.5106 C.ar    1  UNL1        0.1468
     15 N          -7.0597  -15.2732   27.2968 N.ar    1  UNL1       -0.1272
     16 N          -8.2136  -15.3558   26.3418 N.ar    1  UNL1       -0.0671
     17 N          -7.6611  -15.5815   24.9657 N.ar    1  UNL1       -0.2520
     18 H          -8.1875  -15.6758   24.1391 H       1  UNL1        0.1908
@<TRIPOS>BOND
     1     1     2    2
     2     2     3   am
     3     3     5    1
     4     5     6   ar
     5     6     7   ar
     6     7     8   ar
     7     8     9    1
     8     8    10   ar
     9    10    11   ar
    10    11    12    1
    11     2    13    1
    12    13    14   ar
    13    14    15   ar
    14    15    16   ar
    15    16    17   ar
    16    11     5   ar
    17    17    13   ar
    18     3     4    1
    19    17    18    1
@<TRIPOS>MOLECULE
*****
 18 19 0 0 0
SMALL
GASTEIGER

@<TRIPOS>ATOM
      1 O         -15.2459   -6.4430   17.5724 O.2     1  UNL1       -0.2681
      2 C         -14.8317   -7.3127   18.7222 C.2     1  UNL1        0.2683
      3 N         -13.8136   -6.8193   19.7071 N.am    1  UNL1       -0.2784
      4 H         -13.5417   -7.3901   20.4617 H       1  UNL1        0.1552
      5 C         -13.2098   -5.4560   19.5422 C.ar    1  UNL1        0.0613
      6 C         -13.9514   -4.2441   20.0229 C.ar    1  UNL1        0.0164
      7 C         -13.3476   -2.8810   19.8580 C.ar    1  UNL1        0.0127
      8 C         -12.0021   -2.7298   19.2124 C.ar    1  UNL1        0.0586
      9 CL        -11.3983   -1.3666   19.0475 Cl      1  UNL1       -0.0822
     10 C         -11.2605   -3.9417   18.7317 C.ar    1  UNL1        0.0240
     11 C         -11.8643   -5.3048   18.8966 C.ar    1  UNL1        0.0719
     12 CL        -11.1227   -6.5169   18.4159 Cl      1  UNL1       -0.0809
     13 C         -15.4355   -8.6759   18.8871 C.ar    1  UNL1        0.1498
     14 C         -15.3508   -9.8028   17.9007 C.ar    1  UNL1        0.1468
     15 N         -16.0930  -10.9750   18.4713 N.ar    1  UNL1       -0.1272
     16 N         -16.6362  -10.5724   19.8103 N.ar    1  UNL1       -0.0671
     17 N         -16.2299   -9.1515   20.0672 N.ar    1  UNL1       -0.2520
     18 H         -16.4465   -8.6238   20.8696 H       1  UNL1        0.1908
@<TRIPOS>BOND
     1     1     2    2
     2     2     3   am
     3     3     5    1
     4     5     6   ar
     5     6     7   ar
     6     7     8   ar
     7     8     9    1
     8     8    10   ar
     9    10    11   ar
    10    11    12    1
    11     2    13    1
    12    13    14   ar
    13    14    15   ar
    14    15    16   ar
    15    16    17   ar
    16    11     5   ar
    17    17    13   ar
    18     3     4    1
    19    17    18    1
