@<TRIPOS>MOLECULE
*****
 37 42 0 0 0
SMALL
GASTEIGER

@<TRIPOS>ATOM
      1 C          -1.3076    3.2520   21.9862 C.ar    1  UNL1        0.1515
      2 N          -2.0073    3.8074   23.1912 N.ar    1  UNL1       -0.2248
      3 C          -1.3863    3.1946   24.4114 C.ar    1  UNL1        0.1173
      4 C          -1.6675    3.3665   25.8747 C.ar    1  UNL1        0.0238
      5 C          -0.8651    2.6043   26.8871 C.ar    1  UNL1        0.0208
      6 C           0.2185    1.6702   26.4363 C.ar    1  UNL1        0.0845
      7 N           0.4997    1.4983   24.9730 N.ar    1  UNL1       -0.2263
      8 C          -0.3027    2.2605   23.9605 C.ar    1  UNL1        0.1665
      9 N          -0.2541    2.2960   22.4617 N.ar    1  UNL1       -0.2754
     10 N          -4.0654    2.8158   20.8887 N.pl3   1  UNL1       -0.3425
     11 C          -2.9874    3.3748   20.0080 C.ar    1  UNL1        0.1282
     12 N          -3.2883    3.7156   18.5786 N.ar    1  UNL1       -0.2295
     13 C          -2.2104    4.2745   17.6979 C.ar    1  UNL1        0.1003
     14 C          -0.8316    4.4926   18.2467 C.ar    1  UNL1        0.0209
     15 C          -0.5306    4.1518   19.6761 C.ar    1  UNL1        0.0074
     16 C          -1.6085    3.5929   20.5568 C.ar    1  UNL1        0.0657
     17 H          -4.9704    2.6727   20.5286 H       1  UNL1        0.1437
     18 H          -3.8679    2.5921   21.8269 H       1  UNL1        0.1437
     19 C           1.0209    0.9079   27.4488 C.ar    1  UNL1        0.0369
     20 C           2.4462    0.5436   27.1562 C.ar    1  UNL1        0.0046
     21 C           3.2487   -0.2186   28.1687 C.ar    1  UNL1        0.0207
     22 C           2.6257   -0.6165   29.4739 C.ar    1  UNL1        0.0989
     23 N           1.2003   -0.2522   29.7666 N.ar    1  UNL1       -0.2423
     24 C           0.3979    0.5100   28.7540 C.ar    1  UNL1        0.1003
     25 C           0.6835    1.5129   21.5912 C.ar    1  UNL1        0.0667
     26 C           0.1731    0.3463   20.7985 C.ar    1  UNL1        0.0173
     27 C           1.1107   -0.4368   19.9280 C.ar    1  UNL1       -0.0015
     28 C           2.5587   -0.0532   19.8503 C.ar    1  UNL1       -0.0097
     29 C           3.0692    1.1134   20.6430 C.ar    1  UNL1       -0.0015
     30 C           2.1316    1.8965   21.5134 C.ar    1  UNL1        0.0173
     31 C           3.4963   -0.8363   18.9798 C.3     1  UNL1        0.0581
     32 N           3.8809   -1.6835   20.1564 N.3     1  UNL1       -0.3200
     33 C           3.1116    0.0109   17.8032 C.3     1  UNL1        0.0185
     34 C           4.0492   -0.7723   16.9328 C.3     1  UNL1        0.0033
     35 C           4.4338   -1.6195   18.1094 C.3     1  UNL1        0.0185
     36 H           3.3670   -1.3735   20.9811 H       1  UNL1        0.1191
     37 H           4.8827   -1.5944   20.3266 H       1  UNL1        0.1191
@<TRIPOS>BOND
     1    10    11    1
     2    11    12   ar
     3    12    13   ar
     4    13    14   ar
     5    14    15   ar
     6    15    16   ar
     7    16     1    1
     8     1     2   ar
     9     2     3   ar
    10     3     4   ar
    11     4     5   ar
    12     5     6   ar
    13     6    19    1
    14    19    20   ar
    15    20    21   ar
    16    21    22   ar
    17    22    23   ar
    18    23    24   ar
    19     6     7   ar
    20     7     8   ar
    21     8     9   ar
    22     9    25    1
    23    25    26   ar
    24    26    27   ar
    25    27    28   ar
    26    28    31    1
    27    31    32    1
    28    31    33    1
    29    33    34    1
    30    34    35    1
    31    28    29   ar
    32    29    30   ar
    33    16    11   ar
    34     9     1   ar
    35    30    25   ar
    36     8     3   ar
    37    35    31    1
    38    24    19   ar
    39    10    17    1
    40    10    18    1
    41    32    36    1
    42    32    37    1
@<TRIPOS>MOLECULE
*****
 37 42 0 0 0
SMALL
GASTEIGER

@<TRIPOS>ATOM
      1 C          -1.2385    3.5694   21.0162 C.ar    1  UNL1        0.1515
      2 N          -2.0525    4.2523   22.0750 N.ar    1  UNL1       -0.2248
      3 C          -1.6756    3.6628   23.4018 C.ar    1  UNL1        0.1173
      4 C          -2.1504    3.9443   24.7965 C.ar    1  UNL1        0.0238
      5 C          -1.5784    3.1785   25.9524 C.ar    1  UNL1        0.0208
      6 C          -0.5314    2.1312   25.7136 C.ar    1  UNL1        0.0845
      7 N          -0.0566    1.8496   24.3189 N.ar    1  UNL1       -0.2263
      8 C          -0.6287    2.6154   23.1630 C.ar    1  UNL1        0.1665
      9 N          -0.3586    2.5577   21.6887 N.ar    1  UNL1       -0.2754
     10 N          -3.8795    3.5917   19.5933 N.pl3   1  UNL1       -0.3425
     11 C          -2.6151    3.8601   18.8321 C.ar    1  UNL1        0.1282
     12 N          -2.6713    4.1397   17.3594 N.ar    1  UNL1       -0.2295
     13 C          -1.4070    4.4081   16.5983 C.ar    1  UNL1        0.1003
     14 C          -0.0865    4.3969   17.3097 C.ar    1  UNL1        0.0209
     15 C          -0.0304    4.1173   18.7824 C.ar    1  UNL1        0.0074
     16 C          -1.2947    3.8489   19.5435 C.ar    1  UNL1        0.0657
     17 H          -4.7462    3.5991   19.1263 H       1  UNL1        0.1437
     18 H          -3.8427    3.4082   20.5598 H       1  UNL1        0.1437
     19 C           0.0407    1.3654   26.8697 C.ar    1  UNL1        0.0369
     20 C          -0.8605    0.8745   27.9636 C.ar    1  UNL1        0.0046
     21 C          -0.2884    0.1087   29.1197 C.ar    1  UNL1        0.0207
     22 C           1.1849   -0.1662   29.1816 C.ar    1  UNL1        0.0989
     23 N           2.0861    0.3247   28.0876 N.ar    1  UNL1       -0.2423
     24 C           1.5140    1.0905   26.9316 C.ar    1  UNL1        0.1003
     25 C           0.6198    1.6480   21.0065 C.ar    1  UNL1        0.0667
     26 C           2.0510    2.0684   20.8492 C.ar    1  UNL1        0.0173
     27 C           3.0293    1.1587   20.1671 C.ar    1  UNL1       -0.0015
     28 C           2.5765   -0.1715   19.6423 C.ar    1  UNL1       -0.0097
     29 C           1.1452   -0.5920   19.7996 C.ar    1  UNL1       -0.0015
     30 C           0.1669    0.3177   20.4817 C.ar    1  UNL1        0.0173
     31 C           3.5548   -1.0812   18.9601 C.3     1  UNL1        0.0581
     32 N           3.6772   -0.1021   17.8303 N.3     1  UNL1       -0.3200
     33 C           3.4324   -2.0601   20.0900 C.3     1  UNL1        0.0185
     34 C           4.4107   -2.9698   19.4078 C.3     1  UNL1        0.0033
     35 C           4.5332   -1.9907   18.2780 C.3     1  UNL1        0.0185
     36 H           3.0778    0.7030   18.0115 H       1  UNL1        0.1191
     37 H           3.3910   -0.5500   16.9597 H       1  UNL1        0.1191
@<TRIPOS>BOND
     1    10    11    1
     2    11    12   ar
     3    12    13   ar
     4    13    14   ar
     5    14    15   ar
     6    15    16   ar
     7    16     1    1
     8     1     2   ar
     9     2     3   ar
    10     3     4   ar
    11     4     5   ar
    12     5     6   ar
    13     6    19    1
    14    19    20   ar
    15    20    21   ar
    16    21    22   ar
    17    22    23   ar
    18    23    24   ar
    19     6     7   ar
    20     7     8   ar
    21     8     9   ar
    22     9    25    1
    23    25    26   ar
    24    26    27   ar
    25    27    28   ar
    26    28    31    1
    27    31    32    1
    28    31    33    1
    29    33    34    1
    30    34    35    1
    31    28    29   ar
    32    29    30   ar
    33    16    11   ar
    34     9     1   ar
    35    30    25   ar
    36     8     3   ar
    37    35    31    1
    38    24    19   ar
    39    10    17    1
    40    10    18    1
    41    32    36    1
    42    32    37    1
@<TRIPOS>MOLECULE
*****
 37 42 0 0 0
SMALL
GASTEIGER

@<TRIPOS>ATOM
      1 C           6.0326   -0.6064   32.5958 C.ar    1  UNL1        0.1515
      2 N           6.8126   -0.6731   33.8752 N.ar    1  UNL1       -0.2248
      3 C           5.9343   -0.1666   34.9807 C.ar    1  UNL1        0.1173
      4 C           6.1682   -0.0021   36.4531 C.ar    1  UNL1        0.0238
      5 C           5.0791    0.5421   37.3293 C.ar    1  UNL1        0.0208
      6 C           3.7561    0.9217   36.7330 C.ar    1  UNL1        0.0845
      7 N           3.5222    0.7572   35.2606 N.ar    1  UNL1       -0.2263
      8 C           4.6112    0.2130   34.3844 C.ar    1  UNL1        0.1665
      9 N           4.6720   -0.0588   32.9105 N.ar    1  UNL1       -0.2754
     10 N           6.1034   -3.5083   31.8379 N.pl3   1  UNL1       -0.3425
     11 C           6.5617   -2.4665   30.8608 C.ar    1  UNL1        0.1282
     12 N           7.0555   -2.8757   29.5048 N.ar    1  UNL1       -0.2295
     13 C           7.5138   -1.8339   28.5277 C.ar    1  UNL1        0.1003
     14 C           7.4783   -0.3831   28.9066 C.ar    1  UNL1        0.0209
     15 C           6.9846    0.0261   30.2627 C.ar    1  UNL1        0.0074
     16 C           6.5263   -1.0156   31.2398 C.ar    1  UNL1        0.0657
     17 H           6.1267   -4.4606   31.5892 H       1  UNL1        0.1437
     18 H           5.7794   -3.2398   32.7279 H       1  UNL1        0.1437
     19 C           2.6670    1.4659   37.6093 C.ar    1  UNL1        0.0369
     20 C           2.1505    0.6506   38.7575 C.ar    1  UNL1        0.0046
     21 C           1.0613    1.1948   39.6338 C.ar    1  UNL1        0.0207
     22 C           0.4888    2.5543   39.3618 C.ar    1  UNL1        0.0989
     23 N           1.0054    3.3696   38.2134 N.ar    1  UNL1       -0.2423
     24 C           2.0944    2.8254   37.3373 C.ar    1  UNL1        0.1003
     25 C           3.5663    0.1758   31.9244 C.ar    1  UNL1        0.0667
     26 C           2.7635    1.4414   31.9847 C.ar    1  UNL1        0.0173
     27 C           1.6578    1.6760   30.9986 C.ar    1  UNL1       -0.0015
     28 C           1.3549    0.6450   29.9521 C.ar    1  UNL1       -0.0097
     29 C           2.1577   -0.6206   29.8917 C.ar    1  UNL1       -0.0015
     30 C           3.2634   -0.8553   30.8778 C.ar    1  UNL1        0.0173
     31 C           0.2492    0.8796   28.9660 C.3     1  UNL1        0.0581
     32 N          -0.3113   -0.4777   29.2717 N.3     1  UNL1       -0.3200
     33 C           0.8098    2.2369   28.6603 C.3     1  UNL1        0.0185
     34 C          -0.2959    2.4715   27.6742 C.3     1  UNL1        0.0033
     35 C          -0.8565    1.1141   27.9799 C.3     1  UNL1        0.0185
     36 H           0.2705   -0.9358   29.9732 H       1  UNL1        0.1191
     37 H          -0.3239   -1.0399   28.4207 H       1  UNL1        0.1191
@<TRIPOS>BOND
     1    10    11    1
     2    11    12   ar
     3    12    13   ar
     4    13    14   ar
     5    14    15   ar
     6    15    16   ar
     7    16     1    1
     8     1     2   ar
     9     2     3   ar
    10     3     4   ar
    11     4     5   ar
    12     5     6   ar
    13     6    19    1
    14    19    20   ar
    15    20    21   ar
    16    21    22   ar
    17    22    23   ar
    18    23    24   ar
    19     6     7   ar
    20     7     8   ar
    21     8     9   ar
    22     9    25    1
    23    25    26   ar
    24    26    27   ar
    25    27    28   ar
    26    28    31    1
    27    31    32    1
    28    31    33    1
    29    33    34    1
    30    34    35    1
    31    28    29   ar
    32    29    30   ar
    33    16    11   ar
    34     9     1   ar
    35    30    25   ar
    36     8     3   ar
    37    35    31    1
    38    24    19   ar
    39    10    17    1
    40    10    18    1
    41    32    36    1
    42    32    37    1
@<TRIPOS>MOLECULE
*****
 37 42 0 0 0
SMALL
GASTEIGER

@<TRIPOS>ATOM
      1 C           6.6444   -2.7041   20.2565 C.ar    1  UNL1        0.1515
      2 N           7.7127   -3.7214   19.9847 N.ar    1  UNL1       -0.2248
      3 C           7.9541   -4.4896   21.2502 C.ar    1  UNL1        0.1173
      4 C           8.8921   -5.6130   21.5790 C.ar    1  UNL1        0.0238
      5 C           8.9108   -6.1940   22.9617 C.ar    1  UNL1        0.0208
      6 C           7.9917   -5.6515   24.0157 C.ar    1  UNL1        0.0845
      7 N           7.0537   -4.5281   23.6869 N.ar    1  UNL1       -0.2263
      8 C           7.0349   -3.9472   22.3042 C.ar    1  UNL1        0.1665
      9 N           6.2255   -2.8437   21.6900 N.ar    1  UNL1       -0.2754
     10 N           4.8539   -3.6469   18.0417 N.pl3   1  UNL1       -0.3425
     11 C           5.1968   -2.1914   18.1609 C.ar    1  UNL1        0.1282
     12 N           4.6444   -1.2074   17.1727 N.ar    1  UNL1       -0.2295
     13 C           4.9872    0.2480   17.2919 C.ar    1  UNL1        0.1003
     14 C           5.8825    0.7194   18.3993 C.ar    1  UNL1        0.0209
     15 C           6.4349   -0.2647   19.3875 C.ar    1  UNL1        0.0074
     16 C           6.0920   -1.7201   19.2683 C.ar    1  UNL1        0.0657
     17 H           4.2663   -3.9562   17.3149 H       1  UNL1        0.1437
     18 H           5.2165   -4.2927   18.6903 H       1  UNL1        0.1437
     19 C           8.0105   -6.2325   25.3986 C.ar    1  UNL1        0.0369
     20 C           8.0300   -7.7205   25.5867 C.ar    1  UNL1        0.0046
     21 C           8.0489   -8.3016   26.9695 C.ar    1  UNL1        0.0207
     22 C           8.0482   -7.3945   28.1642 C.ar    1  UNL1        0.0989
     23 N           8.0287   -5.9064   27.9760 N.ar    1  UNL1       -0.2423
     24 C           8.0098   -5.3255   26.5932 C.ar    1  UNL1        0.1003
     25 C           5.1807   -2.0237   22.3871 C.ar    1  UNL1        0.0667
     26 C           5.4633   -1.4420   23.7404 C.ar    1  UNL1        0.0173
     27 C           4.4184   -0.6220   24.4375 C.ar    1  UNL1       -0.0015
     28 C           3.0908   -0.3837   23.7811 C.ar    1  UNL1       -0.0097
     29 C           2.8082   -0.9654   22.4277 C.ar    1  UNL1       -0.0015
     30 C           3.8530   -1.7854   21.7307 C.ar    1  UNL1        0.0173
     31 C           2.0459    0.4362   24.4782 C.3     1  UNL1        0.0581
     32 N           2.5648   -0.0313   25.8057 N.3     1  UNL1       -0.3200
     33 C           1.5271    0.9037   23.1506 C.3     1  UNL1        0.0185
     34 C           0.4823    1.7237   23.8478 C.3     1  UNL1        0.0033
     35 C           1.0012    1.2561   25.1753 C.3     1  UNL1        0.0185
     36 H           3.3523   -0.6629   25.6597 H       1  UNL1        0.1191
     37 H           1.8240   -0.5217   26.3068 H       1  UNL1        0.1191
@<TRIPOS>BOND
     1    10    11    1
     2    11    12   ar
     3    12    13   ar
     4    13    14   ar
     5    14    15   ar
     6    15    16   ar
     7    16     1    1
     8     1     2   ar
     9     2     3   ar
    10     3     4   ar
    11     4     5   ar
    12     5     6   ar
    13     6    19    1
    14    19    20   ar
    15    20    21   ar
    16    21    22   ar
    17    22    23   ar
    18    23    24   ar
    19     6     7   ar
    20     7     8   ar
    21     8     9   ar
    22     9    25    1
    23    25    26   ar
    24    26    27   ar
    25    27    28   ar
    26    28    31    1
    27    31    32    1
    28    31    33    1
    29    33    34    1
    30    34    35    1
    31    28    29   ar
    32    29    30   ar
    33    16    11   ar
    34     9     1   ar
    35    30    25   ar
    36     8     3   ar
    37    35    31    1
    38    24    19   ar
    39    10    17    1
    40    10    18    1
    41    32    36    1
    42    32    37    1
@<TRIPOS>MOLECULE
*****
 37 42 0 0 0
SMALL
GASTEIGER

@<TRIPOS>ATOM
      1 C          -9.9190  -18.7243   21.8895 C.ar    1  UNL1        0.1515
      2 N          -9.7294  -19.5319   20.6398 N.ar    1  UNL1       -0.2248
      3 C          -8.2693  -19.5188   20.2965 C.ar    1  UNL1        0.1173
      4 C          -7.4967  -20.1442   19.1731 C.ar    1  UNL1        0.0238
      5 C          -6.0113  -19.9540   19.0874 C.ar    1  UNL1        0.0208
      6 C          -5.2985  -19.1384   20.1250 C.ar    1  UNL1        0.0845
      7 N          -6.0711  -18.5130   21.2483 N.ar    1  UNL1       -0.2263
      8 C          -7.5565  -18.7032   21.3341 C.ar    1  UNL1        0.1665
      9 N          -8.5761  -18.2122   22.3186 N.ar    1  UNL1       -0.2754
     10 N         -12.1045  -17.2195   20.4897 N.pl3   1  UNL1       -0.3425
     11 C         -12.3154  -17.7207   21.8877 C.ar    1  UNL1        0.1282
     12 N         -13.6191  -17.4694   22.5858 N.ar    1  UNL1       -0.2295
     13 C         -13.8300  -17.9705   23.9837 C.ar    1  UNL1        0.1003
     14 C         -12.7374  -18.7229   24.6836 C.ar    1  UNL1        0.0209
     15 C         -11.4337  -18.9742   23.9855 C.ar    1  UNL1        0.0074
     16 C         -11.2227  -18.4731   22.5876 C.ar    1  UNL1        0.0657
     17 H         -12.8216  -16.7257   20.0303 H       1  UNL1        0.1437
     18 H         -11.2488  -17.3844   20.0315 H       1  UNL1        0.1437
     19 C          -3.8130  -18.9482   20.0392 C.ar    1  UNL1        0.0369
     20 C          -3.2305  -18.0608   18.9795 C.ar    1  UNL1        0.0046
     21 C          -1.7450  -17.8706   18.8937 C.ar    1  UNL1        0.0207
     22 C          -0.8422  -18.5679   19.8677 C.ar    1  UNL1        0.0989
     23 N          -1.4248  -19.4553   20.9275 N.ar    1  UNL1       -0.2423
     24 C          -2.9102  -19.6454   21.0133 C.ar    1  UNL1        0.1003
     25 C          -8.3010  -17.3588   23.5212 C.ar    1  UNL1        0.0667
     26 C          -8.9442  -17.6860   24.8361 C.ar    1  UNL1        0.0173
     27 C          -8.6691  -16.8327   26.0386 C.ar    1  UNL1       -0.0015
     28 C          -7.7507  -15.6521   25.9262 C.ar    1  UNL1       -0.0097
     29 C          -7.1074  -15.3248   24.6113 C.ar    1  UNL1       -0.0015
     30 C          -7.3825  -16.1781   23.4088 C.ar    1  UNL1        0.0173
     31 C          -7.4756  -14.7987   27.1288 C.3     1  UNL1        0.0581
     32 N          -6.0369  -14.6858   26.7194 N.3     1  UNL1       -0.3200
     33 C          -8.9143  -14.9116   27.5381 C.3     1  UNL1        0.0185
     34 C          -8.6391  -14.0583   28.7406 C.3     1  UNL1        0.0033
     35 C          -7.2004  -13.9454   28.3312 C.3     1  UNL1        0.0185
     36 H          -5.8873  -15.2073   25.8557 H       1  UNL1        0.1191
     37 H          -5.4431  -15.0687   27.4550 H       1  UNL1        0.1191
@<TRIPOS>BOND
     1    10    11    1
     2    11    12   ar
     3    12    13   ar
     4    13    14   ar
     5    14    15   ar
     6    15    16   ar
     7    16     1    1
     8     1     2   ar
     9     2     3   ar
    10     3     4   ar
    11     4     5   ar
    12     5     6   ar
    13     6    19    1
    14    19    20   ar
    15    20    21   ar
    16    21    22   ar
    17    22    23   ar
    18    23    24   ar
    19     6     7   ar
    20     7     8   ar
    21     8     9   ar
    22     9    25    1
    23    25    26   ar
    24    26    27   ar
    25    27    28   ar
    26    28    31    1
    27    31    32    1
    28    31    33    1
    29    33    34    1
    30    34    35    1
    31    28    29   ar
    32    29    30   ar
    33    16    11   ar
    34     9     1   ar
    35    30    25   ar
    36     8     3   ar
    37    35    31    1
    38    24    19   ar
    39    10    17    1
    40    10    18    1
    41    32    36    1
    42    32    37    1
@<TRIPOS>MOLECULE
*****
 37 42 0 0 0
SMALL
GASTEIGER

@<TRIPOS>ATOM
      1 C           6.4401   -3.9803   22.3736 C.ar    1  UNL1        0.1515
      2 N           7.4773   -4.9992   22.7426 N.ar    1  UNL1       -0.2248
      3 C           7.5435   -5.0722   24.2394 C.ar    1  UNL1        0.1173
      4 C           8.3823   -5.8996   25.1677 C.ar    1  UNL1        0.0238
      5 C           8.2248   -5.7531   26.6522 C.ar    1  UNL1        0.0208
      6 C           7.2286   -4.7793   27.2083 C.ar    1  UNL1        0.0845
      7 N           6.3899   -3.9519   26.2799 N.ar    1  UNL1       -0.2263
      8 C           6.5473   -4.0984   24.7955 C.ar    1  UNL1        0.1665
      9 N           5.8654   -3.4236   23.6424 N.ar    1  UNL1       -0.2754
     10 N           7.9225   -1.7896   20.9582 N.pl3   1  UNL1       -0.3425
     11 C           6.7879   -2.4919   20.2728 C.ar    1  UNL1        0.1282
     12 N           6.3945   -2.0987   18.8797 N.ar    1  UNL1       -0.2295
     13 C           5.2600   -2.8009   18.1943 C.ar    1  UNL1        0.1003
     14 C           4.5189   -3.8963   18.9021 C.ar    1  UNL1        0.0209
     15 C           4.9123   -4.2894   20.2951 C.ar    1  UNL1        0.0074
     16 C           6.0468   -3.5872   20.9805 C.ar    1  UNL1        0.0657
     17 H           8.4089   -1.0707   20.4937 H       1  UNL1        0.1437
     18 H           8.1807   -2.0476   21.8725 H       1  UNL1        0.1437
     19 C           7.0712   -4.6329   28.6929 C.ar    1  UNL1        0.0369
     20 C           6.7874   -3.2854   29.2877 C.ar    1  UNL1        0.0046
     21 C           6.6299   -3.1390   30.7722 C.ar    1  UNL1        0.0207
     22 C           6.7564   -4.3400   31.6619 C.ar    1  UNL1        0.0989
     23 N           7.0402   -5.6875   31.0670 N.ar    1  UNL1       -0.2423
     24 C           7.1976   -5.8339   29.5825 C.ar    1  UNL1        0.1003
     25 C           4.7964   -2.3759   23.7408 C.ar    1  UNL1        0.0667
     26 C           4.5205   -1.7070   25.0546 C.ar    1  UNL1        0.0173
     27 C           3.4515   -0.6594   25.1531 C.ar    1  UNL1       -0.0015
     28 C           2.6584   -0.2806   23.9375 C.ar    1  UNL1       -0.0097
     29 C           2.9342   -0.9495   22.6236 C.ar    1  UNL1       -0.0015
     30 C           4.0032   -1.9972   22.5252 C.ar    1  UNL1        0.0173
     31 C           1.5894    0.7670   24.0360 C.3     1  UNL1        0.0581
     32 N           1.5471    0.5840   25.5242 N.3     1  UNL1       -0.3200
     33 C           1.6317    0.9501   22.5478 C.3     1  UNL1        0.0185
     34 C           0.5627    1.9977   22.6463 C.3     1  UNL1        0.0033
     35 C           0.5204    1.8146   24.1345 C.3     1  UNL1        0.0185
     36 H           2.2229   -0.1292   25.7984 H       1  UNL1        0.1191
     37 H           0.6111    0.2910   25.8043 H       1  UNL1        0.1191
@<TRIPOS>BOND
     1    10    11    1
     2    11    12   ar
     3    12    13   ar
     4    13    14   ar
     5    14    15   ar
     6    15    16   ar
     7    16     1    1
     8     1     2   ar
     9     2     3   ar
    10     3     4   ar
    11     4     5   ar
    12     5     6   ar
    13     6    19    1
    14    19    20   ar
    15    20    21   ar
    16    21    22   ar
    17    22    23   ar
    18    23    24   ar
    19     6     7   ar
    20     7     8   ar
    21     8     9   ar
    22     9    25    1
    23    25    26   ar
    24    26    27   ar
    25    27    28   ar
    26    28    31    1
    27    31    32    1
    28    31    33    1
    29    33    34    1
    30    34    35    1
    31    28    29   ar
    32    29    30   ar
    33    16    11   ar
    34     9     1   ar
    35    30    25   ar
    36     8     3   ar
    37    35    31    1
    38    24    19   ar
    39    10    17    1
    40    10    18    1
    41    32    36    1
    42    32    37    1
@<TRIPOS>MOLECULE
*****
 37 42 0 0 0
SMALL
GASTEIGER

@<TRIPOS>ATOM
      1 C           3.0792    0.6458   28.0643 C.ar    1  UNL1        0.1515
      2 N           4.3000   -0.2220   27.9837 N.ar    1  UNL1       -0.2248
      3 C           4.3859   -0.7731   26.5912 C.ar    1  UNL1        0.1173
      4 C           5.3766   -1.6868   25.9328 C.ar    1  UNL1        0.0238
      5 C           5.1995   -2.0734   24.4943 C.ar    1  UNL1        0.0208
      6 C           4.0318   -1.5461   23.7143 C.ar    1  UNL1        0.0845
      7 N           3.0411   -0.6323   24.3727 N.ar    1  UNL1       -0.2263
      8 C           3.2182   -0.2458   25.8112 C.ar    1  UNL1        0.1665
      9 N           2.4106    0.6311   26.7216 N.ar    1  UNL1       -0.2754
     10 N           2.1546   -0.8526   30.4932 N.pl3   1  UNL1       -0.3425
     11 C           2.1472    0.6474   30.4894 C.ar    1  UNL1        0.1282
     12 N           1.6775    1.3981   31.7001 N.ar    1  UNL1       -0.2295
     13 C           1.6701    2.8981   31.6963 C.ar    1  UNL1        0.1003
     14 C           2.1324    3.6473   30.4819 C.ar    1  UNL1        0.0209
     15 C           2.6021    2.8965   29.2712 C.ar    1  UNL1        0.0074
     16 C           2.6095    1.3966   29.2749 C.ar    1  UNL1        0.0657
     17 H           1.8512   -1.3444   31.2903 H       1  UNL1        0.1437
     18 H           2.4629   -1.3454   29.6986 H       1  UNL1        0.1437
     19 C           3.8547   -1.9327   22.2758 C.ar    1  UNL1        0.0369
     20 C           2.9622   -1.1201   21.3852 C.ar    1  UNL1        0.0046
     21 C           2.7852   -1.5067   19.9467 C.ar    1  UNL1        0.0207
     22 C           3.5006   -2.7058   19.3988 C.ar    1  UNL1        0.0989
     23 N           4.3932   -3.5184   20.2895 N.ar    1  UNL1       -0.2423
     24 C           4.5702   -3.1318   21.7279 C.ar    1  UNL1        0.1003
     25 C           1.1549    1.3645   26.3539 C.ar    1  UNL1        0.0667
     26 C          -0.0438    1.2969   27.2529 C.ar    1  UNL1        0.0173
     27 C          -1.2996    2.0303   26.8852 C.ar    1  UNL1       -0.0015
     28 C          -1.3566    2.8314   25.6183 C.ar    1  UNL1       -0.0097
     29 C          -0.1578    2.8991   24.7192 C.ar    1  UNL1       -0.0015
     30 C           1.0979    2.1657   25.0869 C.ar    1  UNL1        0.0173
     31 C          -2.6123    3.5649   25.2506 C.3     1  UNL1        0.0581
     32 N          -2.1528    3.6363   23.8244 N.3     1  UNL1       -0.3200
     33 C          -3.0717    3.4933   26.6767 C.3     1  UNL1        0.0185
     34 C          -4.3274    4.2268   26.3089 C.3     1  UNL1        0.0033
     35 C          -3.8679    4.2983   24.8827 C.3     1  UNL1        0.0185
     36 H          -1.2436    3.1823   23.7370 H       1  UNL1        0.1191
     37 H          -2.0737    4.6130   23.5412 H       1  UNL1        0.1191
@<TRIPOS>BOND
     1    10    11    1
     2    11    12   ar
     3    12    13   ar
     4    13    14   ar
     5    14    15   ar
     6    15    16   ar
     7    16     1    1
     8     1     2   ar
     9     2     3   ar
    10     3     4   ar
    11     4     5   ar
    12     5     6   ar
    13     6    19    1
    14    19    20   ar
    15    20    21   ar
    16    21    22   ar
    17    22    23   ar
    18    23    24   ar
    19     6     7   ar
    20     7     8   ar
    21     8     9   ar
    22     9    25    1
    23    25    26   ar
    24    26    27   ar
    25    27    28   ar
    26    28    31    1
    27    31    32    1
    28    31    33    1
    29    33    34    1
    30    34    35    1
    31    28    29   ar
    32    29    30   ar
    33    16    11   ar
    34     9     1   ar
    35    30    25   ar
    36     8     3   ar
    37    35    31    1
    38    24    19   ar
    39    10    17    1
    40    10    18    1
    41    32    36    1
    42    32    37    1
@<TRIPOS>MOLECULE
*****
 37 42 0 0 0
SMALL
GASTEIGER

@<TRIPOS>ATOM
      1 C          -0.4443    2.7465   21.5102 C.ar    1  UNL1        0.1515
      2 N          -0.3371    2.5698   20.0245 N.ar    1  UNL1       -0.2248
      3 C           0.6642    1.4852   19.7577 C.ar    1  UNL1        0.1173
      4 C           1.1761    0.8833   18.4828 C.ar    1  UNL1        0.0238
      5 C           2.1997   -0.2122   18.5286 C.ar    1  UNL1        0.0208
      6 C           2.7113   -0.7059   19.8494 C.ar    1  UNL1        0.0845
      7 N           2.1993   -0.1040   21.1244 N.ar    1  UNL1       -0.2263
      8 C           1.1758    0.9915   21.0786 C.ar    1  UNL1        0.1665
      9 N           0.4907    1.7710   22.1616 N.ar    1  UNL1       -0.2754
     10 N          -3.3982    2.7497   20.9861 N.pl3   1  UNL1       -0.3425
     11 C          -2.8077    3.7281   21.9578 C.ar    1  UNL1        0.1282
     12 N          -3.6943    4.7081   22.6675 N.ar    1  UNL1       -0.2295
     13 C          -3.1039    5.6865   23.6392 C.ar    1  UNL1        0.1003
     14 C          -1.6270    5.6848   23.9012 C.ar    1  UNL1        0.0209
     15 C          -0.7405    4.7048   23.1916 C.ar    1  UNL1        0.0074
     16 C          -1.3308    3.7265   22.2199 C.ar    1  UNL1        0.0657
     17 H          -4.3675    2.7508   20.8141 H       1  UNL1        0.1437
     18 H          -2.8163    2.1065   20.5203 H       1  UNL1        0.1437
     19 C           3.7349   -1.8014   19.8952 C.ar    1  UNL1        0.0369
     20 C           3.4153   -3.1508   19.3235 C.ar    1  UNL1        0.0046
     21 C           4.4389   -4.2464   19.3693 C.ar    1  UNL1        0.0207
     22 C           5.7821   -3.9925   19.9868 C.ar    1  UNL1        0.0989
     23 N           6.1016   -2.6430   20.5586 N.ar    1  UNL1       -0.2423
     24 C           5.0781   -1.5475   20.5128 C.ar    1  UNL1        0.1003
     25 C           0.7033    1.6044   23.6371 C.ar    1  UNL1        0.0667
     26 C          -0.4751    1.4490   24.5519 C.ar    1  UNL1        0.0173
     27 C          -0.2625    1.2823   26.0274 C.ar    1  UNL1       -0.0015
     28 C           1.1287    1.2711   26.5881 C.ar    1  UNL1       -0.0097
     29 C           2.3073    1.4265   25.6733 C.ar    1  UNL1       -0.0015
     30 C           2.0946    1.5931   24.1978 C.ar    1  UNL1        0.0173
     31 C           1.3413    1.1044   28.0635 C.3     1  UNL1        0.0581
     32 N           1.9907   -0.2256   27.8196 N.3     1  UNL1       -0.3200
     33 C           0.6919    2.4344   28.3074 C.3     1  UNL1        0.0185
     34 C           0.9046    2.2676   29.7829 C.3     1  UNL1        0.0033
     35 C           1.5540    0.9376   29.5389 C.3     1  UNL1        0.0185
     36 H           2.0016   -0.4202   26.8184 H       1  UNL1        0.1191
     37 H           1.4647   -0.9544   28.3019 H       1  UNL1        0.1191
@<TRIPOS>BOND
     1    10    11    1
     2    11    12   ar
     3    12    13   ar
     4    13    14   ar
     5    14    15   ar
     6    15    16   ar
     7    16     1    1
     8     1     2   ar
     9     2     3   ar
    10     3     4   ar
    11     4     5   ar
    12     5     6   ar
    13     6    19    1
    14    19    20   ar
    15    20    21   ar
    16    21    22   ar
    17    22    23   ar
    18    23    24   ar
    19     6     7   ar
    20     7     8   ar
    21     8     9   ar
    22     9    25    1
    23    25    26   ar
    24    26    27   ar
    25    27    28   ar
    26    28    31    1
    27    31    32    1
    28    31    33    1
    29    33    34    1
    30    34    35    1
    31    28    29   ar
    32    29    30   ar
    33    16    11   ar
    34     9     1   ar
    35    30    25   ar
    36     8     3   ar
    37    35    31    1
    38    24    19   ar
    39    10    17    1
    40    10    18    1
    41    32    36    1
    42    32    37    1
@<TRIPOS>MOLECULE
*****
 37 42 0 0 0
SMALL
GASTEIGER

@<TRIPOS>ATOM
      1 C          -1.9178    3.7183   24.0351 C.ar    1  UNL1        0.1515
      2 N          -2.1831    3.8455   22.5642 N.ar    1  UNL1       -0.2248
      3 C          -1.1497    3.0388   21.8353 C.ar    1  UNL1        0.1173
      4 C          -0.9151    2.7933   20.3742 C.ar    1  UNL1        0.0238
      5 C           0.2235    1.9220   19.9336 C.ar    1  UNL1        0.0208
      6 C           1.1276    1.2962   20.9539 C.ar    1  UNL1        0.0845
      7 N           0.8930    1.5418   22.4149 N.ar    1  UNL1       -0.2263
      8 C          -0.2456    2.4131   22.8556 C.ar    1  UNL1        0.1665
      9 N          -0.7204    2.8330   24.2151 N.ar    1  UNL1       -0.2754
     10 N          -4.8410    3.1115   24.3298 N.pl3   1  UNL1       -0.3425
     11 C          -4.1722    4.0597   25.2804 C.ar    1  UNL1        0.1282
     12 N          -4.9651    4.7046   26.3784 N.ar    1  UNL1       -0.2295
     13 C          -4.2964    5.6528   27.3290 C.ar    1  UNL1        0.1003
     14 C          -2.8348    5.9562   27.1816 C.ar    1  UNL1        0.0209
     15 C          -2.0420    5.3113   26.0837 C.ar    1  UNL1        0.0074
     16 C          -2.7106    4.3631   25.1331 C.ar    1  UNL1        0.0657
     17 H          -5.8003    2.9123   24.4266 H       1  UNL1        0.1437
     18 H          -4.3206    2.6882   23.6092 H       1  UNL1        0.1437
     19 C           2.2663    0.4249   20.5132 C.ar    1  UNL1        0.0369
     20 C           2.0396   -1.0370   20.2651 C.ar    1  UNL1        0.0046
     21 C           3.1783   -1.9083   19.8243 C.ar    1  UNL1        0.0207
     22 C           4.5437   -1.3177   19.6317 C.ar    1  UNL1        0.0989
     23 N           4.7703    0.1442   19.8798 N.ar    1  UNL1       -0.2423
     24 C           3.6316    1.0155   20.3205 C.ar    1  UNL1        0.1003
     25 C          -0.1055    2.4371   25.5248 C.ar    1  UNL1        0.0667
     26 C           1.1429    3.1170   26.0033 C.ar    1  UNL1        0.0173
     27 C           1.7578    2.7211   27.3130 C.ar    1  UNL1       -0.0015
     28 C           1.1241    1.6453   28.1442 C.ar    1  UNL1       -0.0097
     29 C          -0.1244    0.9653   27.6658 C.ar    1  UNL1       -0.0015
     30 C          -0.7393    1.3612   26.3561 C.ar    1  UNL1        0.0173
     31 C           1.7389    1.2494   29.4539 C.3     1  UNL1        0.0581
     32 N           1.6862    2.6774   29.9102 N.3     1  UNL1       -0.3200
     33 C           1.7916   -0.1785   28.9976 C.3     1  UNL1        0.0185
     34 C           2.4064   -0.5743   30.3073 C.3     1  UNL1        0.0033
     35 C           2.3537    0.8536   30.7636 C.3     1  UNL1        0.0185
     36 H           1.2801    3.2548   29.1740 H       1  UNL1        0.1191
     37 H           2.6304    3.0036   30.1162 H       1  UNL1        0.1191
@<TRIPOS>BOND
     1    10    11    1
     2    11    12   ar
     3    12    13   ar
     4    13    14   ar
     5    14    15   ar
     6    15    16   ar
     7    16     1    1
     8     1     2   ar
     9     2     3   ar
    10     3     4   ar
    11     4     5   ar
    12     5     6   ar
    13     6    19    1
    14    19    20   ar
    15    20    21   ar
    16    21    22   ar
    17    22    23   ar
    18    23    24   ar
    19     6     7   ar
    20     7     8   ar
    21     8     9   ar
    22     9    25    1
    23    25    26   ar
    24    26    27   ar
    25    27    28   ar
    26    28    31    1
    27    31    32    1
    28    31    33    1
    29    33    34    1
    30    34    35    1
    31    28    29   ar
    32    29    30   ar
    33    16    11   ar
    34     9     1   ar
    35    30    25   ar
    36     8     3   ar
    37    35    31    1
    38    24    19   ar
    39    10    17    1
    40    10    18    1
    41    32    36    1
    42    32    37    1
