@<TRIPOS>MOLECULE
*****
 29 31 0 0 0
SMALL
GASTEIGER

@<TRIPOS>ATOM
      1 C           5.9493    1.6066   35.2785 C.ar    1  UNL1        0.1592
      2 C           5.2804    1.7234   33.9409 C.ar    1  UNL1        0.0398
      3 C           5.6332    0.7677   32.8400 C.ar    1  UNL1        0.0179
      4 C           6.6548   -0.3048   33.0765 C.ar    1  UNL1        0.0516
      5 C           7.3237   -0.4216   34.4140 C.ar    1  UNL1        0.0292
      6 C           6.9709    0.5341   35.5150 C.ar    1  UNL1        0.0934
      7 CL          7.6398    0.4173   36.8525 Cl      1  UNL1       -0.0790
      8 N           7.0076   -1.2606   31.9755 N.am    1  UNL1       -0.2791
      9 C           6.2011   -2.5101   31.7799 C.2     1  UNL1        0.2685
     10 O           5.0418   -2.8039   32.6852 O.2     1  UNL1       -0.2681
     11 H           7.7685   -1.0678   31.3813 H       1  UNL1        0.1552
     12 C           6.5539   -3.4657   30.6789 C.ar    1  UNL1        0.1475
     13 N           6.6691   -2.9734   29.2666 N.ar    1  UNL1       -0.2380
     14 C           7.0219   -3.9290   28.1657 C.ar    1  UNL1        0.0991
     15 C           7.2594   -5.3771   28.4769 C.ar    1  UNL1        0.0219
     16 C           7.1442   -5.8694   29.8890 C.ar    1  UNL1        0.0174
     17 C           6.7914   -4.9137   30.9901 C.ar    1  UNL1        0.0640
     18 N           6.6761   -5.4061   32.4023 N.pl3   1  UNL1       -0.3557
     19 H           6.8320   -6.3565   32.6065 H       1  UNL1        0.1424
     20 H           6.4445   -4.7789   33.1249 H       1  UNL1        0.1424
     21 O           5.5965    2.5623   36.3794 O.3     1  UNL1       -0.4214
     22 C           1.7974    1.9919   38.7228 C.ar    1  UNL1        0.0163
     23 C           2.0314    3.2698   37.9731 C.ar    1  UNL1        0.1009
     24 N           3.2978    3.4599   37.1919 N.ar    1  UNL1       -0.1927
     25 C           4.3301    2.3722   37.1606 C.ar    1  UNL1        0.3246
     26 N           4.0961    1.0943   37.9103 N.ar    1  UNL1       -0.1927
     27 C           2.8297    0.9042   38.6914 C.ar    1  UNL1        0.1009
     28 C           0.4626    2.2346   40.9385 C.3     1  UNL1        0.0051
     29 C           0.5310    1.8018   39.5040 C.3     1  UNL1        0.0295
@<TRIPOS>BOND
     1    28    29    1
     2    29    22    1
     3    22    23   ar
     4    23    24   ar
     5    24    25   ar
     6    25    21    1
     7    21     1    1
     8     1     2   ar
     9     2     3   ar
    10     3     4   ar
    11     4     8    1
    12     8     9   am
    13     9    10    2
    14     9    12    1
    15    12    13   ar
    16    13    14   ar
    17    14    15   ar
    18    15    16   ar
    19    16    17   ar
    20    17    18    1
    21     4     5   ar
    22     5     6   ar
    23     6     7    1
    24    25    26   ar
    25    26    27   ar
    26    27    22   ar
    27     6     1   ar
    28    17    12   ar
    29     8    11    1
    30    18    19    1
    31    18    20    1
@<TRIPOS>MOLECULE
*****
 29 31 0 0 0
SMALL
GASTEIGER

@<TRIPOS>ATOM
      1 C           6.9069   -2.8676   32.4881 C.ar    1  UNL1        0.1592
      2 C           5.4702   -3.1522   32.8122 C.ar    1  UNL1        0.0398
      3 C           4.5900   -2.0590   33.3414 C.ar    1  UNL1        0.0179
      4 C           5.1464   -0.6812   33.5465 C.ar    1  UNL1        0.0516
      5 C           6.5830   -0.3966   33.2225 C.ar    1  UNL1        0.0292
      6 C           7.4633   -1.4898   32.6933 C.ar    1  UNL1        0.0934
      7 CL          8.8999   -1.2052   32.3693 Cl      1  UNL1       -0.0790
      8 N           4.2660    0.4120   34.0757 N.am    1  UNL1       -0.2791
      9 C           4.2822    0.7463   35.5379 C.2     1  UNL1        0.2685
     10 O           5.1786   -0.0126   36.4709 O.2     1  UNL1       -0.2681
     11 H           3.6777    0.9101   33.4634 H       1  UNL1        0.1552
     12 C           3.4019    1.8395   36.0670 C.ar    1  UNL1        0.1475
     13 N           3.0422    3.0029   35.1911 N.ar    1  UNL1       -0.2380
     14 C           2.1619    4.0961   35.7202 C.ar    1  UNL1        0.0991
     15 C           1.6412    4.0259   37.1252 C.ar    1  UNL1        0.0219
     16 C           2.0008    2.8625   38.0011 C.ar    1  UNL1        0.0174
     17 C           2.8812    1.7693   37.4720 C.ar    1  UNL1        0.0640
     18 N           3.2408    0.6059   38.3478 N.pl3   1  UNL1       -0.3557
     19 H           2.8991    0.5598   39.2700 H       1  UNL1        0.1424
     20 H           3.8186   -0.1116   38.0006 H       1  UNL1        0.1424
     21 O           7.7872   -3.9608   31.9590 O.3     1  UNL1       -0.4214
     22 C           7.0338   -5.6737   27.8665 C.ar    1  UNL1        0.0163
     23 C           7.9029   -6.4126   28.8405 C.ar    1  UNL1        0.1009
     24 N           8.1540   -5.8416   30.2046 N.ar    1  UNL1       -0.1927
     25 C           7.5361   -4.5318   30.5948 C.ar    1  UNL1        0.3246
     26 N           6.6670   -3.7929   29.6209 N.ar    1  UNL1       -0.1927
     27 C           6.4158   -4.3638   28.2567 C.ar    1  UNL1        0.1009
     28 C           7.1506   -7.6683   26.2058 C.3     1  UNL1        0.0051
     29 C           6.7827   -6.2447   26.5023 C.3     1  UNL1        0.0295
@<TRIPOS>BOND
     1    28    29    1
     2    29    22    1
     3    22    23   ar
     4    23    24   ar
     5    24    25   ar
     6    25    21    1
     7    21     1    1
     8     1     2   ar
     9     2     3   ar
    10     3     4   ar
    11     4     8    1
    12     8     9   am
    13     9    10    2
    14     9    12    1
    15    12    13   ar
    16    13    14   ar
    17    14    15   ar
    18    15    16   ar
    19    16    17   ar
    20    17    18    1
    21     4     5   ar
    22     5     6   ar
    23     6     7    1
    24    25    26   ar
    25    26    27   ar
    26    27    22   ar
    27     6     1   ar
    28    17    12   ar
    29     8    11    1
    30    18    19    1
    31    18    20    1
@<TRIPOS>MOLECULE
*****
 29 31 0 0 0
SMALL
GASTEIGER

@<TRIPOS>ATOM
      1 C           7.3191   -4.6914   22.7519 C.ar    1  UNL1        0.1592
      2 C           6.4329   -3.6170   23.3092 C.ar    1  UNL1        0.0398
      3 C           6.1377   -3.5758   24.7792 C.ar    1  UNL1        0.0179
      4 C           6.7286   -4.6090   25.6921 C.ar    1  UNL1        0.0516
      5 C           7.6146   -5.6834   25.1350 C.ar    1  UNL1        0.0292
      6 C           7.9099   -5.7246   23.6648 C.ar    1  UNL1        0.0934
      7 CL          8.7959   -6.7991   23.1077 Cl      1  UNL1       -0.0790
      8 N           6.4333   -4.5677   27.1622 N.am    1  UNL1       -0.2791
      9 C           7.1012   -3.5452   28.0330 C.2     1  UNL1        0.2685
     10 O           8.0644   -2.5638   27.4336 O.2     1  UNL1       -0.2681
     11 H           5.8011   -5.2118   27.5556 H       1  UNL1        0.1552
     12 C           6.8059   -3.5040   29.5030 C.ar    1  UNL1        0.1475
     13 N           7.0998   -4.6989   30.3608 N.ar    1  UNL1       -0.2380
     14 C           6.8046   -4.6577   31.8309 C.ar    1  UNL1        0.0991
     15 C           6.2154   -3.4216   32.4432 C.ar    1  UNL1        0.0219
     16 C           5.9215   -2.2267   31.5854 C.ar    1  UNL1        0.0174
     17 C           6.2168   -2.2679   30.1153 C.ar    1  UNL1        0.0640
     18 N           5.9229   -1.0730   29.2576 N.pl3   1  UNL1       -0.3557
     19 H           5.5362   -0.2617   29.6594 H       1  UNL1        0.1424
     20 H           6.1167   -1.1000   28.2927 H       1  UNL1        0.1424
     21 O           7.6143   -4.7326   21.2819 O.3     1  UNL1       -0.4214
     22 C           5.1309   -2.3060   18.4193 C.ar    1  UNL1        0.0163
     23 C           4.6326   -3.6352   18.9038 C.ar    1  UNL1        0.1009
     24 N           5.4604   -4.4441   19.8579 N.ar    1  UNL1       -0.1927
     25 C           6.7865   -3.9237   20.3277 C.ar    1  UNL1        0.3246
     26 N           7.2848   -2.5945   19.8433 N.ar    1  UNL1       -0.1927
     27 C           6.4570   -1.7856   18.8891 C.ar    1  UNL1        0.1009
     28 C           3.4530   -0.3723   17.9771 C.3     1  UNL1        0.0051
     29 C           4.3031   -1.4971   17.4651 C.3     1  UNL1        0.0295
@<TRIPOS>BOND
     1    28    29    1
     2    29    22    1
     3    22    23   ar
     4    23    24   ar
     5    24    25   ar
     6    25    21    1
     7    21     1    1
     8     1     2   ar
     9     2     3   ar
    10     3     4   ar
    11     4     8    1
    12     8     9   am
    13     9    10    2
    14     9    12    1
    15    12    13   ar
    16    13    14   ar
    17    14    15   ar
    18    15    16   ar
    19    16    17   ar
    20    17    18    1
    21     4     5   ar
    22     5     6   ar
    23     6     7    1
    24    25    26   ar
    25    26    27   ar
    26    27    22   ar
    27     6     1   ar
    28    17    12   ar
    29     8    11    1
    30    18    19    1
    31    18    20    1
@<TRIPOS>MOLECULE
*****
 29 31 0 0 0
SMALL
GASTEIGER

@<TRIPOS>ATOM
      1 C           6.8901   -4.2953   22.6235 C.ar    1  UNL1        0.1592
      2 C           5.9452   -3.2617   23.1609 C.ar    1  UNL1        0.0398
      3 C           5.9977   -2.8788   24.6103 C.ar    1  UNL1        0.0179
      4 C           6.9951   -3.5297   25.5222 C.ar    1  UNL1        0.0516
      5 C           7.9399   -4.5633   24.9849 C.ar    1  UNL1        0.0292
      6 C           7.8875   -4.9462   23.5355 C.ar    1  UNL1        0.0934
      7 CL          8.8323   -5.9798   22.9981 Cl      1  UNL1       -0.0790
      8 N           7.0475   -3.1468   26.9717 N.am    1  UNL1       -0.2791
      9 C           6.4838   -4.0689   28.0118 C.2     1  UNL1        0.2685
     10 O           5.8676   -5.3738   27.6027 O.2     1  UNL1       -0.2681
     11 H           7.4519   -2.2903   27.2402 H       1  UNL1        0.1552
     12 C           6.5363   -3.6860   29.4612 C.ar    1  UNL1        0.1475
     13 N           6.2527   -2.2720   29.8741 N.ar    1  UNL1       -0.2380
     14 C           6.3052   -1.8891   31.3234 C.ar    1  UNL1        0.0991
     15 C           6.6412   -2.9201   32.3599 C.ar    1  UNL1        0.0219
     16 C           6.9248   -4.3340   31.9470 C.ar    1  UNL1        0.0174
     17 C           6.8723   -4.7169   30.4976 C.ar    1  UNL1        0.0640
     18 N           7.1558   -6.1308   30.0847 N.pl3   1  UNL1       -0.3557
     19 H           7.3764   -6.8075   30.7649 H       1  UNL1        0.1424
     20 H           7.1214   -6.3821   29.1334 H       1  UNL1        0.1424
     21 O           6.8377   -4.6782   21.1741 O.3     1  UNL1       -0.4214
     22 C           4.7053   -2.0325   18.2239 C.ar    1  UNL1        0.0163
     23 C           6.1483   -1.7831   18.5486 C.ar    1  UNL1        0.1009
     24 N           6.8591   -2.6650   19.5320 N.ar    1  UNL1       -0.1927
     25 C           6.1269   -3.7963   20.1907 C.ar    1  UNL1        0.3246
     26 N           4.6838   -4.0456   19.8661 N.ar    1  UNL1       -0.1927
     27 C           3.9731   -3.1638   18.8827 C.ar    1  UNL1        0.1009
     28 C           3.2766    0.0773   17.7166 C.3     1  UNL1        0.0051
     29 C           3.9945   -1.1506   17.2405 C.3     1  UNL1        0.0295
@<TRIPOS>BOND
     1    28    29    1
     2    29    22    1
     3    22    23   ar
     4    23    24   ar
     5    24    25   ar
     6    25    21    1
     7    21     1    1
     8     1     2   ar
     9     2     3   ar
    10     3     4   ar
    11     4     8    1
    12     8     9   am
    13     9    10    2
    14     9    12    1
    15    12    13   ar
    16    13    14   ar
    17    14    15   ar
    18    15    16   ar
    19    16    17   ar
    20    17    18    1
    21     4     5   ar
    22     5     6   ar
    23     6     7    1
    24    25    26   ar
    25    26    27   ar
    26    27    22   ar
    27     6     1   ar
    28    17    12   ar
    29     8    11    1
    30    18    19    1
    31    18    20    1
@<TRIPOS>MOLECULE
*****
 29 31 0 0 0
SMALL
GASTEIGER

@<TRIPOS>ATOM
      1 C           2.2567    0.4627   18.8163 C.ar    1  UNL1        0.1592
      2 C           1.2842   -0.3914   19.5747 C.ar    1  UNL1        0.0398
      3 C           0.2996    0.2439   20.5111 C.ar    1  UNL1        0.0179
      4 C           0.2874    1.7333   20.6892 C.ar    1  UNL1        0.0516
      5 C           1.2597    2.5873   19.9309 C.ar    1  UNL1        0.0292
      6 C           2.2444    1.9520   18.9944 C.ar    1  UNL1        0.0934
      7 CL          3.2168    2.8061   18.2361 Cl      1  UNL1       -0.0790
      8 N          -0.6973    2.3686   21.6257 N.am    1  UNL1       -0.2791
      9 C          -1.8131    3.2110   21.0823 C.2     1  UNL1        0.2685
     10 O          -1.9443    3.4181   19.6025 O.2     1  UNL1       -0.2681
     11 H          -0.6112    2.2326   22.5969 H       1  UNL1        0.1552
     12 C          -2.7977    3.8462   22.0187 C.ar    1  UNL1        0.1475
     13 N          -2.3316    4.8561   23.0252 N.ar    1  UNL1       -0.2380
     14 C          -3.3162    5.4913   23.9617 C.ar    1  UNL1        0.0991
     15 C          -4.7670    5.1167   23.8917 C.ar    1  UNL1        0.0219
     16 C          -5.2332    4.1069   22.8853 C.ar    1  UNL1        0.0174
     17 C          -4.2485    3.4717   21.9487 C.ar    1  UNL1        0.0640
     18 N          -4.7147    2.4619   20.9423 N.pl3   1  UNL1       -0.3557
     19 H          -5.6669    2.2160   20.8964 H       1  UNL1        0.1424
     20 H          -4.0685    2.0449   20.3277 H       1  UNL1        0.1424
     21 O           3.2413   -0.1726   17.8799 O.3     1  UNL1       -0.4214
     22 C           6.8108   -2.3685   19.5189 C.ar    1  UNL1        0.0163
     23 C           6.5120   -2.4139   18.0497 C.ar    1  UNL1        0.1009
     24 N           5.3222   -1.6819   17.5034 N.ar    1  UNL1       -0.1927
     25 C           4.4311   -0.9046   18.4263 C.ar    1  UNL1        0.3246
     26 N           4.7299   -0.8592   19.8955 N.ar    1  UNL1       -0.1927
     27 C           5.9198   -1.5912   20.4418 C.ar    1  UNL1        0.1009
     28 C           7.8049   -4.2740   20.9787 C.3     1  UNL1        0.0051
     29 C           8.0007   -3.1005   20.0652 C.3     1  UNL1        0.0295
@<TRIPOS>BOND
     1    28    29    1
     2    29    22    1
     3    22    23   ar
     4    23    24   ar
     5    24    25   ar
     6    25    21    1
     7    21     1    1
     8     1     2   ar
     9     2     3   ar
    10     3     4   ar
    11     4     8    1
    12     8     9   am
    13     9    10    2
    14     9    12    1
    15    12    13   ar
    16    13    14   ar
    17    14    15   ar
    18    15    16   ar
    19    16    17   ar
    20    17    18    1
    21     4     5   ar
    22     5     6   ar
    23     6     7    1
    24    25    26   ar
    25    26    27   ar
    26    27    22   ar
    27     6     1   ar
    28    17    12   ar
    29     8    11    1
    30    18    19    1
    31    18    20    1
@<TRIPOS>MOLECULE
*****
 29 31 0 0 0
SMALL
GASTEIGER

@<TRIPOS>ATOM
      1 C           7.3999   -3.7586   31.5243 C.ar    1  UNL1        0.1592
      2 C           6.1932   -3.8967   32.4047 C.ar    1  UNL1        0.0398
      3 C           5.3773   -2.6875   32.7539 C.ar    1  UNL1        0.0179
      4 C           5.7680   -1.3401   32.2229 C.ar    1  UNL1        0.0516
      5 C           6.9746   -1.2020   31.3426 C.ar    1  UNL1        0.0292
      6 C           7.7906   -2.4113   30.9933 C.ar    1  UNL1        0.0934
      7 CL          8.9972   -2.2732   30.1130 Cl      1  UNL1       -0.0790
      8 N           4.9520   -0.1308   32.5722 N.am    1  UNL1       -0.2791
      9 C           3.5211   -0.0389   32.1320 C.2     1  UNL1        0.2685
     10 O           2.9060   -1.1562   31.3424 O.2     1  UNL1       -0.2681
     11 H           5.3557    0.6025   33.0904 H       1  UNL1        0.1552
     12 C           2.7052    1.1703   32.4813 C.ar    1  UNL1        0.1475
     13 N           2.8967    1.8473   33.8061 N.ar    1  UNL1       -0.2380
     14 C           2.0809    3.0565   34.1554 C.ar    1  UNL1        0.0991
     15 C           1.0734    3.5889   33.1799 C.ar    1  UNL1        0.0219
     16 C           0.8818    2.9120   31.8551 C.ar    1  UNL1        0.0174
     17 C           1.6977    1.7027   31.5058 C.ar    1  UNL1        0.0640
     18 N           1.5061    1.0259   30.1810 N.pl3   1  UNL1       -0.3557
     19 H           0.8449    1.3753   29.5407 H       1  UNL1        0.1424
     20 H           2.0416    0.2322   29.9517 H       1  UNL1        0.1424
     21 O           8.2157   -4.9679   31.1751 O.3     1  UNL1       -0.4214
     22 C           7.6141   -7.0215   27.2165 C.ar    1  UNL1        0.0163
     23 C           6.7520   -5.8536   27.5942 C.ar    1  UNL1        0.1009
     24 N           6.9526   -5.1690   28.9137 N.ar    1  UNL1       -0.1927
     25 C           8.0152   -5.6524   29.8556 C.ar    1  UNL1        0.3246
     26 N           8.8773   -6.8203   29.4779 N.ar    1  UNL1       -0.1927
     27 C           8.6767   -7.5049   28.1583 C.ar    1  UNL1        0.1009
     28 C           8.4588   -7.5935   24.8271 C.3     1  UNL1        0.0051
     29 C           7.4135   -7.7061   25.8970 C.3     1  UNL1        0.0295
@<TRIPOS>BOND
     1    28    29    1
     2    29    22    1
     3    22    23   ar
     4    23    24   ar
     5    24    25   ar
     6    25    21    1
     7    21     1    1
     8     1     2   ar
     9     2     3   ar
    10     3     4   ar
    11     4     8    1
    12     8     9   am
    13     9    10    2
    14     9    12    1
    15    12    13   ar
    16    13    14   ar
    17    14    15   ar
    18    15    16   ar
    19    16    17   ar
    20    17    18    1
    21     4     5   ar
    22     5     6   ar
    23     6     7    1
    24    25    26   ar
    25    26    27   ar
    26    27    22   ar
    27     6     1   ar
    28    17    12   ar
    29     8    11    1
    30    18    19    1
    31    18    20    1
@<TRIPOS>MOLECULE
*****
 29 31 0 0 0
SMALL
GASTEIGER

@<TRIPOS>ATOM
      1 C           5.0741   -1.8823   20.6060 C.ar    1  UNL1        0.1592
      2 C           5.8421   -1.1101   21.6375 C.ar    1  UNL1        0.0398
      3 C           6.0902   -1.7077   22.9908 C.ar    1  UNL1        0.0179
      4 C           5.5703   -3.0774   23.3126 C.ar    1  UNL1        0.0516
      5 C           4.8023   -3.8496   22.2811 C.ar    1  UNL1        0.0292
      6 C           4.5542   -3.2520   20.9278 C.ar    1  UNL1        0.0934
      7 CL          3.7862   -4.0242   19.8964 Cl      1  UNL1       -0.0790
      8 N           5.8185   -3.6750   24.6659 N.am    1  UNL1       -0.2791
      9 C           6.9669   -4.6180   24.8703 C.2     1  UNL1        0.2685
     10 O           7.8673   -4.9634   23.7213 O.2     1  UNL1       -0.2681
     11 H           5.2276   -3.4482   25.4200 H       1  UNL1        0.1552
     12 C           7.2150   -5.2154   26.2235 C.ar    1  UNL1        0.1475
     13 N           6.9993   -4.3914   27.4583 N.ar    1  UNL1       -0.2380
     14 C           7.2473   -4.9889   28.8115 C.ar    1  UNL1        0.0991
     15 C           7.7112   -6.4104   28.9302 C.ar    1  UNL1        0.0219
     16 C           7.9269   -7.2345   27.6956 C.ar    1  UNL1        0.0174
     17 C           7.6789   -6.6370   26.3422 C.ar    1  UNL1        0.0640
     18 N           7.8946   -7.4610   25.1076 N.pl3   1  UNL1       -0.3557
     19 H           8.1990   -8.3940   25.1854 H       1  UNL1        0.1424
     20 H           7.7318   -7.0689   24.2193 H       1  UNL1        0.1424
     21 O           4.8260   -1.2847   19.2527 O.3     1  UNL1       -0.4214
     22 C           1.4617    1.6465   18.6699 C.ar    1  UNL1        0.0163
     23 C           2.8683    2.0420   18.3308 C.ar    1  UNL1        0.1009
     24 N           3.9897    1.0649   18.5250 N.ar    1  UNL1       -0.1927
     25 C           3.7046   -0.3077   19.0585 C.ar    1  UNL1        0.3246
     26 N           2.2980   -0.7032   19.3976 N.ar    1  UNL1       -0.1927
     27 C           1.1766    0.2739   19.2033 C.ar    1  UNL1        0.1009
     28 C           0.6395    4.0412   18.0873 C.3     1  UNL1        0.0051
     29 C           0.3403    2.6236   18.4756 C.3     1  UNL1        0.0295
@<TRIPOS>BOND
     1    28    29    1
     2    29    22    1
     3    22    23   ar
     4    23    24   ar
     5    24    25   ar
     6    25    21    1
     7    21     1    1
     8     1     2   ar
     9     2     3   ar
    10     3     4   ar
    11     4     8    1
    12     8     9   am
    13     9    10    2
    14     9    12    1
    15    12    13   ar
    16    13    14   ar
    17    14    15   ar
    18    15    16   ar
    19    16    17   ar
    20    17    18    1
    21     4     5   ar
    22     5     6   ar
    23     6     7    1
    24    25    26   ar
    25    26    27   ar
    26    27    22   ar
    27     6     1   ar
    28    17    12   ar
    29     8    11    1
    30    18    19    1
    31    18    20    1
@<TRIPOS>MOLECULE
*****
 29 31 0 0 0
SMALL
GASTEIGER

@<TRIPOS>ATOM
      1 C           5.4824   -0.8948   34.4671 C.ar    1  UNL1        0.1592
      2 C           4.4675   -1.8490   33.9109 C.ar    1  UNL1        0.0398
      3 C           4.5384   -2.2642   32.4713 C.ar    1  UNL1        0.0179
      4 C           5.6242   -1.7252   31.5878 C.ar    1  UNL1        0.0516
      5 C           6.6392   -0.7710   32.1440 C.ar    1  UNL1        0.0292
      6 C           6.5683   -0.3558   33.5837 C.ar    1  UNL1        0.0934
      7 CL          7.5832    0.5984   34.1399 Cl      1  UNL1       -0.0790
      8 N           5.6951   -2.1405   30.1482 N.am    1  UNL1       -0.2791
      9 C           6.6065   -3.2574   29.7337 C.2     1  UNL1        0.2685
     10 O           7.4470   -3.9592   30.7589 O.2     1  UNL1       -0.2681
     11 H           5.1435   -1.6799   29.4753 H       1  UNL1        0.1552
     12 C           6.6773   -3.6726   28.2941 C.ar    1  UNL1        0.1475
     13 N           6.6117   -2.6371   27.2108 N.ar    1  UNL1       -0.2380
     14 C           6.6825   -3.0523   25.7712 C.ar    1  UNL1        0.0991
     15 C           6.8190   -4.5029   25.4148 C.ar    1  UNL1        0.0219
     16 C           6.8846   -5.5384   26.4980 C.ar    1  UNL1        0.0174
     17 C           6.8138   -5.1232   27.9377 C.ar    1  UNL1        0.0640
     18 N           6.8795   -6.1587   29.0210 N.pl3   1  UNL1       -0.3557
     19 H           6.9690   -7.1108   28.7871 H       1  UNL1        0.1424
     20 H           6.8330   -5.8862   29.9659 H       1  UNL1        0.1424
     21 O           5.4115   -0.4796   35.9068 O.3     1  UNL1       -0.4214
     22 C           2.5274    2.7301   37.1834 C.ar    1  UNL1        0.0163
     23 C           3.1844    1.8595   38.2130 C.ar    1  UNL1        0.1009
     24 N           4.1458    0.7896   37.7875 N.ar    1  UNL1       -0.1927
     25 C           4.4502    0.5903   36.3323 C.ar    1  UNL1        0.3246
     26 N           3.7932    1.4610   35.3026 N.ar    1  UNL1       -0.1927
     27 C           2.8318    2.5309   35.7282 C.ar    1  UNL1        0.1009
     28 C           1.3234    4.9859   36.7230 C.3     1  UNL1        0.0051
     29 C           1.5661    3.8001   37.6089 C.3     1  UNL1        0.0295
@<TRIPOS>BOND
     1    28    29    1
     2    29    22    1
     3    22    23   ar
     4    23    24   ar
     5    24    25   ar
     6    25    21    1
     7    21     1    1
     8     1     2   ar
     9     2     3   ar
    10     3     4   ar
    11     4     8    1
    12     8     9   am
    13     9    10    2
    14     9    12    1
    15    12    13   ar
    16    13    14   ar
    17    14    15   ar
    18    15    16   ar
    19    16    17   ar
    20    17    18    1
    21     4     5   ar
    22     5     6   ar
    23     6     7    1
    24    25    26   ar
    25    26    27   ar
    26    27    22   ar
    27     6     1   ar
    28    17    12   ar
    29     8    11    1
    30    18    19    1
    31    18    20    1
@<TRIPOS>MOLECULE
*****
 29 31 0 0 0
SMALL
GASTEIGER

@<TRIPOS>ATOM
      1 C          -1.0596    2.8794   24.8618 C.ar    1  UNL1        0.1592
      2 C          -0.8139    3.3857   23.4713 C.ar    1  UNL1        0.0398
      3 C           0.1700    2.6859   22.5813 C.ar    1  UNL1        0.0179
      4 C           0.9081    1.4797   23.0816 C.ar    1  UNL1        0.0516
      5 C           0.6624    0.9735   24.4720 C.ar    1  UNL1        0.0292
      6 C          -0.3214    1.6733   25.3621 C.ar    1  UNL1        0.0934
      7 CL         -0.5671    1.1670   26.7525 Cl      1  UNL1       -0.0790
      8 N           1.8920    0.7799   22.1915 N.am    1  UNL1       -0.2791
      9 C           1.4176    0.0839   20.9504 C.2     1  UNL1        0.2685
     10 O          -0.0408    0.0876   20.5993 O.2     1  UNL1       -0.2681
     11 H           2.8492    0.7774   22.4219 H       1  UNL1        0.1552
     12 C           2.4014   -0.6159   20.0603 C.ar    1  UNL1        0.1475
     13 N           3.1147   -1.8418   20.5487 N.ar    1  UNL1       -0.2380
     14 C           4.0986   -2.5416   19.6587 C.ar    1  UNL1        0.0991
     15 C           4.3692   -2.0156   18.2802 C.ar    1  UNL1        0.0219
     16 C           3.6560   -0.7898   17.7919 C.ar    1  UNL1        0.0174
     17 C           2.6720   -0.0899   18.6819 C.ar    1  UNL1        0.0640
     18 N           1.9588    1.1359   18.1935 N.pl3   1  UNL1       -0.3557
     19 H           2.1364    1.4812   17.2888 H       1  UNL1        0.1424
     20 H           1.3130    1.5953   18.7777 H       1  UNL1        0.1424
     21 O          -2.0435    3.5793   25.7518 O.3     1  UNL1       -0.4214
     22 C          -6.2328    4.3545   24.3033 C.ar    1  UNL1        0.0163
     23 C          -5.7726    4.9296   25.6100 C.ar    1  UNL1        0.1009
     24 N          -4.3761    4.6712   26.0928 N.ar    1  UNL1       -0.1927
     25 C          -3.4399    3.8377   25.2690 C.ar    1  UNL1        0.3246
     26 N          -3.9001    3.2626   23.9623 N.ar    1  UNL1       -0.1927
     27 C          -5.2966    3.5211   23.4795 C.ar    1  UNL1        0.1009
     28 C          -8.4675    5.6680   24.4794 C.3     1  UNL1        0.0051
     29 C          -7.6293    4.6130   23.8205 C.3     1  UNL1        0.0295
@<TRIPOS>BOND
     1    28    29    1
     2    29    22    1
     3    22    23   ar
     4    23    24   ar
     5    24    25   ar
     6    25    21    1
     7    21     1    1
     8     1     2   ar
     9     2     3   ar
    10     3     4   ar
    11     4     8    1
    12     8     9   am
    13     9    10    2
    14     9    12    1
    15    12    13   ar
    16    13    14   ar
    17    14    15   ar
    18    15    16   ar
    19    16    17   ar
    20    17    18    1
    21     4     5   ar
    22     5     6   ar
    23     6     7    1
    24    25    26   ar
    25    26    27   ar
    26    27    22   ar
    27     6     1   ar
    28    17    12   ar
    29     8    11    1
    30    18    19    1
    31    18    20    1
