@<TRIPOS>MOLECULE
*****
 29 32 0 0 0
SMALL
GASTEIGER

@<TRIPOS>ATOM
      1 C           3.2155   -1.0986   22.2600 C.ar    1  UNL1       -0.0003
      2 C           3.8199   -2.1223   21.3454 C.ar    1  UNL1        0.0001
      3 C           4.8661   -3.0649   21.8619 C.ar    1  UNL1        0.0042
      4 C           5.3079   -2.9838   23.2931 C.ar    1  UNL1        0.0497
      5 C           4.7034   -1.9602   24.2077 C.ar    1  UNL1       -0.0161
      6 C           3.6572   -1.0175   23.6912 C.ar    1  UNL1       -0.0041
      7 C           5.1452   -1.8791   25.6389 C.3     1  UNL1        0.0480
      8 C           6.1914   -2.8217   26.1555 C.3     1  UNL1        0.0984
      9 N           6.7959   -3.8455   25.2408 N.am    1  UNL1       -0.2743
     10 C           6.3542   -3.9265   23.8096 C.2     1  UNL1        0.2488
     11 O           6.9586   -4.9502   22.8950 O.2     1  UNL1       -0.2699
     12 C           0.0767    1.7294   20.7105 C.ar    1  UNL1        0.0536
     13 C           0.3124    0.4191   20.0196 C.ar    1  UNL1        0.0045
     14 C           1.3587   -0.5236   20.5361 C.ar    1  UNL1        0.0001
     15 C           2.1692   -0.1559   21.7435 C.ar    1  UNL1       -0.0000
     16 C           1.9335    1.1544   22.4345 C.ar    1  UNL1        0.0001
     17 C           0.8872    2.0971   21.9180 C.ar    1  UNL1        0.0045
     18 C          -1.6804    4.5776   18.5773 C.3     1  UNL1        0.1152
     19 N          -0.6341    3.6349   19.0939 N.am    1  UNL1       -0.2726
     20 C           0.7475    3.6550   18.5101 C.3     1  UNL1        0.1152
     21 C          -0.9695    2.6721   20.1941 C.2     1  UNL1        0.2491
     22 O          -2.3511    2.6520   20.7778 O.2     1  UNL1       -0.2699
     23 C           7.8421   -4.7881   25.7573 C.3     1  UNL1        0.1110
     24 C           7.4389   -5.9886   26.5612 C.3     1  UNL1        0.0939
     25 N           7.4941   -5.9411   28.0594 N.3     1  UNL1       -0.2712
     26 C           8.5656   -6.5400   28.9216 C.3     1  UNL1        0.0722
     27 C           8.2212   -6.2553   30.3536 C.3     1  UNL1        0.0188
     28 C           6.9370   -5.4805   30.3763 C.3     1  UNL1        0.0188
     29 C           6.4877   -5.2863   28.9585 C.3     1  UNL1        0.0722
@<TRIPOS>BOND
     1    18    19    1
     2    19    20    1
     3    19    21   am
     4    21    22    2
     5    21    12    1
     6    12    13   ar
     7    13    14   ar
     8    14    15   ar
     9    15     1    1
    10     1     2   ar
    11     2     3   ar
    12     3     4   ar
    13     4     5   ar
    14     5     6   ar
    15     5     7    1
    16     7     8    1
    17     8     9    1
    18     9    23    1
    19    23    24    1
    20    24    25    1
    21    25    26    1
    22    26    27    1
    23    27    28    1
    24    28    29    1
    25     9    10   am
    26    10    11    2
    27    15    16   ar
    28    16    17   ar
    29    17    12   ar
    30     6     1   ar
    31    29    25    1
    32    10     4    1
@<TRIPOS>MOLECULE
*****
 29 32 0 0 0
SMALL
GASTEIGER

@<TRIPOS>ATOM
      1 C           6.3316   -3.5312   24.2618 C.ar    1  UNL1       -0.0003
      2 C           6.8707   -4.8899   24.5981 C.ar    1  UNL1        0.0001
      3 C           7.0967   -5.2737   26.0304 C.ar    1  UNL1        0.0042
      4 C           6.7836   -4.2987   27.1265 C.ar    1  UNL1        0.0497
      5 C           6.2446   -2.9399   26.7902 C.ar    1  UNL1       -0.0161
      6 C           6.0186   -2.5562   25.3579 C.ar    1  UNL1       -0.0041
      7 C           5.9315   -1.9649   27.8863 C.3     1  UNL1        0.0480
      8 C           6.1575   -2.3487   29.3186 C.3     1  UNL1        0.0984
      9 N           6.6966   -3.7075   29.6549 N.am    1  UNL1       -0.2743
     10 C           7.0097   -4.6825   28.5589 C.2     1  UNL1        0.2488
     11 O           7.5487   -6.0413   28.8951 O.2     1  UNL1       -0.2699
     12 C           5.6535   -2.3797   19.9647 C.ar    1  UNL1        0.0536
     13 C           6.6393   -1.6167   20.7990 C.ar    1  UNL1        0.0045
     14 C           6.8653   -2.0005   22.2314 C.ar    1  UNL1        0.0001
     15 C           6.1056   -3.1473   22.8294 C.ar    1  UNL1       -0.0000
     16 C           5.1199   -3.9104   21.9951 C.ar    1  UNL1        0.0001
     17 C           4.8938   -3.5266   20.5628 C.ar    1  UNL1        0.0045
     18 C           3.9839   -0.8235   16.7181 C.3     1  UNL1        0.1152
     19 N           4.2101   -1.2074   18.1505 N.am    1  UNL1       -0.2726
     20 C           3.2187   -0.8025   19.2008 C.3     1  UNL1        0.1152
     21 C           5.4275   -1.9960   18.5324 C.2     1  UNL1        0.2491
     22 O           6.4188   -2.4008   17.4820 O.2     1  UNL1       -0.2699
     23 C           6.9226   -4.0913   31.0872 C.3     1  UNL1        0.1110
     24 C           7.3721   -3.0590   32.0783 C.3     1  UNL1        0.0939
     25 N           6.3577   -2.2781   32.8602 N.3     1  UNL1       -0.2712
     26 C           4.9146   -2.6434   33.0441 C.3     1  UNL1        0.0722
     27 C           4.2732   -1.5859   33.8929 C.3     1  UNL1        0.0188
     28 C           5.3201   -0.5670   34.2336 C.3     1  UNL1        0.0188
     29 C           6.6084   -0.9948   33.5953 C.3     1  UNL1        0.0722
@<TRIPOS>BOND
     1    18    19    1
     2    19    20    1
     3    19    21   am
     4    21    22    2
     5    21    12    1
     6    12    13   ar
     7    13    14   ar
     8    14    15   ar
     9    15     1    1
    10     1     2   ar
    11     2     3   ar
    12     3     4   ar
    13     4     5   ar
    14     5     6   ar
    15     5     7    1
    16     7     8    1
    17     8     9    1
    18     9    23    1
    19    23    24    1
    20    24    25    1
    21    25    26    1
    22    26    27    1
    23    27    28    1
    24    28    29    1
    25     9    10   am
    26    10    11    2
    27    15    16   ar
    28    16    17   ar
    29    17    12   ar
    30     6     1   ar
    31    29    25    1
    32    10     4    1
@<TRIPOS>MOLECULE
*****
 29 32 0 0 0
SMALL
GASTEIGER

@<TRIPOS>ATOM
      1 C           1.2136    2.1513   30.4396 C.ar    1  UNL1       -0.0003
      2 C           2.1127    0.9549   30.5411 C.ar    1  UNL1        0.0001
      3 C           2.8607    0.6847   31.8129 C.ar    1  UNL1        0.0042
      4 C           2.7095    1.6107   32.9832 C.ar    1  UNL1        0.0497
      5 C           1.8104    2.8071   32.8817 C.ar    1  UNL1       -0.0161
      6 C           1.0625    3.0773   31.6099 C.ar    1  UNL1       -0.0041
      7 C           1.6593    3.7331   34.0520 C.3     1  UNL1        0.0480
      8 C           2.4073    3.4628   35.3237 C.3     1  UNL1        0.0984
      9 N           3.3064    2.2664   35.4253 N.am    1  UNL1       -0.2743
     10 C           3.4576    1.3404   34.2550 C.2     1  UNL1        0.2488
     11 O           4.3567    0.1440   34.3565 O.2     1  UNL1       -0.2699
     12 C          -1.0304    2.9623   26.6242 C.ar    1  UNL1        0.0536
     13 C          -0.9951    1.5748   27.1931 C.ar    1  UNL1        0.0045
     14 C          -0.2471    1.3045   28.4649 C.ar    1  UNL1        0.0001
     15 C           0.4656    2.4216   29.1678 C.ar    1  UNL1       -0.0000
     16 C           0.4302    3.8091   28.5990 C.ar    1  UNL1        0.0001
     17 C          -0.3178    4.0795   27.3272 C.ar    1  UNL1        0.0045
     18 C          -3.9513    3.9690   24.1332 C.3     1  UNL1        0.1152
     19 N          -3.2032    3.6986   25.4050 N.am    1  UNL1       -0.2726
     20 C          -3.8800    3.8942   26.7293 C.3     1  UNL1        0.1152
     21 C          -1.7784    3.2327   25.3525 C.2     1  UNL1        0.2491
     22 O          -1.1016    3.0372   24.0282 O.2     1  UNL1       -0.2699
     23 C           4.0544    1.9962   36.6970 C.3     1  UNL1        0.1110
     24 C           3.5847    0.9186   37.6288 C.3     1  UNL1        0.0939
     25 N           2.4252    1.1729   38.5459 N.3     1  UNL1       -0.2712
     26 C           1.6519    0.1314   39.2990 C.3     1  UNL1        0.0722
     27 C           0.5841    0.8282   40.0894 C.3     1  UNL1        0.0188
     28 C           0.6977    2.3003   39.8246 C.3     1  UNL1        0.0188
     29 C           1.8355    2.5133   38.8707 C.3     1  UNL1        0.0722
@<TRIPOS>BOND
     1    18    19    1
     2    19    20    1
     3    19    21   am
     4    21    22    2
     5    21    12    1
     6    12    13   ar
     7    13    14   ar
     8    14    15   ar
     9    15     1    1
    10     1     2   ar
    11     2     3   ar
    12     3     4   ar
    13     4     5   ar
    14     5     6   ar
    15     5     7    1
    16     7     8    1
    17     8     9    1
    18     9    23    1
    19    23    24    1
    20    24    25    1
    21    25    26    1
    22    26    27    1
    23    27    28    1
    24    28    29    1
    25     9    10   am
    26    10    11    2
    27    15    16   ar
    28    16    17   ar
    29    17    12   ar
    30     6     1   ar
    31    29    25    1
    32    10     4    1
@<TRIPOS>MOLECULE
*****
 29 32 0 0 0
SMALL
GASTEIGER

@<TRIPOS>ATOM
      1 C         -14.6366   -0.8956   19.2145 C.ar    1  UNL1       -0.0003
      2 C         -14.0578    0.3021   18.5214 C.ar    1  UNL1        0.0001
      3 C         -14.7347    1.6356   18.6375 C.ar    1  UNL1        0.0042
      4 C         -15.9904    1.7713   19.4467 C.ar    1  UNL1        0.0497
      5 C         -16.5692    0.5736   20.1398 C.ar    1  UNL1       -0.0161
      6 C         -15.8923   -0.7599   20.0237 C.ar    1  UNL1       -0.0041
      7 C         -17.8249    0.7094   20.9490 C.3     1  UNL1        0.0480
      8 C         -18.5018    2.0428   21.0651 C.3     1  UNL1        0.0984
      9 N         -17.9231    3.2407   20.3720 N.am    1  UNL1       -0.2743
     10 C         -16.6674    3.1049   19.5628 C.2     1  UNL1        0.2488
     11 O         -16.0886    4.3027   18.8697 O.2     1  UNL1       -0.2699
     12 C         -12.6058   -4.8963   18.8661 C.ar    1  UNL1        0.0536
     13 C         -13.1819   -4.4595   20.1804 C.ar    1  UNL1        0.0045
     14 C         -13.8588   -3.1260   20.2965 C.ar    1  UNL1        0.0001
     15 C         -13.9597   -2.2292   19.0984 C.ar    1  UNL1       -0.0000
     16 C         -13.3836   -2.6660   17.7841 C.ar    1  UNL1        0.0001
     17 C         -12.7067   -3.9995   17.6679 C.ar    1  UNL1        0.0045
     18 C          -9.7632   -7.6646   18.7868 C.3     1  UNL1        0.1152
     19 N         -10.4402   -6.3310   18.9029 N.am    1  UNL1       -0.2726
     20 C          -9.6284   -5.0987   19.1720 C.3     1  UNL1        0.1152
     21 C         -11.9289   -6.2298   18.7500 C.2     1  UNL1        0.2491
     22 O         -12.7407   -7.4621   18.4809 O.2     1  UNL1       -0.2699
     23 C         -18.6000    4.5742   20.4881 C.3     1  UNL1        0.1110
     24 C         -18.3333    5.4497   21.6765 C.3     1  UNL1        0.0939
     25 N         -17.1618    5.1659   22.5694 N.3     1  UNL1       -0.2712
     26 C         -17.2127    4.4643   23.8942 C.3     1  UNL1        0.0722
     27 C         -15.8162    4.3986   24.4379 C.3     1  UNL1        0.0188
     28 C         -14.9022    5.0595   23.4489 C.3     1  UNL1        0.0188
     29 C         -15.7339    5.5337   22.2941 C.3     1  UNL1        0.0722
@<TRIPOS>BOND
     1    18    19    1
     2    19    20    1
     3    19    21   am
     4    21    22    2
     5    21    12    1
     6    12    13   ar
     7    13    14   ar
     8    14    15   ar
     9    15     1    1
    10     1     2   ar
    11     2     3   ar
    12     3     4   ar
    13     4     5   ar
    14     5     6   ar
    15     5     7    1
    16     7     8    1
    17     8     9    1
    18     9    23    1
    19    23    24    1
    20    24    25    1
    21    25    26    1
    22    26    27    1
    23    27    28    1
    24    28    29    1
    25     9    10   am
    26    10    11    2
    27    15    16   ar
    28    16    17   ar
    29    17    12   ar
    30     6     1   ar
    31    29    25    1
    32    10     4    1
@<TRIPOS>MOLECULE
*****
 29 32 0 0 0
SMALL
GASTEIGER

@<TRIPOS>ATOM
      1 C           5.3508   -0.9618   32.8733 C.ar    1  UNL1       -0.0003
      2 C           5.5677   -0.2721   31.5590 C.ar    1  UNL1        0.0001
      3 C           6.1146   -1.0384   30.3913 C.ar    1  UNL1        0.0042
      4 C           6.4446   -2.4943   30.5377 C.ar    1  UNL1        0.0497
      5 C           6.2277   -3.1839   31.8520 C.ar    1  UNL1       -0.0161
      6 C           5.6808   -2.4177   33.0197 C.ar    1  UNL1       -0.0041
      7 C           6.5576   -4.6399   31.9984 C.3     1  UNL1        0.0480
      8 C           7.1045   -5.4061   30.8306 C.3     1  UNL1        0.0984
      9 N           7.3215   -4.7164   29.5163 N.am    1  UNL1       -0.2743
     10 C           6.9915   -3.2605   29.3699 C.2     1  UNL1        0.2488
     11 O           7.2084   -2.5709   28.0556 O.2     1  UNL1       -0.2699
     12 C           3.7101    1.3369   36.3768 C.ar    1  UNL1        0.0536
     13 C           4.5608    0.1234   36.6081 C.ar    1  UNL1        0.0045
     14 C           5.1077   -0.6429   35.4402 C.ar    1  UNL1        0.0001
     15 C           4.8039   -0.1956   34.0411 C.ar    1  UNL1       -0.0000
     16 C           3.9531    1.0180   33.8098 C.ar    1  UNL1        0.0001
     17 C           3.4062    1.7842   34.9776 C.ar    1  UNL1        0.0045
     18 C           3.4630    3.9030   39.3940 C.3     1  UNL1        0.1152
     19 N           4.0099    3.1367   38.2262 N.am    1  UNL1       -0.2726
     20 C           5.4035    3.4041   37.7401 C.3     1  UNL1        0.1152
     21 C           3.1632    2.1032   37.5445 C.2     1  UNL1        0.2491
     22 O           1.7695    1.8358   38.0307 O.2     1  UNL1       -0.2699
     23 C           7.8684   -5.4827   28.3486 C.3     1  UNL1        0.1110
     24 C           6.9441   -5.9714   27.2730 C.3     1  UNL1        0.0939
     25 N           7.4756   -6.2553   25.8993 N.3     1  UNL1       -0.2712
     26 C           7.6745   -5.2483   24.8055 C.3     1  UNL1        0.0722
     27 C           8.2233   -5.9667   23.6084 C.3     1  UNL1        0.0188
     28 C           8.3635   -7.4176   23.9625 C.3     1  UNL1        0.0188
     29 C           7.9013   -7.5959   25.3783 C.3     1  UNL1        0.0722
@<TRIPOS>BOND
     1    18    19    1
     2    19    20    1
     3    19    21   am
     4    21    22    2
     5    21    12    1
     6    12    13   ar
     7    13    14   ar
     8    14    15   ar
     9    15     1    1
    10     1     2   ar
    11     2     3   ar
    12     3     4   ar
    13     4     5   ar
    14     5     6   ar
    15     5     7    1
    16     7     8    1
    17     8     9    1
    18     9    23    1
    19    23    24    1
    20    24    25    1
    21    25    26    1
    22    26    27    1
    23    27    28    1
    24    28    29    1
    25     9    10   am
    26    10    11    2
    27    15    16   ar
    28    16    17   ar
    29    17    12   ar
    30     6     1   ar
    31    29    25    1
    32    10     4    1
@<TRIPOS>MOLECULE
*****
 29 32 0 0 0
SMALL
GASTEIGER

@<TRIPOS>ATOM
      1 C           0.3192    1.5802   22.4677 C.ar    1  UNL1       -0.0003
      2 C          -0.4417    2.5767   21.6443 C.ar    1  UNL1        0.0001
      3 C          -1.3444    3.5699   22.3141 C.ar    1  UNL1        0.0042
      4 C          -1.4862    3.5665   23.8074 C.ar    1  UNL1        0.0497
      5 C          -0.7254    2.5700   24.6308 C.ar    1  UNL1       -0.0161
      6 C           0.1773    1.5769   23.9609 C.ar    1  UNL1       -0.0041
      7 C          -0.8673    2.5667   26.1241 C.3     1  UNL1        0.0480
      8 C          -1.7700    3.5598   26.7939 C.3     1  UNL1        0.0984
      9 N          -2.5309    4.5564   25.9705 N.am    1  UNL1       -0.2743
     10 C          -2.3890    4.5597   24.4772 C.2     1  UNL1        0.2488
     11 O          -3.1499    5.5562   23.6538 O.2     1  UNL1       -0.2699
     12 C           3.0274   -1.3993   20.4581 C.ar    1  UNL1        0.0536
     13 C           3.3955   -0.8362   21.7988 C.ar    1  UNL1        0.0045
     14 C           2.4928    0.1570   22.4686 C.ar    1  UNL1        0.0001
     15 C           1.2220    0.5870   21.7978 C.ar    1  UNL1       -0.0000
     16 C           0.8538    0.0239   20.4572 C.ar    1  UNL1        0.0001
     17 C           1.7565   -0.9692   19.7873 C.ar    1  UNL1        0.0045
     18 C           5.9569   -2.9090   18.2471 C.3     1  UNL1        0.1152
     19 N           5.0542   -1.9158   18.9170 N.am    1  UNL1       -0.2726
     20 C           5.2755   -0.4460   18.7155 C.3     1  UNL1        0.1152
     21 C           3.9301   -2.3925   19.7883 C.2     1  UNL1        0.2491
     22 O           3.7088   -3.8623   19.9898 O.2     1  UNL1       -0.2699
     23 C          -3.4336    5.5495   26.6403 C.3     1  UNL1        0.1110
     24 C          -4.8075    5.1375   27.0792 C.3     1  UNL1        0.0939
     25 N          -5.9713    5.2934   26.1457 N.3     1  UNL1       -0.2712
     26 C          -7.1174    6.2459   26.3170 C.3     1  UNL1        0.0722
     27 C          -8.0477    6.0654   25.1542 C.3     1  UNL1        0.0188
     28 C          -7.4765    5.0014   24.2643 C.3     1  UNL1        0.0188
     29 C          -6.1932    4.5243   24.8772 C.3     1  UNL1        0.0722
@<TRIPOS>BOND
     1    18    19    1
     2    19    20    1
     3    19    21   am
     4    21    22    2
     5    21    12    1
     6    12    13   ar
     7    13    14   ar
     8    14    15   ar
     9    15     1    1
    10     1     2   ar
    11     2     3   ar
    12     3     4   ar
    13     4     5   ar
    14     5     6   ar
    15     5     7    1
    16     7     8    1
    17     8     9    1
    18     9    23    1
    19    23    24    1
    20    24    25    1
    21    25    26    1
    22    26    27    1
    23    27    28    1
    24    28    29    1
    25     9    10   am
    26    10    11    2
    27    15    16   ar
    28    16    17   ar
    29    17    12   ar
    30     6     1   ar
    31    29    25    1
    32    10     4    1
@<TRIPOS>MOLECULE
*****
 29 32 0 0 0
SMALL
GASTEIGER

@<TRIPOS>ATOM
      1 C           2.7925   -0.8713   21.3584 C.ar    1  UNL1       -0.0003
      2 C           3.3326   -1.6048   20.1667 C.ar    1  UNL1        0.0001
      3 C           4.4276   -2.6150   20.3409 C.ar    1  UNL1        0.0042
      4 C           4.9825   -2.8917   21.7067 C.ar    1  UNL1        0.0497
      5 C           4.4424   -2.1581   22.8984 C.ar    1  UNL1       -0.0161
      6 C           3.3474   -1.1479   22.7242 C.ar    1  UNL1       -0.0041
      7 C           4.9973   -2.4347   24.2643 C.3     1  UNL1        0.0480
      8 C           6.0923   -3.4449   24.4384 C.3     1  UNL1        0.0984
      9 N           6.6325   -4.1785   23.2467 N.am    1  UNL1       -0.2743
     10 C           6.0776   -3.9019   21.8809 C.2     1  UNL1        0.2488
     11 O           6.6177   -4.6355   20.6892 O.2     1  UNL1       -0.2699
     12 C          -0.4927    2.1595   20.8360 C.ar    1  UNL1        0.0536
     13 C          -0.0164    1.3595   19.6599 C.ar    1  UNL1        0.0045
     14 C           1.0787    0.3492   19.8341 C.ar    1  UNL1        0.0001
     15 C           1.6974    0.1390   21.1842 C.ar    1  UNL1       -0.0000
     16 C           1.2211    0.9390   22.3603 C.ar    1  UNL1        0.0001
     17 C           0.1260    1.9492   22.1862 C.ar    1  UNL1        0.0045
     18 C          -2.3443    5.6039   20.1597 C.3     1  UNL1        0.1152
     19 N          -1.2492    4.5936   20.3338 N.am    1  UNL1       -0.2726
     20 C           0.1844    5.0074   20.1798 C.3     1  UNL1        0.1152
     21 C          -1.5877    3.1697   20.6619 C.2     1  UNL1        0.2491
     22 O          -3.0213    2.7559   20.8160 O.2     1  UNL1       -0.2699
     23 C           7.7275   -5.1887   23.4209 C.3     1  UNL1        0.1110
     24 C           8.5879   -5.1580   24.6492 C.3     1  UNL1        0.0939
     25 N           8.4862   -6.2581   25.6639 N.3     1  UNL1       -0.2712
     26 C           8.0403   -6.1055   27.0879 C.3     1  UNL1        0.0722
     27 C           8.0911   -7.4571   27.7368 C.3     1  UNL1        0.0188
     28 C           8.5684   -8.4448   26.7137 C.3     1  UNL1        0.0188
     29 C           8.8126   -7.7038   25.4326 C.3     1  UNL1        0.0722
@<TRIPOS>BOND
     1    18    19    1
     2    19    20    1
     3    19    21   am
     4    21    22    2
     5    21    12    1
     6    12    13   ar
     7    13    14   ar
     8    14    15   ar
     9    15     1    1
    10     1     2   ar
    11     2     3   ar
    12     3     4   ar
    13     4     5   ar
    14     5     6   ar
    15     5     7    1
    16     7     8    1
    17     8     9    1
    18     9    23    1
    19    23    24    1
    20    24    25    1
    21    25    26    1
    22    26    27    1
    23    27    28    1
    24    28    29    1
    25     9    10   am
    26    10    11    2
    27    15    16   ar
    28    16    17   ar
    29    17    12   ar
    30     6     1   ar
    31    29    25    1
    32    10     4    1
@<TRIPOS>MOLECULE
*****
 29 32 0 0 0
SMALL
GASTEIGER

@<TRIPOS>ATOM
      1 C           6.5055   -3.1722   31.5477 C.ar    1  UNL1       -0.0003
      2 C           6.8323   -4.6002   31.8698 C.ar    1  UNL1        0.0001
      3 C           7.3289   -5.5174   30.7918 C.ar    1  UNL1        0.0042
      4 C           7.4989   -5.0065   29.3918 C.ar    1  UNL1        0.0497
      5 C           7.1721   -3.5784   29.0697 C.ar    1  UNL1       -0.0161
      6 C           6.6755   -2.6612   30.1477 C.ar    1  UNL1       -0.0041
      7 C           7.3420   -3.0674   27.6697 C.3     1  UNL1        0.0480
      8 C           7.8387   -3.9846   26.5917 C.3     1  UNL1        0.0984
      9 N           8.1655   -5.4128   26.9137 N.am    1  UNL1       -0.2743
     10 C           7.9956   -5.9237   28.3137 C.2     1  UNL1        0.2488
     11 O           8.3223   -7.3518   28.6358 O.2     1  UNL1       -0.2699
     12 C           5.0155   -0.4205   34.7817 C.ar    1  UNL1        0.0536
     13 C           4.1672   -1.5704   34.3258 C.ar    1  UNL1        0.0045
     14 C           4.6639   -2.4877   33.2477 C.ar    1  UNL1        0.0001
     15 C           6.0089   -2.2549   32.6258 C.ar    1  UNL1       -0.0000
     16 C           6.8572   -1.1049   33.0817 C.ar    1  UNL1        0.0001
     17 C           6.3605   -0.1877   34.1597 C.ar    1  UNL1        0.0045
     18 C           3.0749    2.5263   36.5983 C.3     1  UNL1        0.1152
     19 N           3.5715    1.6091   35.5203 N.am    1  UNL1       -0.2726
     20 C           3.1208    1.8041   34.1030 C.3     1  UNL1        0.1152
     21 C           4.5189    0.4968   35.8597 C.2     1  UNL1        0.2491
     22 O           4.9697    0.3017   37.2770 O.2     1  UNL1       -0.2699
     23 C           8.6621   -6.3299   25.8357 C.3     1  UNL1        0.1110
     24 C           7.8186   -6.5872   24.6223 C.3     1  UNL1        0.0939
     25 N           8.0164   -5.7650   23.3834 N.3     1  UNL1       -0.2712
     26 C           8.9847   -6.0583   22.2759 C.3     1  UNL1        0.0722
     27 C           8.8473   -4.9798   21.2424 C.3     1  UNL1        0.0188
     28 C           7.7941   -4.0200   21.7112 C.3     1  UNL1        0.0188
     29 C           7.2806   -4.5053   23.0344 C.3     1  UNL1        0.0722
@<TRIPOS>BOND
     1    18    19    1
     2    19    20    1
     3    19    21   am
     4    21    22    2
     5    21    12    1
     6    12    13   ar
     7    13    14   ar
     8    14    15   ar
     9    15     1    1
    10     1     2   ar
    11     2     3   ar
    12     3     4   ar
    13     4     5   ar
    14     5     6   ar
    15     5     7    1
    16     7     8    1
    17     8     9    1
    18     9    23    1
    19    23    24    1
    20    24    25    1
    21    25    26    1
    22    26    27    1
    23    27    28    1
    24    28    29    1
    25     9    10   am
    26    10    11    2
    27    15    16   ar
    28    16    17   ar
    29    17    12   ar
    30     6     1   ar
    31    29    25    1
    32    10     4    1
@<TRIPOS>MOLECULE
*****
 29 32 0 0 0
SMALL
GASTEIGER

@<TRIPOS>ATOM
      1 C           3.2063   -0.3269   25.1767 C.ar    1  UNL1       -0.0003
      2 C           2.4804    0.4842   24.1446 C.ar    1  UNL1        0.0001
      3 C           2.5018    0.0597   22.7061 C.ar    1  UNL1        0.0042
      4 C           3.2491   -1.1758   22.2997 C.ar    1  UNL1        0.0497
      5 C           3.9749   -1.9868   23.3318 C.ar    1  UNL1       -0.0161
      6 C           3.9535   -1.5624   24.7703 C.ar    1  UNL1       -0.0041
      7 C           4.7222   -3.2223   22.9254 C.3     1  UNL1        0.0480
      8 C           4.7436   -3.6468   21.4869 C.3     1  UNL1        0.0984
      9 N           4.0177   -2.8357   20.4547 N.am    1  UNL1       -0.2743
     10 C           3.2704   -1.6002   20.8611 C.2     1  UNL1        0.2488
     11 O           2.5446   -0.7892   19.8290 O.2     1  UNL1       -0.2699
     12 C           3.1422    0.9464   29.4924 C.ar    1  UNL1        0.0536
     13 C           3.2462    1.9773   28.4078 C.ar    1  UNL1        0.0045
     14 C           3.2676    1.5528   26.9692 C.ar    1  UNL1        0.0001
     15 C           3.1849    0.0975   26.6153 C.ar    1  UNL1       -0.0000
     16 C           3.0809   -0.9334   27.6999 C.ar    1  UNL1        0.0001
     17 C           3.0596   -0.5090   29.1384 C.ar    1  UNL1        0.0045
     18 C           1.8139    2.2407   33.0010 C.3     1  UNL1        0.1152
     19 N           1.8353    1.8163   31.5624 N.am    1  UNL1       -0.2726
     20 C           0.5711    1.8376   30.7553 C.3     1  UNL1        0.1152
     21 C           3.1209    1.3707   30.9309 C.2     1  UNL1        0.2491
     22 O           4.3850    1.3495   31.7380 O.2     1  UNL1       -0.2699
     23 C           4.0391   -3.2602   19.0162 C.3     1  UNL1        0.1110
     24 C           5.2720   -3.0459   18.1892 C.3     1  UNL1        0.0939
     25 N           5.6892   -1.6555   17.8112 N.3     1  UNL1       -0.2712
     26 C           4.8274   -0.6289   17.1378 C.3     1  UNL1        0.0722
     27 C           5.6469    0.6135   16.9505 C.3     1  UNL1        0.0188
     28 C           7.0152    0.3546   17.5082 C.3     1  UNL1        0.0188
     29 C           7.0412   -1.0477   18.0401 C.3     1  UNL1        0.0722
@<TRIPOS>BOND
     1    18    19    1
     2    19    20    1
     3    19    21   am
     4    21    22    2
     5    21    12    1
     6    12    13   ar
     7    13    14   ar
     8    14    15   ar
     9    15     1    1
    10     1     2   ar
    11     2     3   ar
    12     3     4   ar
    13     4     5   ar
    14     5     6   ar
    15     5     7    1
    16     7     8    1
    17     8     9    1
    18     9    23    1
    19    23    24    1
    20    24    25    1
    21    25    26    1
    22    26    27    1
    23    27    28    1
    24    28    29    1
    25     9    10   am
    26    10    11    2
    27    15    16   ar
    28    16    17   ar
    29    17    12   ar
    30     6     1   ar
    31    29    25    1
    32    10     4    1
