@<TRIPOS>MOLECULE
*****
 42 47 0 0 0
SMALL
GASTEIGER

@<TRIPOS>ATOM
      1 C           3.2830   -0.3270   30.5266 C.2     1  UNL1        0.2252
      2 O           1.8516    0.1169   30.4637 O.2     1  UNL1       -0.2749
      3 N           3.9455   -0.8973   29.3076 N.am    1  UNL1       -0.2794
      4 C           3.1767   -1.0237   28.0259 C.3     1  UNL1        0.0953
      5 C           3.8392   -1.5939   26.8070 C.3     1  UNL1        0.0442
      6 C           5.2707   -2.0379   26.8698 C.3     1  UNL1        0.0933
      7 C           6.0395   -1.9115   28.1515 C.3     1  UNL1        0.0442
      8 C           5.3770   -1.3412   29.3704 C.3     1  UNL1        0.0953
      9 N           5.9332   -2.6082   25.6508 N.ar    1  UNL1       -0.2817
     10 C           6.0767   -1.9240   24.3237 C.ar    1  UNL1        0.3315
     11 O           5.5829   -0.5493   23.9825 O.2     1  UNL1       -0.2463
     12 N           6.8007   -2.8558   23.3977 N.ar    1  UNL1       -0.2799
     13 C           7.1047   -4.1159   24.1525 C.ar    1  UNL1        0.0819
     14 C           7.8004   -5.3829   23.7517 C.ar    1  UNL1        0.0484
     15 C           7.9600   -6.4969   24.7434 C.ar    1  UNL1        0.1417
     16 F           8.6557   -7.7639   24.3426 F       1  UNL1       -0.2041
     17 C           7.4238   -6.3439   26.1359 C.ar    1  UNL1        0.0312
     18 C           6.7281   -5.0769   26.5367 C.ar    1  UNL1        0.0211
     19 C           6.5685   -3.9629   25.5450 C.ar    1  UNL1        0.0798
     20 C           7.1581   -2.5765   21.9679 C.3     1  UNL1        0.1105
     21 C           6.2240   -2.9856   20.8677 C.3     1  UNL1        0.0228
     22 C           5.0122   -3.8121   21.1813 C.3     1  UNL1        0.0019
     23 C           4.0782   -4.2211   20.0812 C.3     1  UNL1        0.0001
     24 C           4.3560   -3.8036   18.6675 C.3     1  UNL1        0.0000
     25 C           5.5678   -2.9771   18.3540 C.3     1  UNL1        0.0001
     26 C           6.5019   -2.5681   19.4540 C.3     1  UNL1        0.0019
     27 N           5.5897    0.0520   34.3718 N.3     1  UNL1       -0.2689
     28 C           5.4741    1.2278   33.4474 C.3     1  UNL1        0.0729
     29 C           4.7052    1.1015   32.1657 C.3     1  UNL1        0.0264
     30 C           4.0519   -0.2007   31.8083 C.3     1  UNL1        0.0795
     31 C           4.1674   -1.3764   32.7326 C.3     1  UNL1        0.0264
     32 C           4.9363   -1.2500   34.0143 C.3     1  UNL1        0.0729
     33 C           6.3586    0.1784   35.6535 C.3     1  UNL1        0.0993
     34 N           2.2867    0.6170   38.8515 N.pl3   1  UNL1       -0.3426
     35 C           3.6772    1.0174   38.4563 C.ar    1  UNL1        0.1251
     36 C           4.3227    0.3977   37.2525 C.ar    1  UNL1        0.0310
     37 C           5.7132    0.7982   36.8573 C.ar    1  UNL1       -0.0018
     38 C           6.4582    1.8185   37.6660 C.ar    1  UNL1        0.0179
     39 C           5.8127    2.4382   38.8698 C.ar    1  UNL1        0.1000
     40 N           4.4222    2.0377   39.2650 N.ar    1  UNL1       -0.2296
     41 H           1.7977   -0.0527   38.3208 H       1  UNL1        0.1437
     42 H           1.8631    1.0238   39.6417 H       1  UNL1        0.1437
@<TRIPOS>BOND
     1    34    35    1
     2    35    36   ar
     3    36    37   ar
     4    37    33    1
     5    33    27    1
     6    27    28    1
     7    28    29    1
     8    29    30    1
     9    30     1    1
    10     1     2    2
    11     1     3   am
    12     3     4    1
    13     4     5    1
    14     5     6    1
    15     6     9    1
    16     9    10   ar
    17    10    11    2
    18    10    12   ar
    19    12    20    1
    20    20    21    1
    21    21    22    1
    22    22    23    1
    23    23    24    1
    24    24    25    1
    25    25    26    1
    26    12    13   ar
    27    13    14   ar
    28    14    15   ar
    29    15    16    1
    30    15    17   ar
    31    17    18   ar
    32    18    19   ar
    33     6     7    1
    34     7     8    1
    35    30    31    1
    36    31    32    1
    37    37    38   ar
    38    38    39   ar
    39    39    40   ar
    40    40    35   ar
    41    32    27    1
    42     8     3    1
    43    19     9   ar
    44    26    21    1
    45    19    13   ar
    46    34    41    1
    47    34    42    1
@<TRIPOS>MOLECULE
*****
 42 47 0 0 0
SMALL
GASTEIGER

@<TRIPOS>ATOM
      1 C           6.6317   -3.6155   31.5254 C.2     1  UNL1        0.2252
      2 O           6.9115   -5.0160   31.9836 O.2     1  UNL1       -0.2749
      3 N           6.4437   -3.3276   30.0653 N.am    1  UNL1       -0.2794
      4 C           6.5356   -4.4402   29.0636 C.3     1  UNL1        0.0953
      5 C           6.3477   -4.1523   27.6035 C.3     1  UNL1        0.0442
      6 C           6.0678   -2.7517   27.1452 C.3     1  UNL1        0.0933
      7 C           5.9760   -1.6391   28.1469 C.3     1  UNL1        0.0442
      8 C           6.1639   -1.9270   29.6070 C.3     1  UNL1        0.0953
      9 N           5.8798   -2.4638   25.6851 N.ar    1  UNL1       -0.2817
     10 C           6.7599   -2.9472   24.5707 C.ar    1  UNL1        0.3315
     11 O           7.9823   -3.8034   24.7207 O.2     1  UNL1       -0.2463
     12 N           6.2027   -2.4241   23.2800 N.ar    1  UNL1       -0.2799
     13 C           4.9784   -1.6174   23.5967 C.ar    1  UNL1        0.0819
     14 C           4.0195   -0.8636   22.7235 C.ar    1  UNL1        0.0484
     15 C           2.8611   -0.1345   23.3369 C.ar    1  UNL1        0.1417
     16 F           1.9021    0.6193   22.4638 F       1  UNL1       -0.2041
     17 C           2.6615   -0.1590   24.8234 C.ar    1  UNL1        0.0312
     18 C           3.6204   -0.9127   25.6965 C.ar    1  UNL1        0.0211
     19 C           4.7788   -1.6419   25.0831 C.ar    1  UNL1        0.0798
     20 C           6.7703   -2.6653   21.9126 C.3     1  UNL1        0.1105
     21 C           5.8846   -3.1671   20.8108 C.3     1  UNL1        0.0228
     22 C           6.0883   -2.6832   19.4056 C.3     1  UNL1        0.0019
     23 C           5.2027   -3.1850   18.3038 C.3     1  UNL1        0.0001
     24 C           4.1134   -4.1706   18.6072 C.3     1  UNL1        0.0000
     25 C           3.9098   -4.6545   20.0123 C.3     1  UNL1        0.0001
     26 C           4.7953   -4.1527   21.1141 C.3     1  UNL1        0.0019
     27 N           6.3561   -0.2775   34.5306 N.3     1  UNL1       -0.2689
     28 C           5.1313   -1.0648   34.1697 C.3     1  UNL1        0.0729
     29 C           5.2232   -2.1775   33.1680 C.3     1  UNL1        0.0264
     30 C           6.5398   -2.5028   32.5271 C.3     1  UNL1        0.0795
     31 C           7.7646   -1.7155   32.8880 C.3     1  UNL1        0.0264
     32 C           7.6727   -0.6028   33.8897 C.3     1  UNL1        0.0729
     33 C           6.2642    0.8352   35.5324 C.3     1  UNL1        0.0993
     34 N           2.5271    0.4498   39.1220 N.pl3   1  UNL1       -0.3426
     35 C           3.0583    1.0632   37.8604 C.ar    1  UNL1        0.1251
     36 C           4.3957    0.6425   37.3271 C.ar    1  UNL1        0.0310
     37 C           4.9268    1.2559   36.0655 C.ar    1  UNL1       -0.0018
     38 C           4.1205    2.2900   35.3371 C.ar    1  UNL1        0.0179
     39 C           2.7831    2.7106   35.8703 C.ar    1  UNL1        0.1000
     40 N           2.2520    2.0972   37.1320 N.ar    1  UNL1       -0.2296
     41 H           3.0563   -0.2289   39.6001 H       1  UNL1        0.1437
     42 H           1.6493    0.7260   39.4719 H       1  UNL1        0.1437
@<TRIPOS>BOND
     1    34    35    1
     2    35    36   ar
     3    36    37   ar
     4    37    33    1
     5    33    27    1
     6    27    28    1
     7    28    29    1
     8    29    30    1
     9    30     1    1
    10     1     2    2
    11     1     3   am
    12     3     4    1
    13     4     5    1
    14     5     6    1
    15     6     9    1
    16     9    10   ar
    17    10    11    2
    18    10    12   ar
    19    12    20    1
    20    20    21    1
    21    21    22    1
    22    22    23    1
    23    23    24    1
    24    24    25    1
    25    25    26    1
    26    12    13   ar
    27    13    14   ar
    28    14    15   ar
    29    15    16    1
    30    15    17   ar
    31    17    18   ar
    32    18    19   ar
    33     6     7    1
    34     7     8    1
    35    30    31    1
    36    31    32    1
    37    37    38   ar
    38    38    39   ar
    39    39    40   ar
    40    40    35   ar
    41    32    27    1
    42     8     3    1
    43    19     9   ar
    44    26    21    1
    45    19    13   ar
    46    34    41    1
    47    34    42    1
@<TRIPOS>MOLECULE
*****
 42 47 0 0 0
SMALL
GASTEIGER

@<TRIPOS>ATOM
      1 C           1.3066    1.3034   28.0084 C.2     1  UNL1        0.2252
      2 O           0.0254    2.0351   28.2788 O.2     1  UNL1       -0.2749
      3 N           1.6904    0.9585   26.5999 N.am    1  UNL1       -0.2794
      4 C           0.7931    1.3454   25.4619 C.3     1  UNL1        0.0953
      5 C           1.1769    1.0005   24.0535 C.3     1  UNL1        0.0442
      6 C           2.4582    0.2687   23.7830 C.3     1  UNL1        0.0933
      7 C           3.3554   -0.1181   24.9210 C.3     1  UNL1        0.0442
      8 C           2.9716    0.2268   26.3295 C.3     1  UNL1        0.0953
      9 N           2.8420   -0.0761   22.3746 N.ar    1  UNL1       -0.2817
     10 C           2.6028    0.7742   21.1622 C.ar    1  UNL1        0.3315
     11 O           1.9379    2.1186   21.1454 O.2     1  UNL1       -0.2463
     12 N           3.1454    0.0439   19.9696 N.ar    1  UNL1       -0.2799
     13 C           3.7199   -1.2577   20.4448 C.ar    1  UNL1        0.0819
     14 C           4.3895   -2.3849   19.7162 C.ar    1  UNL1        0.0484
     15 C           4.8715   -3.5863   20.4739 C.ar    1  UNL1        0.1417
     16 F           5.5412   -4.7136   19.7452 F       1  UNL1       -0.2041
     17 C           4.6840   -3.6605   21.9603 C.ar    1  UNL1        0.0312
     18 C           4.0144   -2.5333   22.6889 C.ar    1  UNL1        0.0211
     19 C           3.5323   -1.3319   21.9312 C.ar    1  UNL1        0.0798
     20 C           3.1183    0.5300   18.5508 C.3     1  UNL1        0.1105
     21 C           4.3585    1.1014   17.9299 C.3     1  UNL1        0.0228
     22 C           4.6702    2.5606   18.0835 C.3     1  UNL1        0.0019
     23 C           5.9104    3.1320   17.4626 C.3     1  UNL1        0.0001
     24 C           6.8388    2.2442   16.6882 C.3     1  UNL1        0.0000
     25 C           6.5271    0.7850   16.5346 C.3     1  UNL1        0.0001
     26 C           5.2870    0.2136   17.1554 C.3     1  UNL1        0.0019
     27 N           3.9987    0.1428   31.4224 N.3     1  UNL1       -0.2689
     28 C           2.9144   -0.7906   30.9715 C.3     1  UNL1        0.0729
     29 C           2.0170   -0.4037   29.8335 C.3     1  UNL1        0.0264
     30 C           2.2040    0.9165   29.1464 C.3     1  UNL1        0.0795
     31 C           3.2882    1.8499   29.5973 C.3     1  UNL1        0.0264
     32 C           4.1855    1.4630   30.7353 C.3     1  UNL1        0.0729
     33 C           4.8960   -0.2440   32.5605 C.3     1  UNL1        0.0993
     34 N           6.3740   -5.2236   32.4210 N.pl3   1  UNL1       -0.3426
     35 C           6.7034   -3.7665   32.2858 C.ar    1  UNL1        0.1251
     36 C           5.6350   -2.7338   32.4907 C.ar    1  UNL1        0.0310
     37 C           5.9645   -1.2767   32.3555 C.ar    1  UNL1       -0.0018
     38 C           7.3624   -0.8522   32.0154 C.ar    1  UNL1        0.0179
     39 C           8.4308   -1.8849   31.8105 C.ar    1  UNL1        0.1000
     40 N           8.1013   -3.3421   31.9457 N.ar    1  UNL1       -0.2296
     41 H           5.4565   -5.5022   32.6442 H       1  UNL1        0.1437
     42 H           7.0753   -5.9014   32.2865 H       1  UNL1        0.1437
@<TRIPOS>BOND
     1    34    35    1
     2    35    36   ar
     3    36    37   ar
     4    37    33    1
     5    33    27    1
     6    27    28    1
     7    28    29    1
     8    29    30    1
     9    30     1    1
    10     1     2    2
    11     1     3   am
    12     3     4    1
    13     4     5    1
    14     5     6    1
    15     6     9    1
    16     9    10   ar
    17    10    11    2
    18    10    12   ar
    19    12    20    1
    20    20    21    1
    21    21    22    1
    22    22    23    1
    23    23    24    1
    24    24    25    1
    25    25    26    1
    26    12    13   ar
    27    13    14   ar
    28    14    15   ar
    29    15    16    1
    30    15    17   ar
    31    17    18   ar
    32    18    19   ar
    33     6     7    1
    34     7     8    1
    35    30    31    1
    36    31    32    1
    37    37    38   ar
    38    38    39   ar
    39    39    40   ar
    40    40    35   ar
    41    32    27    1
    42     8     3    1
    43    19     9   ar
    44    26    21    1
    45    19    13   ar
    46    34    41    1
    47    34    42    1
@<TRIPOS>MOLECULE
*****
 42 47 0 0 0
SMALL
GASTEIGER

@<TRIPOS>ATOM
      1 C           5.6769   -2.2342   18.9727 C.2     1  UNL1        0.2252
      2 O           6.0073   -2.8513   17.6461 O.2     1  UNL1       -0.2749
      3 N           4.6129   -1.1809   19.0656 N.am    1  UNL1       -0.2794
      4 C           3.8794   -0.7449   17.8320 C.3     1  UNL1        0.0953
      5 C           2.8154    0.3083   17.9249 C.3     1  UNL1        0.0442
      6 C           2.4849    0.9256   19.2516 C.3     1  UNL1        0.0933
      7 C           3.2184    0.4895   20.4851 C.3     1  UNL1        0.0442
      8 C           4.2824   -0.5637   20.3922 C.3     1  UNL1        0.0953
      9 N           1.4209    1.9788   19.3445 N.ar    1  UNL1       -0.2817
     10 C           0.0687    1.8131   19.9722 C.ar    1  UNL1        0.3315
     11 O          -0.4570    0.5651   20.6173 O.2     1  UNL1       -0.2463
     12 N          -0.6656    3.1146   19.8417 N.ar    1  UNL1       -0.2799
     13 C           0.2328    4.0846   19.1332 C.ar    1  UNL1        0.0819
     14 C           0.0433    5.5164   18.7282 C.ar    1  UNL1        0.0484
     15 C           1.1432    6.2462   18.0159 C.ar    1  UNL1        0.1417
     16 F           0.9537    7.6780   17.6109 F       1  UNL1       -0.2041
     17 C           2.4328    5.5443   17.7086 C.ar    1  UNL1        0.0312
     18 C           2.6223    4.1125   18.1136 C.ar    1  UNL1        0.0211
     19 C           1.5223    3.3827   18.8259 C.ar    1  UNL1        0.0798
     20 C          -2.0544    3.3965   20.3332 C.3     1  UNL1        0.1105
     21 C          -2.3334    3.4442   21.8064 C.3     1  UNL1        0.0228
     22 C          -3.7492    3.4645   22.3013 C.3     1  UNL1        0.0019
     23 C          -4.0283    3.5121   23.7743 C.3     1  UNL1        0.0001
     24 C          -2.8914    3.5394   24.7524 C.3     1  UNL1        0.0000
     25 C          -1.4755    3.5191   24.2575 C.3     1  UNL1        0.0001
     26 C          -1.1965    3.4714   22.7845 C.3     1  UNL1        0.0019
     27 N           7.8773   -3.5422   22.6736 N.3     1  UNL1       -0.2689
     28 C           6.5246   -4.1122   22.3645 C.3     1  UNL1        0.0729
     29 C           5.7911   -3.6762   21.1309 C.3     1  UNL1        0.0264
     30 C           6.4103   -2.6702   20.2064 C.3     1  UNL1        0.0795
     31 C           7.7629   -2.1002   20.5155 C.3     1  UNL1        0.0264
     32 C           8.4964   -2.5362   21.7491 C.3     1  UNL1        0.0729
     33 C           8.6108   -3.9782   23.9073 C.3     1  UNL1        0.0993
     34 N           5.7303   -5.7556   27.8498 N.pl3   1  UNL1       -0.3426
     35 C           6.6511   -6.0136   26.6941 C.ar    1  UNL1        0.1251
     36 C           7.1706   -4.8669   25.8785 C.ar    1  UNL1        0.0310
     37 C           8.0914   -5.1249   24.7228 C.ar    1  UNL1       -0.0018
     38 C           8.4927   -6.5296   24.3827 C.ar    1  UNL1        0.0179
     39 C           7.9732   -7.6763   25.1983 C.ar    1  UNL1        0.1000
     40 N           7.0525   -7.4183   26.3540 N.ar    1  UNL1       -0.2296
     41 H           5.4669   -4.8337   28.0731 H       1  UNL1        0.1437
     42 H           5.3894   -6.5083   28.3851 H       1  UNL1        0.1437
@<TRIPOS>BOND
     1    34    35    1
     2    35    36   ar
     3    36    37   ar
     4    37    33    1
     5    33    27    1
     6    27    28    1
     7    28    29    1
     8    29    30    1
     9    30     1    1
    10     1     2    2
    11     1     3   am
    12     3     4    1
    13     4     5    1
    14     5     6    1
    15     6     9    1
    16     9    10   ar
    17    10    11    2
    18    10    12   ar
    19    12    20    1
    20    20    21    1
    21    21    22    1
    22    22    23    1
    23    23    24    1
    24    24    25    1
    25    25    26    1
    26    12    13   ar
    27    13    14   ar
    28    14    15   ar
    29    15    16    1
    30    15    17   ar
    31    17    18   ar
    32    18    19   ar
    33     6     7    1
    34     7     8    1
    35    30    31    1
    36    31    32    1
    37    37    38   ar
    38    38    39   ar
    39    39    40   ar
    40    40    35   ar
    41    32    27    1
    42     8     3    1
    43    19     9   ar
    44    26    21    1
    45    19    13   ar
    46    34    41    1
    47    34    42    1
@<TRIPOS>MOLECULE
*****
 42 47 0 0 0
SMALL
GASTEIGER

@<TRIPOS>ATOM
      1 C           0.9378    1.2363   28.3353 C.2     1  UNL1        0.2252
      2 O          -0.4035    1.7355   28.7843 O.2     1  UNL1       -0.2749
      3 N           1.2392    1.1096   26.8714 N.am    1  UNL1       -0.2794
      4 C           0.1993    1.4821   25.8566 C.3     1  UNL1        0.0953
      5 C           0.5007    1.3553   24.3926 C.3     1  UNL1        0.0442
      6 C           1.8421    0.8561   23.9435 C.3     1  UNL1        0.0933
      7 C           2.8819    0.4836   24.9584 C.3     1  UNL1        0.0442
      8 C           2.5805    0.6104   26.4223 C.3     1  UNL1        0.0953
      9 N           2.1435    0.7293   22.4796 N.ar    1  UNL1       -0.2817
     10 C           3.2637   -0.0646   21.8756 C.ar    1  UNL1        0.3315
     11 O           4.2792   -0.8712   22.6294 O.2     1  UNL1       -0.2463
     12 N           3.1901    0.0897   20.3854 N.ar    1  UNL1       -0.2799
     13 C           2.0245    0.9790   20.0684 C.ar    1  UNL1        0.0819
     14 C           1.4686    1.4798   18.7684 C.ar    1  UNL1        0.0484
     15 C           0.2658    2.3760   18.7627 C.ar    1  UNL1        0.1417
     16 F          -0.2903    2.8769   17.4627 F       1  UNL1       -0.2041
     17 C          -0.3811    2.7714   20.0571 C.ar    1  UNL1        0.0312
     18 C           0.1749    2.2705   21.3571 C.ar    1  UNL1        0.0211
     19 C           1.3777    1.3743   21.3627 C.ar    1  UNL1        0.0798
     20 C           4.1191   -0.5355   19.3873 C.3     1  UNL1        0.1105
     21 C           4.3183   -2.0223   19.3768 C.3     1  UNL1        0.0228
     22 C           3.1633   -2.9316   19.0780 C.3     1  UNL1        0.0019
     23 C           3.3624   -4.4183   19.0675 C.3     1  UNL1        0.0001
     24 C           4.7165   -4.9956   19.3557 C.3     1  UNL1        0.0000
     25 C           5.8714   -4.0863   19.6545 C.3     1  UNL1        0.0001
     26 C           5.6723   -2.5997   19.6650 C.3     1  UNL1        0.0019
     27 N           4.0574    0.1189   31.3799 N.3     1  UNL1       -0.2689
     28 C           3.0464   -0.8960   30.9347 C.3     1  UNL1        0.0729
     29 C           2.0065   -0.5235   29.9199 C.3     1  UNL1        0.0264
     30 C           1.9776    0.8638   29.3502 C.3     1  UNL1        0.0795
     31 C           2.9886    1.8787   29.7953 C.3     1  UNL1        0.0264
     32 C           4.0284    1.5062   30.8102 C.3     1  UNL1        0.0729
     33 C           5.0972   -0.2536   32.3947 C.3     1  UNL1        0.0993
     34 N           6.3889   -5.2850   32.5240 N.pl3   1  UNL1       -0.3426
     35 C           6.7209   -3.8674   32.1630 C.ar    1  UNL1        0.1251
     36 C           5.7430   -2.7692   32.4594 C.ar    1  UNL1        0.0310
     37 C           6.0751   -1.3517   32.0983 C.ar    1  UNL1       -0.0018
     38 C           7.3850   -1.0323   31.4409 C.ar    1  UNL1        0.0179
     39 C           8.3628   -2.1305   31.1445 C.ar    1  UNL1        0.1000
     40 N           8.0307   -3.5481   31.5056 N.ar    1  UNL1       -0.2296
     41 H           5.5292   -5.4947   32.9555 H       1  UNL1        0.1437
     42 H           7.0307   -6.0057   32.3294 H       1  UNL1        0.1437
@<TRIPOS>BOND
     1    34    35    1
     2    35    36   ar
     3    36    37   ar
     4    37    33    1
     5    33    27    1
     6    27    28    1
     7    28    29    1
     8    29    30    1
     9    30     1    1
    10     1     2    2
    11     1     3   am
    12     3     4    1
    13     4     5    1
    14     5     6    1
    15     6     9    1
    16     9    10   ar
    17    10    11    2
    18    10    12   ar
    19    12    20    1
    20    20    21    1
    21    21    22    1
    22    22    23    1
    23    23    24    1
    24    24    25    1
    25    25    26    1
    26    12    13   ar
    27    13    14   ar
    28    14    15   ar
    29    15    16    1
    30    15    17   ar
    31    17    18   ar
    32    18    19   ar
    33     6     7    1
    34     7     8    1
    35    30    31    1
    36    31    32    1
    37    37    38   ar
    38    38    39   ar
    39    39    40   ar
    40    40    35   ar
    41    32    27    1
    42     8     3    1
    43    19     9   ar
    44    26    21    1
    45    19    13   ar
    46    34    41    1
    47    34    42    1
@<TRIPOS>MOLECULE
*****
 42 47 0 0 0
SMALL
GASTEIGER

@<TRIPOS>ATOM
      1 C           1.2160    1.2653   28.6920 C.2     1  UNL1        0.2252
      2 O          -0.0341    1.8744   29.2542 O.2     1  UNL1       -0.2749
      3 N           1.3449    1.0478   27.2135 N.am    1  UNL1       -0.2794
      4 C           0.2236    1.4393   26.2972 C.3     1  UNL1        0.0953
      5 C           0.3525    1.2218   24.8187 C.3     1  UNL1        0.0442
      6 C           1.6027    0.6126   24.2564 C.3     1  UNL1        0.0933
      7 C           2.7238    0.2211   25.1726 C.3     1  UNL1        0.0442
      8 C           2.5950    0.4387   26.6512 C.3     1  UNL1        0.0953
      9 N           1.7315    0.3951   22.7778 N.ar    1  UNL1       -0.2817
     10 C           0.9746    1.1272   21.7097 C.ar    1  UNL1        0.3315
     11 O          -0.0441    2.2054   21.9325 O.2     1  UNL1       -0.2463
     12 N           1.4152    0.5918   20.3796 N.ar    1  UNL1       -0.2799
     13 C           2.4445   -0.4712   20.6257 C.ar    1  UNL1        0.0819
     14 C           3.2290   -1.3442   19.6917 C.ar    1  UNL1        0.0484
     15 C           4.2090   -2.3387   20.2398 C.ar    1  UNL1        0.1417
     16 F           4.9935   -3.2117   19.3058 F       1  UNL1       -0.2041
     17 C           4.4044   -2.4603   21.7221 C.ar    1  UNL1        0.0312
     18 C           3.6200   -1.5873   22.6561 C.ar    1  UNL1        0.0211
     19 C           2.6400   -0.5928   22.1079 C.ar    1  UNL1        0.0798
     20 C           0.9145    1.0406   19.0387 C.3     1  UNL1        0.1105
     21 C           1.2965    2.3911   18.5091 C.3     1  UNL1        0.0228
     22 C           2.7397    2.7970   18.4605 C.3     1  UNL1        0.0019
     23 C           3.1216    4.1473   17.9309 C.3     1  UNL1        0.0001
     24 C           2.0603    5.0919   17.4499 C.3     1  UNL1        0.0000
     25 C           0.6171    4.6860   17.4985 C.3     1  UNL1        0.0001
     26 C           0.2351    3.3357   18.0281 C.3     1  UNL1        0.0019
     27 N           4.5797    0.0907   31.4407 N.3     1  UNL1       -0.2689
     28 C           4.5473    1.4647   30.8397 C.3     1  UNL1        0.0729
     29 C           3.4260    1.8563   29.9235 C.3     1  UNL1        0.0264
     30 C           2.3372    0.8738   29.6082 C.3     1  UNL1        0.0795
     31 C           2.3696   -0.5002   30.2092 C.3     1  UNL1        0.0264
     32 C           3.4909   -0.8917   31.1255 C.3     1  UNL1        0.0729
     33 C           5.7009   -0.3009   32.3569 C.3     1  UNL1        0.0993
     34 N           6.4475   -5.4431   32.3668 N.pl3   1  UNL1       -0.3426
     35 C           6.9283   -4.0612   32.0363 C.ar    1  UNL1        0.1251
     36 C           6.0742   -2.8719   32.3619 C.ar    1  UNL1        0.0310
     37 C           6.5551   -1.4901   32.0313 C.ar    1  UNL1       -0.0018
     38 C           7.8902   -1.2976   31.3752 C.ar    1  UNL1        0.0179
     39 C           8.7443   -2.4868   31.0496 C.ar    1  UNL1        0.1000
     40 N           8.2634   -3.8687   31.3802 N.ar    1  UNL1       -0.2296
     41 H           5.5713   -5.5696   32.7975 H       1  UNL1        0.1437
     42 H           7.0081   -6.2237   32.1531 H       1  UNL1        0.1437
@<TRIPOS>BOND
     1    34    35    1
     2    35    36   ar
     3    36    37   ar
     4    37    33    1
     5    33    27    1
     6    27    28    1
     7    28    29    1
     8    29    30    1
     9    30     1    1
    10     1     2    2
    11     1     3   am
    12     3     4    1
    13     4     5    1
    14     5     6    1
    15     6     9    1
    16     9    10   ar
    17    10    11    2
    18    10    12   ar
    19    12    20    1
    20    20    21    1
    21    21    22    1
    22    22    23    1
    23    23    24    1
    24    24    25    1
    25    25    26    1
    26    12    13   ar
    27    13    14   ar
    28    14    15   ar
    29    15    16    1
    30    15    17   ar
    31    17    18   ar
    32    18    19   ar
    33     6     7    1
    34     7     8    1
    35    30    31    1
    36    31    32    1
    37    37    38   ar
    38    38    39   ar
    39    39    40   ar
    40    40    35   ar
    41    32    27    1
    42     8     3    1
    43    19     9   ar
    44    26    21    1
    45    19    13   ar
    46    34    41    1
    47    34    42    1
@<TRIPOS>MOLECULE
*****
 42 47 0 0 0
SMALL
GASTEIGER

@<TRIPOS>ATOM
      1 C           4.4109   -3.0300   20.2415 C.2     1  UNL1        0.2252
      2 O           4.2763   -3.7117   18.9123 O.2     1  UNL1       -0.2749
      3 N           3.4646   -1.9290   20.6189 N.am    1  UNL1       -0.2794
      4 C           2.3837   -1.5099   19.6671 C.3     1  UNL1        0.0953
      5 C           1.4374   -0.4089   20.0445 C.3     1  UNL1        0.0442
      6 C           1.5720    0.2729   21.3738 C.3     1  UNL1        0.0933
      7 C           2.6528   -0.1462   22.3256 C.3     1  UNL1        0.0442
      8 C           3.5991   -1.2472   21.9482 C.3     1  UNL1        0.0953
      9 N           0.6257    1.3739   21.7512 N.ar    1  UNL1       -0.2817
     10 C          -0.0172    2.3462   20.8071 C.ar    1  UNL1        0.3315
     11 O           0.1733    2.3883   19.3199 O.2     1  UNL1       -0.2463
     12 N          -0.8841    3.2690   21.6114 N.ar    1  UNL1       -0.2799
     13 C          -0.7769    2.8671   23.0526 C.ar    1  UNL1        0.0819
     14 C          -1.4085    3.4162   24.2974 C.ar    1  UNL1        0.0484
     15 C          -1.1069    2.7942   25.6285 C.ar    1  UNL1        0.1417
     16 F          -1.7385    3.3434   26.8734 F       1  UNL1       -0.2041
     17 C          -0.1739    1.6229   25.7149 C.ar    1  UNL1        0.0312
     18 C           0.4577    1.0737   24.4702 C.ar    1  UNL1        0.0211
     19 C           0.1561    1.6958   23.1390 C.ar    1  UNL1        0.0798
     20 C          -1.7126    4.3960   21.0697 C.3     1  UNL1        0.1105
     21 C          -2.9569    4.1022   20.2850 C.3     1  UNL1        0.0228
     22 C          -2.9344    4.1782   18.7871 C.3     1  UNL1        0.0019
     23 C          -4.1785    3.8845   18.0024 C.3     1  UNL1        0.0001
     24 C          -5.4453    3.5149   18.7157 C.3     1  UNL1        0.0000
     25 C          -5.4678    3.4390   20.2136 C.3     1  UNL1        0.0001
     26 C          -4.2237    3.7326   20.9983 C.3     1  UNL1        0.0019
     27 N           7.6534   -4.2873   23.0972 N.3     1  UNL1       -0.2689
     28 C           8.0004   -3.9103   21.6873 C.3     1  UNL1        0.0729
     29 C           6.9195   -3.4911   20.7354 C.3     1  UNL1        0.0264
     30 C           5.4917   -3.4491   21.1934 C.3     1  UNL1        0.0795
     31 C           5.1448   -3.8261   22.6032 C.3     1  UNL1        0.0264
     32 C           6.2256   -4.2452   23.5551 C.3     1  UNL1        0.0729
     33 C           8.7343   -4.7064   24.0490 C.3     1  UNL1        0.0993
     34 N           7.3052   -8.7947   26.9203 N.pl3   1  UNL1       -0.3426
     35 C           7.6595   -7.3408   26.8157 C.ar    1  UNL1        0.1251
     36 C           8.0197   -6.7505   25.4846 C.ar    1  UNL1        0.0310
     37 C           8.3741   -5.2967   25.3801 C.ar    1  UNL1       -0.0018
     38 C           8.3682   -4.4332   26.6067 C.ar    1  UNL1        0.0179
     39 C           8.0080   -5.0236   27.9377 C.ar    1  UNL1        0.1000
     40 N           7.6536   -6.4774   28.0422 N.ar    1  UNL1       -0.2296
     41 H           7.3090   -9.3614   26.1153 H       1  UNL1        0.1437
     42 H           7.0687   -9.1821   27.7939 H       1  UNL1        0.1437
@<TRIPOS>BOND
     1    34    35    1
     2    35    36   ar
     3    36    37   ar
     4    37    33    1
     5    33    27    1
     6    27    28    1
     7    28    29    1
     8    29    30    1
     9    30     1    1
    10     1     2    2
    11     1     3   am
    12     3     4    1
    13     4     5    1
    14     5     6    1
    15     6     9    1
    16     9    10   ar
    17    10    11    2
    18    10    12   ar
    19    12    20    1
    20    20    21    1
    21    21    22    1
    22    22    23    1
    23    23    24    1
    24    24    25    1
    25    25    26    1
    26    12    13   ar
    27    13    14   ar
    28    14    15   ar
    29    15    16    1
    30    15    17   ar
    31    17    18   ar
    32    18    19   ar
    33     6     7    1
    34     7     8    1
    35    30    31    1
    36    31    32    1
    37    37    38   ar
    38    38    39   ar
    39    39    40   ar
    40    40    35   ar
    41    32    27    1
    42     8     3    1
    43    19     9   ar
    44    26    21    1
    45    19    13   ar
    46    34    41    1
    47    34    42    1
@<TRIPOS>MOLECULE
*****
 42 47 0 0 0
SMALL
GASTEIGER

@<TRIPOS>ATOM
      1 C           0.0478    1.0098   28.1357 C.2     1  UNL1        0.2252
      2 O          -1.4214    1.1399   28.4087 O.2     1  UNL1       -0.2749
      3 N           0.5679    1.1704   26.7380 N.am    1  UNL1       -0.2794
      4 C          -0.3812    1.4610   25.6133 C.3     1  UNL1        0.0953
      5 C           0.1389    1.6216   24.2156 C.3     1  UNL1        0.0442
      6 C           1.6082    1.4916   23.9425 C.3     1  UNL1        0.0933
      7 C           2.5572    1.2010   25.0671 C.3     1  UNL1        0.0442
      8 C           2.0371    1.0404   26.4648 C.3     1  UNL1        0.0953
      9 N           2.1283    1.6521   22.5447 N.ar    1  UNL1       -0.2817
     10 C           2.1730    2.9310   21.7621 C.ar    1  UNL1        0.3315
     11 O           1.7054    4.2738   22.2398 O.2     1  UNL1       -0.2463
     12 N           2.7674    2.6312   20.4179 N.ar    1  UNL1       -0.2799
     13 C           3.0900    1.1671   20.3697 C.ar    1  UNL1        0.0819
     14 C           3.6924    0.3068   19.2988 C.ar    1  UNL1        0.0484
     15 C           3.8999   -1.1586   19.5424 C.ar    1  UNL1        0.1417
     16 F           4.5023   -2.0191   18.4715 F       1  UNL1       -0.2041
     17 C           3.5049   -1.7638   20.8569 C.ar    1  UNL1        0.0312
     18 C           2.9025   -0.9034   21.9278 C.ar    1  UNL1        0.0211
     19 C           2.6951    0.5620   21.6842 C.ar    1  UNL1        0.0798
     20 C           2.9985    3.6217   19.3153 C.3     1  UNL1        0.1105
     21 C           1.8716    4.0036   18.4018 C.3     1  UNL1        0.0228
     22 C           0.6044    3.2012   18.3980 C.3     1  UNL1        0.0019
     23 C          -0.5225    3.5830   17.4845 C.3     1  UNL1        0.0001
     24 C          -0.3820    4.7674   16.5749 C.3     1  UNL1        0.0000
     25 C           0.8853    5.5699   16.5787 C.3     1  UNL1        0.0001
     26 C           2.0121    5.1880   17.4921 C.3     1  UNL1        0.0019
     27 N           2.8950    0.1381   31.5096 N.3     1  UNL1       -0.2689
     28 C           2.0614    1.3850   31.5349 C.3     1  UNL1        0.0729
     29 C           1.1123    1.6756   30.4102 C.3     1  UNL1        0.0264
     30 C           0.9968    0.7193   29.2604 C.3     1  UNL1        0.0795
     31 C           1.8304   -0.5275   29.2351 C.3     1  UNL1        0.0264
     32 C           2.7794   -0.8181   30.3597 C.3     1  UNL1        0.0729
     33 C           3.8440   -0.1524   32.6343 C.3     1  UNL1        0.0993
     34 N           6.1847   -4.7911   32.5719 N.pl3   1  UNL1       -0.3426
     35 C           6.2355   -3.3074   32.3571 C.ar    1  UNL1        0.1251
     36 C           5.0144   -2.4717   32.6031 C.ar    1  UNL1        0.0310
     37 C           5.0652   -0.9880   32.3883 C.ar    1  UNL1       -0.0018
     38 C           6.3371   -0.3400   31.9275 C.ar    1  UNL1        0.0179
     39 C           7.5582   -1.1757   31.6815 C.ar    1  UNL1        0.1000
     40 N           7.5074   -2.6594   31.8963 N.ar    1  UNL1       -0.2296
     41 H           5.3500   -5.2164   32.8743 H       1  UNL1        0.1437
     42 H           6.9862   -5.3395   32.4104 H       1  UNL1        0.1437
@<TRIPOS>BOND
     1    34    35    1
     2    35    36   ar
     3    36    37   ar
     4    37    33    1
     5    33    27    1
     6    27    28    1
     7    28    29    1
     8    29    30    1
     9    30     1    1
    10     1     2    2
    11     1     3   am
    12     3     4    1
    13     4     5    1
    14     5     6    1
    15     6     9    1
    16     9    10   ar
    17    10    11    2
    18    10    12   ar
    19    12    20    1
    20    20    21    1
    21    21    22    1
    22    22    23    1
    23    23    24    1
    24    24    25    1
    25    25    26    1
    26    12    13   ar
    27    13    14   ar
    28    14    15   ar
    29    15    16    1
    30    15    17   ar
    31    17    18   ar
    32    18    19   ar
    33     6     7    1
    34     7     8    1
    35    30    31    1
    36    31    32    1
    37    37    38   ar
    38    38    39   ar
    39    39    40   ar
    40    40    35   ar
    41    32    27    1
    42     8     3    1
    43    19     9   ar
    44    26    21    1
    45    19    13   ar
    46    34    41    1
    47    34    42    1
@<TRIPOS>MOLECULE
*****
 42 47 0 0 0
SMALL
GASTEIGER

@<TRIPOS>ATOM
      1 C           0.8708    1.0306   29.0934 C.2     1  UNL1        0.2252
      2 O          -0.2713    1.0165   30.0656 O.2     1  UNL1       -0.2749
      3 N           0.6268    1.3781   27.6547 N.am    1  UNL1       -0.2794
      4 C          -0.7593    1.7115   27.1884 C.3     1  UNL1        0.0953
      5 C          -1.0033    2.0590   25.7498 C.3     1  UNL1        0.0442
      6 C           0.1388    2.0732   24.7774 C.3     1  UNL1        0.0933
      7 C           1.5249    1.7397   25.2438 C.3     1  UNL1        0.0442
      8 C           1.7689    1.3922   26.6824 C.3     1  UNL1        0.0953
      9 N          -0.1052    2.4207   23.3388 N.ar    1  UNL1       -0.2817
     10 C          -0.9629    3.5440   22.8363 C.ar    1  UNL1        0.3315
     11 O          -1.7272    4.5170   23.6843 O.2     1  UNL1       -0.2463
     12 N          -0.9221    3.5234   21.3370 N.ar    1  UNL1       -0.2799
     13 C          -0.0392    2.3874   20.9128 C.ar    1  UNL1        0.0819
     14 C           0.3702    1.8855   19.5599 C.ar    1  UNL1        0.0484
     15 C           1.2845    0.7021   19.4442 C.ar    1  UNL1        0.1417
     16 F           1.6940    0.2002   18.0912 F       1  UNL1       -0.2041
     17 C           1.7895    0.0206   20.6813 C.ar    1  UNL1        0.0312
     18 C           1.3800    0.5224   22.0342 C.ar    1  UNL1        0.0211
     19 C           0.4657    1.7059   22.1500 C.ar    1  UNL1        0.0798
     20 C          -1.6385    4.4723   20.4224 C.3     1  UNL1        0.1105
     21 C          -3.0012    4.1255   19.8999 C.3     1  UNL1        0.0228
     22 C          -4.1077    3.7897   20.8553 C.3     1  UNL1        0.0019
     23 C          -5.4703    3.4429   20.3329 C.3     1  UNL1        0.0001
     24 C          -5.7264    3.4320   18.8550 C.3     1  UNL1        0.0000
     25 C          -4.6199    3.7678   17.8996 C.3     1  UNL1        0.0001
     26 C          -3.2573    4.1146   18.4220 C.3     1  UNL1        0.0019
     27 N           5.0292    0.0303   30.4924 N.3     1  UNL1       -0.2689
     28 C           4.2772   -0.9352   29.6249 C.3     1  UNL1        0.0729
     29 C           2.8910   -0.6018   29.1586 C.3     1  UNL1        0.0264
     30 C           2.2570    0.6972   29.5597 C.3     1  UNL1        0.0795
     31 C           3.0090    1.6626   30.4271 C.3     1  UNL1        0.0264
     32 C           4.3951    1.3292   30.8934 C.3     1  UNL1        0.0729
     33 C           6.4154   -0.3031   30.9587 C.3     1  UNL1        0.0993
     34 N           6.4638   -5.2420   32.5724 N.pl3   1  UNL1       -0.3426
     35 C           6.9561   -4.1751   31.6400 C.ar    1  UNL1        0.1251
     36 C           6.4396   -2.7725   31.7655 C.ar    1  UNL1        0.0310
     37 C           6.9319   -1.7057   30.8331 C.ar    1  UNL1       -0.0018
     38 C           7.9407   -2.0415   29.7750 C.ar    1  UNL1        0.0179
     39 C           8.4573   -3.4441   29.6495 C.ar    1  UNL1        0.1000
     40 N           7.9649   -4.5110   30.5819 N.ar    1  UNL1       -0.2296
     41 H           5.8017   -5.0217   33.2669 H       1  UNL1        0.1437
     42 H           6.8029   -6.1626   32.4900 H       1  UNL1        0.1437
@<TRIPOS>BOND
     1    34    35    1
     2    35    36   ar
     3    36    37   ar
     4    37    33    1
     5    33    27    1
     6    27    28    1
     7    28    29    1
     8    29    30    1
     9    30     1    1
    10     1     2    2
    11     1     3   am
    12     3     4    1
    13     4     5    1
    14     5     6    1
    15     6     9    1
    16     9    10   ar
    17    10    11    2
    18    10    12   ar
    19    12    20    1
    20    20    21    1
    21    21    22    1
    22    22    23    1
    23    23    24    1
    24    24    25    1
    25    25    26    1
    26    12    13   ar
    27    13    14   ar
    28    14    15   ar
    29    15    16    1
    30    15    17   ar
    31    17    18   ar
    32    18    19   ar
    33     6     7    1
    34     7     8    1
    35    30    31    1
    36    31    32    1
    37    37    38   ar
    38    38    39   ar
    39    39    40   ar
    40    40    35   ar
    41    32    27    1
    42     8     3    1
    43    19     9   ar
    44    26    21    1
    45    19    13   ar
    46    34    41    1
    47    34    42    1
