@<TRIPOS>MOLECULE
*****
 28 31 0 0 0
SMALL
GASTEIGER

@<TRIPOS>ATOM
      1 N          -7.5019  -16.3617   23.6379 N.am    1  UNL1       -0.2528
      2 C          -6.2906  -17.1164   23.1762 C.2     1  UNL1        0.2414
      3 O          -4.9300  -16.6023   23.5428 O.2     1  UNL1       -0.2737
      4 C          -6.7573  -18.3066   22.3915 C.3     1  UNL1        0.1667
      5 C          -7.2240  -19.4968   21.6068 C.3     1  UNL1        0.1072
      6 C          -6.0128  -20.2515   21.1451 C.2     1  UNL1        0.2329
      7 O          -6.0162  -21.5092   20.3277 O.2     1  UNL1       -0.2744
      8 N          -4.7974  -19.5279   21.6445 N.am    1  UNL1       -0.2249
      9 C          -5.2576  -18.3258   22.4148 C.2     1  UNL1        0.2434
     10 O          -4.2322  -17.4191   23.0285 O.2     1  UNL1       -0.2736
     11 C          -8.2570  -18.2874   22.3683 C.ar    1  UNL1        0.0087
     12 C          -9.2631  -19.2091   21.7452 C.ar    1  UNL1        0.0093
     13 C         -10.7292  -18.9289   21.8924 C.ar    1  UNL1        0.0575
     14 CL        -11.7353  -19.8506   21.2693 Cl      1  UNL1       -0.0823
     15 C         -11.1894  -17.7268   22.6627 C.ar    1  UNL1        0.0127
     16 C         -10.1834  -16.8051   23.2858 C.ar    1  UNL1        0.0155
     17 C          -8.7172  -17.0854   23.1386 C.ar    1  UNL1        0.0512
     18 C          -7.4985  -15.1040   24.4554 C.3     1  UNL1        0.1397
     19 O          -8.4222  -15.2493   26.8794 O.co2   1  UNL1       -0.5474
     20 C          -7.2596  -15.1716   25.9346 C.2     1  UNL1        0.0708
     21 O          -5.8582  -15.1616   26.4693 O.co2   1  UNL1       -0.5474
     22 C          -3.3723  -19.9347   21.4140 C.3     1  UNL1        0.1274
     23 C          -2.4795  -19.0872   20.5567 C.ar    1  UNL1       -0.0019
     24 C          -2.9142  -18.7008   19.1740 C.ar    1  UNL1       -0.0026
     25 C          -2.0214  -17.8533   18.3167 C.ar    1  UNL1       -0.0003
     26 C          -0.6942  -17.3924   18.8421 C.ar    1  UNL1       -0.0000
     27 C          -0.2596  -17.7789   20.2247 C.ar    1  UNL1       -0.0003
     28 C          -1.1523  -18.6263   21.0820 C.ar    1  UNL1       -0.0026
@<TRIPOS>UNITY_ATOM_ATTR
19 1
charge -1
@<TRIPOS>BOND
     1    19    20   ar
     2    20    21   ar
     3    20    18    1
     4    18     1    1
     5     1     2   am
     6     2     3    2
     7     2     4    1
     8     4     5    1
     9     5     6    1
    10     6     7    2
    11     6     8   am
    12     8    22    1
    13    22    23    1
    14    23    24   ar
    15    24    25   ar
    16    25    26   ar
    17    26    27   ar
    18    27    28   ar
    19     8     9   am
    20     9    10    2
    21     4    11    1
    22    11    12   ar
    23    12    13   ar
    24    13    14    1
    25    13    15   ar
    26    15    16   ar
    27    16    17   ar
    28    17     1    1
    29     9     4    1
    30    17    11   ar
    31    28    23   ar
@<TRIPOS>MOLECULE
*****
 28 31 0 0 0
SMALL
GASTEIGER

@<TRIPOS>ATOM
      1 N          -9.1443  -17.6689   21.7500 N.am    1  UNL1       -0.2528
      2 C          -7.6861  -17.7919   22.0795 C.2     1  UNL1        0.2414
      3 O          -7.1255  -16.9827   23.2113 O.2     1  UNL1       -0.2737
      4 C          -7.0763  -18.7746   21.1242 C.3     1  UNL1        0.1667
      5 C          -6.4665  -19.7573   20.1690 C.3     1  UNL1        0.1072
      6 C          -5.0083  -19.8802   20.4984 C.2     1  UNL1        0.2329
      7 O          -4.0158  -20.7561   19.7929 O.2     1  UNL1       -0.2744
      8 N          -4.7169  -18.9735   21.6573 N.am    1  UNL1       -0.2249
      9 C          -5.9949  -18.2902   22.0440 C.2     1  UNL1        0.2434
     10 O          -5.9833  -17.3192   23.1874 O.2     1  UNL1       -0.2736
     11 C          -8.1577  -19.2590   20.2044 C.ar    1  UNL1        0.0087
     12 C          -8.1436  -20.2340   19.0646 C.ar    1  UNL1        0.0093
     13 C          -9.4077  -20.5257   18.3116 C.ar    1  UNL1        0.0575
     14 CL         -9.3937  -21.5007   17.1718 Cl      1  UNL1       -0.0823
     15 C         -10.6857  -19.8424   18.6984 C.ar    1  UNL1        0.0127
     16 C         -10.6998  -18.8673   19.8381 C.ar    1  UNL1        0.0155
     17 C          -9.4357  -18.5757   20.5911 C.ar    1  UNL1        0.0512
     18 C         -10.1368  -16.7931   22.4555 C.3     1  UNL1        0.1397
     19 O         -12.6907  -17.2597   22.5551 O.co2   1  UNL1       -0.5474
     20 C         -11.3195  -17.4049   23.1459 C.2     1  UNL1        0.0708
     21 O         -11.1313  -18.1620   24.4270 O.co2   1  UNL1       -0.5474
     22 C          -3.3818  -18.7835   22.3141 C.3     1  UNL1        0.1274
     23 C          -2.2565  -18.1450   21.5550 C.ar    1  UNL1       -0.0019
     24 C          -1.3809  -18.9803   20.6687 C.ar    1  UNL1       -0.0026
     25 C          -0.2555  -18.3418   19.9096 C.ar    1  UNL1       -0.0003
     26 C          -0.0060  -16.8682   20.0369 C.ar    1  UNL1       -0.0000
     27 C          -0.8817  -16.0330   20.9232 C.ar    1  UNL1       -0.0003
     28 C          -2.0069  -16.6714   21.6823 C.ar    1  UNL1       -0.0026
@<TRIPOS>UNITY_ATOM_ATTR
19 1
charge -1
@<TRIPOS>BOND
     1    19    20   ar
     2    20    21   ar
     3    20    18    1
     4    18     1    1
     5     1     2   am
     6     2     3    2
     7     2     4    1
     8     4     5    1
     9     5     6    1
    10     6     7    2
    11     6     8   am
    12     8    22    1
    13    22    23    1
    14    23    24   ar
    15    24    25   ar
    16    25    26   ar
    17    26    27   ar
    18    27    28   ar
    19     8     9   am
    20     9    10    2
    21     4    11    1
    22    11    12   ar
    23    12    13   ar
    24    13    14    1
    25    13    15   ar
    26    15    16   ar
    27    16    17   ar
    28    17     1    1
    29     9     4    1
    30    17    11   ar
    31    28    23   ar
@<TRIPOS>MOLECULE
*****
 28 31 0 0 0
SMALL
GASTEIGER

@<TRIPOS>ATOM
      1 N         -13.0725   -3.4009   19.2629 N.am    1  UNL1       -0.2528
      2 C         -14.3545   -4.1767   19.3288 C.2     1  UNL1        0.2414
      3 O         -15.6442   -3.4353   19.5210 O.2     1  UNL1       -0.2737
      4 C         -14.0241   -5.6318   19.1750 C.3     1  UNL1        0.1667
      5 C         -13.6938   -7.0869   19.0212 C.3     1  UNL1        0.1072
      6 C         -14.9758   -7.8628   19.0872 C.2     1  UNL1        0.2329
      7 O         -15.1114   -9.3527   18.9778 O.2     1  UNL1       -0.2744
      8 N         -16.0986   -6.8873   19.2817 N.am    1  UNL1       -0.2249
      9 C         -15.5104   -5.5085   19.3360 C.2     1  UNL1        0.2434
     10 O         -16.4250   -4.3347   19.5258 O.2     1  UNL1       -0.2736
     11 C         -12.5379   -5.7552   19.0140 C.ar    1  UNL1        0.0087
     12 C         -11.6442   -6.9449   18.8250 C.ar    1  UNL1        0.0093
     13 C         -10.1623   -6.7558   18.6903 C.ar    1  UNL1        0.0575
     14 CL         -9.2685   -7.9456   18.5013 Cl      1  UNL1       -0.0823
     15 C          -9.5741   -5.3770   18.7446 C.ar    1  UNL1        0.0127
     16 C         -10.4679   -4.1873   18.9336 C.ar    1  UNL1        0.0155
     17 C         -11.9497   -4.3764   19.0684 C.ar    1  UNL1        0.0512
     18 C         -12.9369   -1.9110   19.3723 C.3     1  UNL1        0.1397
     19 O         -13.0658   -1.6957   16.7864 O.co2   1  UNL1       -0.5474
     20 C         -12.8342   -1.0741   18.1318 C.2     1  UNL1        0.0708
     21 O         -12.4997    0.3844   18.2365 O.co2   1  UNL1       -0.5474
     22 C         -17.5539   -7.2303   19.4010 C.3     1  UNL1        0.1274
     23 C         -18.1892   -8.1597   18.4096 C.ar    1  UNL1       -0.0019
     24 C         -18.6671   -9.5120   18.8490 C.ar    1  UNL1       -0.0026
     25 C         -19.3024  -10.4414   17.8576 C.ar    1  UNL1       -0.0003
     26 C         -19.4598  -10.0184   16.4271 C.ar    1  UNL1       -0.0000
     27 C         -18.9819   -8.6661   15.9879 C.ar    1  UNL1       -0.0003
     28 C         -18.3466   -7.7367   16.9791 C.ar    1  UNL1       -0.0026
@<TRIPOS>UNITY_ATOM_ATTR
19 1
charge -1
@<TRIPOS>BOND
     1    19    20   ar
     2    20    21   ar
     3    20    18    1
     4    18     1    1
     5     1     2   am
     6     2     3    2
     7     2     4    1
     8     4     5    1
     9     5     6    1
    10     6     7    2
    11     6     8   am
    12     8    22    1
    13    22    23    1
    14    23    24   ar
    15    24    25   ar
    16    25    26   ar
    17    26    27   ar
    18    27    28   ar
    19     8     9   am
    20     9    10    2
    21     4    11    1
    22    11    12   ar
    23    12    13   ar
    24    13    14    1
    25    13    15   ar
    26    15    16   ar
    27    16    17   ar
    28    17     1    1
    29     9     4    1
    30    17    11   ar
    31    28    23   ar
@<TRIPOS>MOLECULE
*****
 28 31 0 0 0
SMALL
GASTEIGER

@<TRIPOS>ATOM
      1 N         -11.9313   -5.4571   18.0090 N.am    1  UNL1       -0.2528
      2 C         -13.1824   -6.1739   18.4224 C.2     1  UNL1        0.2414
      3 O         -13.1946   -7.6738   18.4235 O.2     1  UNL1       -0.2737
      4 C         -14.2153   -5.1422   18.7669 C.3     1  UNL1        0.1667
      5 C         -15.2483   -4.1105   19.1114 C.3     1  UNL1        0.1072
      6 C         -16.4994   -4.8273   19.5248 C.2     1  UNL1        0.2329
      7 O         -17.7846   -4.1826   19.9522 O.2     1  UNL1       -0.2744
      8 N         -16.2398   -6.3020   19.4358 N.am    1  UNL1       -0.2249
      9 C         -14.8282   -6.4966   18.9674 C.2     1  UNL1        0.2434
     10 O         -14.3062   -7.8919   18.7915 O.2     1  UNL1       -0.2736
     11 C         -13.6026   -3.7878   18.5665 C.ar    1  UNL1        0.0087
     12 C         -14.1476   -2.4025   18.7499 C.ar    1  UNL1        0.0093
     13 C         -13.2811   -1.2118   18.4650 C.ar    1  UNL1        0.0575
     14 CL        -13.8261    0.1737   18.6484 Cl      1  UNL1       -0.0823
     15 C         -11.8694   -1.4064   17.9966 C.ar    1  UNL1        0.0127
     16 C         -11.3244   -2.7917   17.8131 C.ar    1  UNL1        0.0155
     17 C         -12.1909   -3.9824   18.0981 C.ar    1  UNL1        0.0512
     18 C         -10.6461   -6.1018   17.5817 C.3     1  UNL1        0.1397
     19 O          -9.1540   -7.9706   18.5973 O.co2   1  UNL1       -0.5474
     20 C          -9.6563   -6.5572   18.6126 C.2     1  UNL1        0.0708
     21 O          -9.1687   -5.5993   19.6589 O.co2   1  UNL1       -0.5474
     22 C         -17.2196   -7.3908   19.7585 C.3     1  UNL1        0.1274
     23 C         -17.8823   -8.1559   18.6513 C.ar    1  UNL1       -0.0019
     24 C         -18.0398   -7.5302   17.2972 C.ar    1  UNL1       -0.0026
     25 C         -18.7025   -8.2952   16.1901 C.ar    1  UNL1       -0.0003
     26 C         -19.2076   -9.6859   16.4371 C.ar    1  UNL1       -0.0000
     27 C         -19.0500  -10.3115   17.7913 C.ar    1  UNL1       -0.0003
     28 C         -18.3874   -9.5465   18.8984 C.ar    1  UNL1       -0.0026
@<TRIPOS>UNITY_ATOM_ATTR
19 1
charge -1
@<TRIPOS>BOND
     1    19    20   ar
     2    20    21   ar
     3    20    18    1
     4    18     1    1
     5     1     2   am
     6     2     3    2
     7     2     4    1
     8     4     5    1
     9     5     6    1
    10     6     7    2
    11     6     8   am
    12     8    22    1
    13    22    23    1
    14    23    24   ar
    15    24    25   ar
    16    25    26   ar
    17    26    27   ar
    18    27    28   ar
    19     8     9   am
    20     9    10    2
    21     4    11    1
    22    11    12   ar
    23    12    13   ar
    24    13    14    1
    25    13    15   ar
    26    15    16   ar
    27    16    17   ar
    28    17     1    1
    29     9     4    1
    30    17    11   ar
    31    28    23   ar
@<TRIPOS>MOLECULE
*****
 28 31 0 0 0
SMALL
GASTEIGER

@<TRIPOS>ATOM
      1 N           4.0456   -2.1737   19.9134 N.am    1  UNL1       -0.2528
      2 C           5.1217   -2.6893   20.8223 C.2     1  UNL1        0.2414
      3 O           6.1737   -3.5992   20.2607 O.2     1  UNL1       -0.2737
      4 C           4.8776   -2.1309   22.1929 C.3     1  UNL1        0.1667
      5 C           4.6335   -1.5726   23.5636 C.3     1  UNL1        0.1072
      6 C           5.7096   -2.0882   24.4725 C.2     1  UNL1        0.2329
      7 O           5.8516   -1.7808   25.9338 O.2     1  UNL1       -0.2744
      8 N           6.6188   -2.9652   23.6637 N.am    1  UNL1       -0.2249
      9 C           6.1046   -2.9916   22.2548 C.2     1  UNL1        0.2434
     10 O           6.8376   -3.8034   21.2282 O.2     1  UNL1       -0.2736
     11 C           3.6506   -1.2703   22.1311 C.ar    1  UNL1        0.0087
     12 C           2.9351   -0.4660   23.1757 C.ar    1  UNL1        0.0093
     13 C           1.7055    0.3119   22.8113 C.ar    1  UNL1        0.0575
     14 CL          0.9900    1.1163   23.8559 Cl      1  UNL1       -0.0823
     15 C           1.1913    0.2855   21.4025 C.ar    1  UNL1        0.0127
     16 C           1.9067   -0.5188   20.3579 C.ar    1  UNL1        0.0155
     17 C           3.1364   -1.2967   20.7222 C.ar    1  UNL1        0.0512
     18 C           3.9036   -2.4811   18.4521 C.3     1  UNL1        0.1397
     19 O           6.1427   -1.5298   17.5403 O.co2   1  UNL1       -0.5474
     20 C           4.6525   -1.6680   17.4383 C.2     1  UNL1        0.0708
     21 O           3.9114   -0.9929   16.3225 O.co2   1  UNL1       -0.5474
     22 C           7.8295   -3.6887   24.1740 C.3     1  UNL1        0.1274
     23 C           7.6870   -5.0510   24.7855 C.ar    1  UNL1       -0.0019
     24 C           6.9252   -5.2221   26.0663 C.ar    1  UNL1       -0.0026
     25 C           6.7827   -6.5844   26.6779 C.ar    1  UNL1       -0.0003
     26 C           7.4018   -7.7755   26.0085 C.ar    1  UNL1       -0.0000
     27 C           8.1635   -7.6043   24.7277 C.ar    1  UNL1       -0.0003
     28 C           8.3061   -6.2421   24.1162 C.ar    1  UNL1       -0.0026
@<TRIPOS>UNITY_ATOM_ATTR
19 1
charge -1
@<TRIPOS>BOND
     1    19    20   ar
     2    20    21   ar
     3    20    18    1
     4    18     1    1
     5     1     2   am
     6     2     3    2
     7     2     4    1
     8     4     5    1
     9     5     6    1
    10     6     7    2
    11     6     8   am
    12     8    22    1
    13    22    23    1
    14    23    24   ar
    15    24    25   ar
    16    25    26   ar
    17    26    27   ar
    18    27    28   ar
    19     8     9   am
    20     9    10    2
    21     4    11    1
    22    11    12   ar
    23    12    13   ar
    24    13    14    1
    25    13    15   ar
    26    15    16   ar
    27    16    17   ar
    28    17     1    1
    29     9     4    1
    30    17    11   ar
    31    28    23   ar
@<TRIPOS>MOLECULE
*****
 28 31 0 0 0
SMALL
GASTEIGER

@<TRIPOS>ATOM
      1 N         -12.5434   -5.5545   18.3171 N.am    1  UNL1       -0.2528
      2 C         -13.1684   -4.2466   18.7026 C.2     1  UNL1        0.2414
      3 O         -12.3443   -2.9957   18.6246 O.2     1  UNL1       -0.2737
      4 C         -14.5873   -4.5131   19.1097 C.3     1  UNL1        0.1667
      5 C         -16.0063   -4.7796   19.5169 C.3     1  UNL1        0.1072
      6 C         -16.6313   -3.4717   19.9024 C.2     1  UNL1        0.2329
      7 O         -18.0414   -3.2734   20.3740 O.2     1  UNL1       -0.2744
      8 N         -15.5988   -2.3968   19.7335 N.am    1  UNL1       -0.2249
      9 C         -14.3355   -3.0405   19.2436 C.2     1  UNL1        0.2434
     10 O         -13.1325   -2.1811   18.9901 O.2     1  UNL1       -0.2736
     11 C         -14.8392   -5.9858   18.9758 C.ar    1  UNL1        0.0087
     12 C         -16.0556   -6.8238   19.2367 C.ar    1  UNL1        0.0093
     13 C         -16.0087   -8.3054   19.0077 C.ar    1  UNL1        0.0575
     14 CL        -17.2251   -9.1435   19.2685 Cl      1  UNL1       -0.0823
     15 C         -14.7455   -8.9491   18.5178 C.ar    1  UNL1        0.0127
     16 C         -13.5291   -8.1110   18.2569 C.ar    1  UNL1        0.0155
     17 C         -13.5759   -6.6294   18.4859 C.ar    1  UNL1        0.0512
     18 C         -11.1333   -5.7528   17.8455 C.3     1  UNL1        0.1397
     19 O          -9.3180   -4.9975   19.5438 O.co2   1  UNL1       -0.5474
     20 C         -10.0540   -6.0925   18.8300 C.2     1  UNL1        0.0708
     21 O          -9.7103   -7.5273   19.1009 O.co2   1  UNL1       -0.5474
     22 C         -15.7949   -0.9351   20.0066 C.3     1  UNL1        0.1274
     23 C         -15.7499    0.0516   18.8775 C.ar    1  UNL1       -0.0019
     24 C         -16.6148   -0.1518   17.6690 C.ar    1  UNL1       -0.0026
     25 C         -16.5698    0.8349   16.5400 C.ar    1  UNL1       -0.0003
     26 C         -15.6599    2.0247   16.6195 C.ar    1  UNL1       -0.0000
     27 C         -14.7950    2.2280   17.8281 C.ar    1  UNL1       -0.0003
     28 C         -14.8400    1.2414   18.9571 C.ar    1  UNL1       -0.0026
@<TRIPOS>UNITY_ATOM_ATTR
19 1
charge -1
@<TRIPOS>BOND
     1    19    20   ar
     2    20    21   ar
     3    20    18    1
     4    18     1    1
     5     1     2   am
     6     2     3    2
     7     2     4    1
     8     4     5    1
     9     5     6    1
    10     6     7    2
    11     6     8   am
    12     8    22    1
    13    22    23    1
    14    23    24   ar
    15    24    25   ar
    16    25    26   ar
    17    26    27   ar
    18    27    28   ar
    19     8     9   am
    20     9    10    2
    21     4    11    1
    22    11    12   ar
    23    12    13   ar
    24    13    14    1
    25    13    15   ar
    26    15    16   ar
    27    16    17   ar
    28    17     1    1
    29     9     4    1
    30    17    11   ar
    31    28    23   ar
@<TRIPOS>MOLECULE
*****
 28 31 0 0 0
SMALL
GASTEIGER

@<TRIPOS>ATOM
      1 N          -6.7192  -20.2698   20.3717 N.am    1  UNL1       -0.2528
      2 C          -7.5471  -19.3627   21.2329 C.2     1  UNL1        0.2414
      3 O          -9.0424  -19.4526   21.1567 O.2     1  UNL1       -0.2737
      4 C          -6.6133  -18.5064   22.0358 C.3     1  UNL1        0.1667
      5 C          -5.6795  -17.6500   22.8389 C.3     1  UNL1        0.1072
      6 C          -6.5074  -16.7429   23.7001 C.2     1  UNL1        0.2329
      7 O          -5.9821  -15.7197   24.6630 O.2     1  UNL1       -0.2744
      8 N          -7.9529  -17.0385   23.4293 N.am    1  UNL1       -0.2249
      9 C          -8.0183  -18.1284   22.4008 C.2     1  UNL1        0.2434
     10 O          -9.3608  -18.6189   21.9455 O.2     1  UNL1       -0.2736
     11 C          -5.2083  -18.8843   21.6709 C.ar    1  UNL1        0.0087
     12 C          -3.8778  -18.3768   22.1423 C.ar    1  UNL1        0.0093
     13 C          -2.6128  -18.9592   21.5852 C.ar    1  UNL1        0.0575
     14 CL         -1.2822  -18.4517   22.0566 Cl      1  UNL1       -0.0823
     15 C          -2.6782  -20.0491   20.5567 C.ar    1  UNL1        0.0127
     16 C          -4.0087  -20.5566   20.0853 C.ar    1  UNL1        0.0155
     17 C          -5.2737  -19.9742   20.6424 C.ar    1  UNL1        0.0512
     18 C          -7.2445  -21.2930   19.4088 C.3     1  UNL1        0.1397
     19 O          -8.8586  -21.9365   17.4774 O.co2   1  UNL1       -0.5474
     20 C          -8.2322  -20.8924   18.3535 C.2     1  UNL1        0.0708
     21 O          -8.5938  -19.4477   18.1743 O.co2   1  UNL1       -0.5474
     22 C          -9.1268  -16.3630   24.0739 C.3     1  UNL1        0.1274
     23 C         -10.5173  -16.8571   23.8048 C.ar    1  UNL1       -0.0019
     24 C         -11.0332  -18.0709   24.5195 C.ar    1  UNL1       -0.0026
     25 C         -12.4238  -18.5650   24.2504 C.ar    1  UNL1       -0.0003
     26 C         -13.2982  -17.8454   23.2669 C.ar    1  UNL1       -0.0000
     27 C         -12.7823  -16.6316   22.5523 C.ar    1  UNL1       -0.0003
     28 C         -11.3918  -16.1375   22.8213 C.ar    1  UNL1       -0.0026
@<TRIPOS>UNITY_ATOM_ATTR
19 1
charge -1
@<TRIPOS>BOND
     1    19    20   ar
     2    20    21   ar
     3    20    18    1
     4    18     1    1
     5     1     2   am
     6     2     3    2
     7     2     4    1
     8     4     5    1
     9     5     6    1
    10     6     7    2
    11     6     8   am
    12     8    22    1
    13    22    23    1
    14    23    24   ar
    15    24    25   ar
    16    25    26   ar
    17    26    27   ar
    18    27    28   ar
    19     8     9   am
    20     9    10    2
    21     4    11    1
    22    11    12   ar
    23    12    13   ar
    24    13    14    1
    25    13    15   ar
    26    15    16   ar
    27    16    17   ar
    28    17     1    1
    29     9     4    1
    30    17    11   ar
    31    28    23   ar
@<TRIPOS>MOLECULE
*****
 28 31 0 0 0
SMALL
GASTEIGER

@<TRIPOS>ATOM
      1 N           7.2630   -4.1049   26.0475 N.am    1  UNL1       -0.2528
      2 C           6.8767   -3.6157   27.4118 C.2     1  UNL1        0.2414
      3 O           6.3929   -2.2046   27.5684 O.2     1  UNL1       -0.2737
      4 C           7.0799   -4.7412   28.3824 C.3     1  UNL1        0.1667
      5 C           7.2831   -5.8667   29.3531 C.3     1  UNL1        0.1072
      6 C           6.8968   -5.3775   30.7174 C.2     1  UNL1        0.2329
      7 O           6.9441   -6.1759   31.9864 O.2     1  UNL1       -0.2744
      8 N           6.4549   -3.9497   30.5901 N.am    1  UNL1       -0.2249
      9 C           6.5680   -3.5565   29.1470 C.2     1  UNL1        0.2434
     10 O           6.1843   -2.1645   28.7404 O.2     1  UNL1       -0.2736
     11 C           7.5917   -5.9259   27.6179 C.ar    1  UNL1        0.0087
     12 C           7.9694   -7.3119   28.0494 C.ar    1  UNL1        0.0093
     13 C           8.4602   -8.3047   27.0377 C.ar    1  UNL1        0.0575
     14 CL          8.8379   -9.6909   27.4692 Cl      1  UNL1       -0.0823
     15 C           8.5734   -7.9114   25.5946 C.ar    1  UNL1        0.0127
     16 C           8.1957   -6.5254   25.1632 C.ar    1  UNL1        0.0155
     17 C           7.7049   -5.5326   26.1748 C.ar    1  UNL1        0.0512
     18 C           7.2157   -3.3064   24.7785 C.3     1  UNL1        0.1397
     19 O           6.5849   -4.6393   22.6395 O.co2   1  UNL1       -0.5474
     20 C           6.2216   -3.6538   23.7104 C.2     1  UNL1        0.0708
     21 O           4.8641   -3.0157   23.7131 O.co2   1  UNL1       -0.5474
     22 C           5.9827   -3.0698   31.7092 C.3     1  UNL1        0.1274
     23 C           6.9759   -2.2991   32.5277 C.ar    1  UNL1       -0.0019
     24 C           6.5152   -1.1619   33.3904 C.ar    1  UNL1       -0.0026
     25 C           7.5084   -0.3912   34.2089 C.ar    1  UNL1       -0.0003
     26 C           8.9622   -0.7579   34.1645 C.ar    1  UNL1       -0.0000
     27 C           9.4229   -1.8952   33.3017 C.ar    1  UNL1       -0.0003
     28 C           8.4297   -2.6658   32.4833 C.ar    1  UNL1       -0.0026
@<TRIPOS>UNITY_ATOM_ATTR
19 1
charge -1
@<TRIPOS>BOND
     1    19    20   ar
     2    20    21   ar
     3    20    18    1
     4    18     1    1
     5     1     2   am
     6     2     3    2
     7     2     4    1
     8     4     5    1
     9     5     6    1
    10     6     7    2
    11     6     8   am
    12     8    22    1
    13    22    23    1
    14    23    24   ar
    15    24    25   ar
    16    25    26   ar
    17    26    27   ar
    18    27    28   ar
    19     8     9   am
    20     9    10    2
    21     4    11    1
    22    11    12   ar
    23    12    13   ar
    24    13    14    1
    25    13    15   ar
    26    15    16   ar
    27    16    17   ar
    28    17     1    1
    29     9     4    1
    30    17    11   ar
    31    28    23   ar
@<TRIPOS>MOLECULE
*****
 28 31 0 0 0
SMALL
GASTEIGER

@<TRIPOS>ATOM
      1 N         -17.1512   -4.1931   18.6026 N.am    1  UNL1       -0.2528
      2 C         -15.8645   -4.8743   18.2415 C.2     1  UNL1        0.2414
      3 O         -14.7308   -4.0506   17.7064 O.2     1  UNL1       -0.2737
      4 C         -16.0214   -6.3396   18.5213 C.3     1  UNL1        0.1667
      5 C         -16.1782   -7.8049   18.8012 C.3     1  UNL1        0.1072
      6 C         -14.8916   -8.4861   18.4401 C.2     1  UNL1        0.2329
      7 O         -14.6069   -9.9539   18.5608 O.2     1  UNL1       -0.2744
      8 N         -13.9395   -7.4419   17.9370 N.am    1  UNL1       -0.2249
      9 C         -14.6377   -6.1153   17.9872 C.2     1  UNL1        0.2434
     10 O         -13.9022   -4.8887   17.5347 O.2     1  UNL1       -0.2736
     11 C         -17.4050   -6.5640   19.0555 C.ar    1  UNL1        0.0087
     12 C         -18.1193   -7.8049   19.5025 C.ar    1  UNL1        0.0093
     13 C         -19.5318   -7.7192   19.9999 C.ar    1  UNL1        0.0575
     14 CL        -20.2461   -8.9601   20.4470 Cl      1  UNL1       -0.0823
     15 C         -20.2301   -6.3925   20.0501 C.ar    1  UNL1        0.0127
     16 C         -19.5158   -5.1516   19.6030 C.ar    1  UNL1        0.0155
     17 C         -18.1033   -5.2374   19.1057 C.ar    1  UNL1        0.0512
     18 C         -17.4358   -2.7253   18.4819 C.3     1  UNL1        0.1397
     19 O         -15.8308   -1.2978   19.9434 O.co2   1  UNL1       -0.5474
     20 C         -17.2077   -1.8181   19.6544 C.2     1  UNL1        0.0708
     21 O         -18.3564   -1.4312   20.5381 O.co2   1  UNL1       -0.5474
     22 C         -12.5357   -7.6820   17.4664 C.3     1  UNL1        0.1274
     23 C         -11.5082   -6.5956   17.5862 C.ar    1  UNL1       -0.0019
     24 C         -11.0128   -5.8932   16.3569 C.ar    1  UNL1       -0.0026
     25 C          -9.9853   -4.8068   16.4767 C.ar    1  UNL1       -0.0003
     26 C          -9.4534   -4.4231   17.8257 C.ar    1  UNL1       -0.0000
     27 C          -9.9489   -5.1256   19.0549 C.ar    1  UNL1       -0.0003
     28 C         -10.9763   -6.2119   18.9352 C.ar    1  UNL1       -0.0026
@<TRIPOS>UNITY_ATOM_ATTR
19 1
charge -1
@<TRIPOS>BOND
     1    19    20   ar
     2    20    21   ar
     3    20    18    1
     4    18     1    1
     5     1     2   am
     6     2     3    2
     7     2     4    1
     8     4     5    1
     9     5     6    1
    10     6     7    2
    11     6     8   am
    12     8    22    1
    13    22    23    1
    14    23    24   ar
    15    24    25   ar
    16    25    26   ar
    17    26    27   ar
    18    27    28   ar
    19     8     9   am
    20     9    10    2
    21     4    11    1
    22    11    12   ar
    23    12    13   ar
    24    13    14    1
    25    13    15   ar
    26    15    16   ar
    27    16    17   ar
    28    17     1    1
    29     9     4    1
    30    17    11   ar
    31    28    23   ar
