@<TRIPOS>MOLECULE
*****
 22 24 0 0 0
SMALL
GASTEIGER

@<TRIPOS>ATOM
      1 N          -8.2487  -18.5900   20.6904 N.pl3   1  UNL1       -0.3133
      2 H          -8.3753  -18.1639   19.8119 H       1  UNL1        0.1485
      3 C          -7.0340  -18.2709   21.5107 C.ar    1  UNL1        0.1450
      4 N          -5.7032  -18.8544   21.1386 N.ar    1  UNL1       -0.2263
      5 C          -4.4886  -18.5353   21.9589 C.ar    1  UNL1        0.1193
      6 C          -4.6048  -17.6327   23.1513 C.ar    1  UNL1        0.1008
      7 N          -5.9356  -17.0492   23.5234 N.ar    1  UNL1       -0.3053
      8 C          -6.3549  -16.1346   24.6359 C.ar    1  UNL1        0.0380
      9 C          -5.4578  -15.5660   25.6952 C.3     1  UNL1        0.0500
     10 C          -7.8286  -15.8884   24.5032 C.ar    1  UNL1       -0.0083
     11 C          -8.6640  -15.0304   25.4065 C.3     1  UNL1        0.0323
     12 C          -8.3202  -16.6509   23.3086 C.ar    1  UNL1        0.0172
     13 C          -7.1502  -17.3683   22.7031 C.ar    1  UNL1        0.0951
     14 C          -9.2704  -19.5583   21.2085 C.3     1  UNL1        0.1148
     15 C          -9.5694  -20.2627   24.1093 C.3     1  UNL1        0.0307
     16 C         -10.6022  -19.4098   23.4343 C.ar    1  UNL1       -0.0245
     17 C         -11.7847  -18.9090   24.2097 C.ar    1  UNL1       -0.0045
     18 C         -12.8176  -18.0561   23.5347 C.ar    1  UNL1       -0.0007
     19 C         -12.6681  -17.7039   22.0843 C.ar    1  UNL1       -0.0045
     20 C         -11.4857  -18.2046   21.3089 C.ar    1  UNL1       -0.0245
     21 C         -11.3362  -17.8524   19.8585 C.3     1  UNL1        0.0307
     22 C         -10.4528  -19.0576   21.9839 C.ar    1  UNL1       -0.0105
@<TRIPOS>BOND
     1    15    16    1
     2    16    17   ar
     3    17    18   ar
     4    18    19   ar
     5    19    20   ar
     6    20    21    1
     7    20    22   ar
     8    22    14    1
     9    14     1    1
    10     1     3    1
    11     3     4   ar
    12     4     5   ar
    13     5     6   ar
    14     6     7   ar
    15     7     8   ar
    16     8     9    1
    17     8    10   ar
    18    10    11    1
    19    10    12   ar
    20    12    13   ar
    21    22    16   ar
    22    13     3   ar
    23    13     7   ar
    24     1     2    1
@<TRIPOS>MOLECULE
*****
 22 24 0 0 0
SMALL
GASTEIGER

@<TRIPOS>ATOM
      1 N          -8.9831  -15.5213   22.8778 N.pl3   1  UNL1       -0.3133
      2 H          -9.1368  -14.7789   22.2498 H       1  UNL1        0.1485
      3 C          -7.5843  -15.8912   23.2737 C.ar    1  UNL1        0.1450
      4 N          -6.8354  -15.0449   24.2601 N.ar    1  UNL1       -0.2263
      5 C          -5.4367  -15.4149   24.6560 C.ar    1  UNL1        0.1193
      6 C          -4.7869  -16.6311   24.0656 C.ar    1  UNL1        0.1008
      7 N          -5.5358  -17.4774   23.0793 N.ar    1  UNL1       -0.3053
      8 C          -5.1581  -18.7242   22.3358 C.ar    1  UNL1        0.0380
      9 C          -3.8455  -19.4440   22.4311 C.3     1  UNL1        0.0500
     10 C          -6.3233  -19.1249   21.4804 C.ar    1  UNL1       -0.0083
     11 C          -6.3805  -20.3158   20.5701 C.3     1  UNL1        0.0323
     12 C          -7.4212  -18.1257   21.6952 C.ar    1  UNL1        0.0172
     13 C          -6.9345  -17.1075   22.6833 C.ar    1  UNL1        0.0951
     14 C         -10.1474  -16.2827   23.4386 C.3     1  UNL1        0.1148
     15 C         -11.1779  -16.5679   20.6356 C.3     1  UNL1        0.0307
     16 C         -11.0012  -17.7831   21.4970 C.ar    1  UNL1       -0.0245
     17 C         -11.3397  -19.1410   20.9569 C.ar    1  UNL1       -0.0045
     18 C         -11.1630  -20.3562   21.8183 C.ar    1  UNL1       -0.0007
     19 C         -10.6477  -20.2136   23.2198 C.ar    1  UNL1       -0.0045
     20 C         -10.3092  -18.8558   23.7599 C.ar    1  UNL1       -0.0245
     21 C          -9.7940  -18.7132   25.1614 C.3     1  UNL1        0.0307
     22 C         -10.4859  -17.6405   22.8985 C.ar    1  UNL1       -0.0105
@<TRIPOS>BOND
     1    15    16    1
     2    16    17   ar
     3    17    18   ar
     4    18    19   ar
     5    19    20   ar
     6    20    21    1
     7    20    22   ar
     8    22    14    1
     9    14     1    1
    10     1     3    1
    11     3     4   ar
    12     4     5   ar
    13     5     6   ar
    14     6     7   ar
    15     7     8   ar
    16     8     9    1
    17     8    10   ar
    18    10    11    1
    19    10    12   ar
    20    12    13   ar
    21    22    16   ar
    22    13     3   ar
    23    13     7   ar
    24     1     2    1
@<TRIPOS>MOLECULE
*****
 22 24 0 0 0
SMALL
GASTEIGER

@<TRIPOS>ATOM
      1 N          -8.4306  -18.6745   21.0415 N.pl3   1  UNL1       -0.3133
      2 H          -8.3496  -18.5585   20.0672 H       1  UNL1        0.1485
      3 C          -7.4938  -17.9515   21.9634 C.ar    1  UNL1        0.1450
      4 N          -8.0162  -16.8809   22.8749 N.ar    1  UNL1       -0.2263
      5 C          -7.0794  -16.1579   23.7967 C.ar    1  UNL1        0.1193
      6 C          -5.6203  -16.5057   23.8071 C.ar    1  UNL1        0.1008
      7 N          -5.0980  -17.5763   22.8957 N.ar    1  UNL1       -0.3053
      8 C          -3.7205  -18.1317   22.6857 C.ar    1  UNL1        0.0380
      9 C          -2.4761  -17.6972   23.4017 C.3     1  UNL1        0.0500
     10 C          -3.8059  -19.1980   21.6341 C.ar    1  UNL1       -0.0083
     11 C          -2.6619  -20.0169   21.1138 C.3     1  UNL1        0.0323
     12 C          -5.2362  -19.3015   21.1941 C.ar    1  UNL1        0.0172
     13 C          -6.0347  -18.2992   21.9738 C.ar    1  UNL1        0.0951
     14 C          -9.4907  -19.5743   21.6041 C.3     1  UNL1        0.1148
     15 C         -11.3704  -17.9532   19.9192 C.3     1  UNL1        0.0307
     16 C         -11.6674  -18.1748   21.3727 C.ar    1  UNL1       -0.0245
     17 C         -12.9042  -17.5858   21.9838 C.ar    1  UNL1       -0.0045
     18 C         -13.2011  -17.8073   23.4373 C.ar    1  UNL1       -0.0007
     19 C         -12.2613  -18.6179   24.2798 C.ar    1  UNL1       -0.0045
     20 C         -11.0245  -19.2068   23.6687 C.ar    1  UNL1       -0.0245
     21 C         -10.0847  -20.0174   24.5112 C.3     1  UNL1        0.0307
     22 C         -10.7275  -18.9853   22.2151 C.ar    1  UNL1       -0.0105
@<TRIPOS>BOND
     1    15    16    1
     2    16    17   ar
     3    17    18   ar
     4    18    19   ar
     5    19    20   ar
     6    20    21    1
     7    20    22   ar
     8    22    14    1
     9    14     1    1
    10     1     3    1
    11     3     4   ar
    12     4     5   ar
    13     5     6   ar
    14     6     7   ar
    15     7     8   ar
    16     8     9    1
    17     8    10   ar
    18    10    11    1
    19    10    12   ar
    20    12    13   ar
    21    22    16   ar
    22    13     3   ar
    23    13     7   ar
    24     1     2    1
@<TRIPOS>MOLECULE
*****
 22 24 0 0 0
SMALL
GASTEIGER

@<TRIPOS>ATOM
      1 N          -9.2154  -15.7276   22.4700 N.pl3   1  UNL1       -0.3133
      2 H          -9.3705  -15.1410   21.6947 H       1  UNL1        0.1485
      3 C          -7.8169  -15.9867   22.9466 C.ar    1  UNL1        0.1450
      4 N          -7.1600  -15.0316   23.8986 N.ar    1  UNL1       -0.2263
      5 C          -5.7615  -15.2906   24.3752 C.ar    1  UNL1        0.1193
      6 C          -5.0200  -16.5048   23.8999 C.ar    1  UNL1        0.1008
      7 N          -5.6769  -17.4599   22.9479 N.ar    1  UNL1       -0.3053
      8 C          -5.1983  -18.7310   22.3115 C.ar    1  UNL1        0.0380
      9 C          -3.8532  -19.3644   22.5101 C.3     1  UNL1        0.0500
     10 C          -6.3009  -19.2576   21.4415 C.ar    1  UNL1       -0.0083
     11 C          -6.2520  -20.5101   20.6174 C.3     1  UNL1        0.0323
     12 C          -7.4610  -18.3119   21.5402 C.ar    1  UNL1        0.0172
     13 C          -7.0753  -17.2008   22.4713 C.ar    1  UNL1        0.0951
     14 C         -10.3775  -16.3625   23.1745 C.3     1  UNL1        0.1148
     15 C          -9.4121  -17.6062   25.7281 C.3     1  UNL1        0.0307
     16 C          -9.9437  -18.4733   24.6257 C.ar    1  UNL1       -0.0245
     17 C          -9.9927  -19.9624   24.8001 C.ar    1  UNL1       -0.0045
     18 C         -10.5244  -20.8295   23.6976 C.ar    1  UNL1       -0.0007
     19 C         -11.0071  -20.2077   22.4208 C.ar    1  UNL1       -0.0045
     20 C         -10.9582  -18.7187   22.2464 C.ar    1  UNL1       -0.0245
     21 C         -11.4409  -18.0968   20.9696 C.3     1  UNL1        0.0307
     22 C         -10.4265  -17.8515   23.3489 C.ar    1  UNL1       -0.0105
@<TRIPOS>BOND
     1    15    16    1
     2    16    17   ar
     3    17    18   ar
     4    18    19   ar
     5    19    20   ar
     6    20    21    1
     7    20    22   ar
     8    22    14    1
     9    14     1    1
    10     1     3    1
    11     3     4   ar
    12     4     5   ar
    13     5     6   ar
    14     6     7   ar
    15     7     8   ar
    16     8     9    1
    17     8    10   ar
    18    10    11    1
    19    10    12   ar
    20    12    13   ar
    21    22    16   ar
    22    13     3   ar
    23    13     7   ar
    24     1     2    1
@<TRIPOS>MOLECULE
*****
 22 24 0 0 0
SMALL
GASTEIGER

@<TRIPOS>ATOM
      1 N          -6.8930  -18.4024   20.7832 N.pl3   1  UNL1       -0.3133
      2 H          -6.4964  -17.7574   20.1541 H       1  UNL1        0.1485
      3 C          -8.3831  -18.5587   20.8573 C.ar    1  UNL1        0.1450
      4 N          -9.1680  -18.8615   19.6155 N.ar    1  UNL1       -0.2263
      5 C         -10.6580  -19.0177   19.6896 C.ar    1  UNL1        0.1193
      6 C         -11.3630  -18.8711   21.0055 C.ar    1  UNL1        0.1008
      7 N         -10.5780  -18.5683   22.2473 N.ar    1  UNL1       -0.3053
      8 C         -10.9944  -18.3699   23.6746 C.ar    1  UNL1        0.0380
      9 C         -12.3972  -18.4383   24.2013 C.3     1  UNL1        0.0500
     10 C          -9.7618  -18.0910   24.4826 C.ar    1  UNL1       -0.0083
     11 C          -9.7156  -17.8315   25.9593 C.3     1  UNL1        0.0323
     12 C          -8.5836  -18.1171   23.5547 C.ar    1  UNL1        0.0172
     13 C          -9.0880  -18.4121   22.1732 C.ar    1  UNL1        0.0951
     14 C          -6.0073  -19.2289   21.6678 C.3     1  UNL1        0.1148
     15 C          -4.9297  -17.1674   23.5622 C.3     1  UNL1        0.0307
     16 C          -3.9946  -17.9247   22.6666 C.ar    1  UNL1       -0.0245
     17 C          -2.5206  -17.6512   22.7182 C.ar    1  UNL1       -0.0045
     18 C          -1.5855  -18.4084   21.8227 C.ar    1  UNL1       -0.0007
     19 C          -2.1243  -19.4392   20.8755 C.ar    1  UNL1       -0.0045
     20 C          -3.5982  -19.7127   20.8238 C.ar    1  UNL1       -0.0245
     21 C          -4.1370  -20.7435   19.8766 C.3     1  UNL1        0.0307
     22 C          -4.5334  -18.9554   21.7194 C.ar    1  UNL1       -0.0105
@<TRIPOS>BOND
     1    15    16    1
     2    16    17   ar
     3    17    18   ar
     4    18    19   ar
     5    19    20   ar
     6    20    21    1
     7    20    22   ar
     8    22    14    1
     9    14     1    1
    10     1     3    1
    11     3     4   ar
    12     4     5   ar
    13     5     6   ar
    14     6     7   ar
    15     7     8   ar
    16     8     9    1
    17     8    10   ar
    18    10    11    1
    19    10    12   ar
    20    12    13   ar
    21    22    16   ar
    22    13     3   ar
    23    13     7   ar
    24     1     2    1
@<TRIPOS>MOLECULE
*****
 22 24 0 0 0
SMALL
GASTEIGER

@<TRIPOS>ATOM
      1 N          -4.9504  -16.2646   23.2361 N.pl3   1  UNL1       -0.3133
      2 H          -4.6016  -15.4645   22.7807 H       1  UNL1        0.1485
      3 C          -6.2727  -16.2091   23.9423 C.ar    1  UNL1        0.1450
      4 N          -6.3754  -15.5640   25.2926 N.ar    1  UNL1       -0.2263
      5 C          -7.6976  -15.5085   25.9986 C.ar    1  UNL1        0.1193
      6 C          -8.9172  -16.0982   25.3544 C.ar    1  UNL1        0.1008
      7 N          -8.8145  -16.7432   24.0042 N.ar    1  UNL1       -0.3053
      8 C          -9.8364  -17.4041   23.1272 C.ar    1  UNL1        0.0380
      9 C         -11.2931  -17.5716   23.4429 C.3     1  UNL1        0.0500
     10 C          -9.1457  -17.8680   21.8791 C.ar    1  UNL1       -0.0083
     11 C          -9.7906  -18.5808   20.7275 C.3     1  UNL1        0.0323
     12 C          -7.6969  -17.4938   21.9847 C.ar    1  UNL1        0.0172
     13 C          -7.4923  -16.7987   23.2981 C.ar    1  UNL1        0.0951
     14 C          -4.1597  -17.5391   23.2239 C.3     1  UNL1        0.1148
     15 C          -1.9059  -16.2620   21.7107 C.3     1  UNL1        0.0307
     16 C          -2.5764  -17.4876   21.1646 C.ar    1  UNL1       -0.0245
     17 C          -2.1201  -18.0746   19.8618 C.ar    1  UNL1       -0.0045
     18 C          -2.7906  -19.3002   19.3157 C.ar    1  UNL1       -0.0007
     19 C          -3.9175  -19.9388   20.0722 C.ar    1  UNL1       -0.0045
     20 C          -4.3738  -19.3518   21.3749 C.ar    1  UNL1       -0.0245
     21 C          -5.5007  -19.9904   22.1315 C.3     1  UNL1        0.0307
     22 C          -3.7033  -18.1261   21.9212 C.ar    1  UNL1       -0.0105
@<TRIPOS>BOND
     1    15    16    1
     2    16    17   ar
     3    17    18   ar
     4    18    19   ar
     5    19    20   ar
     6    20    21    1
     7    20    22   ar
     8    22    14    1
     9    14     1    1
    10     1     3    1
    11     3     4   ar
    12     4     5   ar
    13     5     6   ar
    14     6     7   ar
    15     7     8   ar
    16     8     9    1
    17     8    10   ar
    18    10    11    1
    19    10    12   ar
    20    12    13   ar
    21    22    16   ar
    22    13     3   ar
    23    13     7   ar
    24     1     2    1
@<TRIPOS>MOLECULE
*****
 22 24 0 0 0
SMALL
GASTEIGER

@<TRIPOS>ATOM
      1 N          -6.8583  -19.0095   21.5828 N.pl3   1  UNL1       -0.3133
      2 H          -6.8278  -18.5047   20.7381 H       1  UNL1        0.1485
      3 C          -8.1745  -19.2708   22.2533 C.ar    1  UNL1        0.1450
      4 N          -8.2678  -20.2879   23.3517 N.ar    1  UNL1       -0.2263
      5 C          -9.5840  -20.5491   24.0221 C.ar    1  UNL1        0.1193
      6 C         -10.8068  -19.7932   23.5941 C.ar    1  UNL1        0.1008
      7 N         -10.7135  -18.7761   22.4956 N.ar    1  UNL1       -0.3053
      8 C         -11.7404  -17.8832   21.8646 C.ar    1  UNL1        0.0380
      9 C         -13.1937  -17.8153   22.2298 C.3     1  UNL1        0.0500
     10 C         -11.0589  -17.0701   20.8041 C.ar    1  UNL1       -0.0083
     11 C         -11.7111  -16.0464   19.9227 C.3     1  UNL1        0.0323
     12 C          -9.6108  -17.4605   20.7798 C.ar    1  UNL1        0.0172
     13 C          -9.3974  -18.5148   21.8252 C.ar    1  UNL1        0.0951
     14 C          -5.5887  -19.5173   22.1994 C.3     1  UNL1        0.1148
     15 C          -4.4569  -17.1847   23.7086 C.3     1  UNL1        0.0307
     16 C          -3.7041  -17.7632   22.5473 C.ar    1  UNL1       -0.0245
     17 C          -2.3853  -17.1754   22.1406 C.ar    1  UNL1       -0.0045
     18 C          -1.6325  -17.7538   20.9794 C.ar    1  UNL1       -0.0007
     19 C          -2.1984  -18.9201   20.2247 C.ar    1  UNL1       -0.0045
     20 C          -3.5171  -19.5080   20.6314 C.ar    1  UNL1       -0.0245
     21 C          -4.0830  -20.6743   19.8768 C.3     1  UNL1        0.0307
     22 C          -4.2700  -18.9295   21.7927 C.ar    1  UNL1       -0.0105
@<TRIPOS>BOND
     1    15    16    1
     2    16    17   ar
     3    17    18   ar
     4    18    19   ar
     5    19    20   ar
     6    20    21    1
     7    20    22   ar
     8    22    14    1
     9    14     1    1
    10     1     3    1
    11     3     4   ar
    12     4     5   ar
    13     5     6   ar
    14     6     7   ar
    15     7     8   ar
    16     8     9    1
    17     8    10   ar
    18    10    11    1
    19    10    12   ar
    20    12    13   ar
    21    22    16   ar
    22    13     3   ar
    23    13     7   ar
    24     1     2    1
@<TRIPOS>MOLECULE
*****
 22 24 0 0 0
SMALL
GASTEIGER

@<TRIPOS>ATOM
      1 N          -8.3162  -17.7994   21.9472 N.pl3   1  UNL1       -0.3133
      2 H          -8.5539  -18.5848   21.4032 H       1  UNL1        0.1485
      3 C          -6.9036  -17.6111   22.4155 C.ar    1  UNL1        0.1450
      4 N          -6.5902  -16.5780   23.4568 N.ar    1  UNL1       -0.2263
      5 C          -5.1777  -16.3897   23.9251 C.ar    1  UNL1        0.1193
      6 C          -4.0786  -17.2345   23.3521 C.ar    1  UNL1        0.1008
      7 N          -4.3921  -18.2676   22.3108 N.ar    1  UNL1       -0.3053
      8 C          -3.5243  -19.2406   21.5691 C.ar    1  UNL1        0.0380
      9 C          -2.0407  -19.3965   21.7265 C.3     1  UNL1        0.0500
     10 C          -4.4004  -20.0303   20.6423 C.ar    1  UNL1       -0.0083
     11 C          -3.9468  -21.1145   19.7103 C.3     1  UNL1        0.0323
     12 C          -5.8098  -19.5453   20.8113 C.ar    1  UNL1        0.0172
     13 C          -5.8046  -18.4559   21.8425 C.ar    1  UNL1        0.0951
     14 C          -9.3666  -16.7911   22.3076 C.3     1  UNL1        0.1148
     15 C          -9.8505  -18.1856   24.9194 C.3     1  UNL1        0.0307
     16 C         -10.9912  -17.9427   23.9762 C.ar    1  UNL1       -0.0245
     17 C         -12.3741  -18.3970   24.3389 C.ar    1  UNL1       -0.0045
     18 C         -13.5148  -18.1542   23.3958 C.ar    1  UNL1       -0.0007
     19 C         -13.2729  -17.4569   22.0899 C.ar    1  UNL1       -0.0045
     20 C         -11.8902  -17.0026   21.7272 C.ar    1  UNL1       -0.0245
     21 C         -11.6482  -16.3053   20.4213 C.3     1  UNL1        0.0307
     22 C         -10.7493  -17.2454   22.6704 C.ar    1  UNL1       -0.0105
@<TRIPOS>BOND
     1    15    16    1
     2    16    17   ar
     3    17    18   ar
     4    18    19   ar
     5    19    20   ar
     6    20    21    1
     7    20    22   ar
     8    22    14    1
     9    14     1    1
    10     1     3    1
    11     3     4   ar
    12     4     5   ar
    13     5     6   ar
    14     6     7   ar
    15     7     8   ar
    16     8     9    1
    17     8    10   ar
    18    10    11    1
    19    10    12   ar
    20    12    13   ar
    21    22    16   ar
    22    13     3   ar
    23    13     7   ar
    24     1     2    1
@<TRIPOS>MOLECULE
*****
 22 24 0 0 0
SMALL
GASTEIGER

@<TRIPOS>ATOM
      1 N          -8.5095  -19.4131   21.1951 N.pl3   1  UNL1       -0.3133
      2 H          -9.0870  -20.1818   20.9833 H       1  UNL1        0.1485
      3 C          -7.0175  -19.5589   21.1420 C.ar    1  UNL1        0.1450
      4 N          -6.3958  -20.5873   20.2445 N.ar    1  UNL1       -0.2263
      5 C          -4.9038  -20.7330   20.1915 C.ar    1  UNL1        0.1193
      6 C          -4.0336  -19.8502   21.0360 C.ar    1  UNL1        0.1008
      7 N          -4.6553  -18.8217   21.9336 N.ar    1  UNL1       -0.3053
      8 C          -4.0578  -17.8173   22.8739 C.ar    1  UNL1        0.0380
      9 C          -2.5945  -17.6148   23.1343 C.3     1  UNL1        0.0500
     10 C          -5.1805  -17.0508   23.5080 C.ar    1  UNL1       -0.0083
     11 C          -5.0370  -15.9473   24.5139 C.3     1  UNL1        0.0323
     12 C          -6.4719  -17.5815   22.9597 C.ar    1  UNL1        0.0172
     13 C          -6.1472  -18.6760   21.9866 C.ar    1  UNL1        0.0951
     14 C          -9.1215  -18.0962   21.5707 C.3     1  UNL1        0.1148
     15 C         -11.4098  -17.3156   19.7946 C.3     1  UNL1        0.0307
     16 C         -11.6599  -17.6568   21.2336 C.ar    1  UNL1       -0.0245
     17 C         -13.0542  -17.6077   21.7847 C.ar    1  UNL1       -0.0045
     18 C         -13.3043  -17.9489   23.2238 C.ar    1  UNL1       -0.0007
     19 C         -12.1602  -18.3392   24.1119 C.ar    1  UNL1       -0.0045
     20 C         -10.7659  -18.3883   23.5609 C.ar    1  UNL1       -0.0245
     21 C          -9.6218  -18.7786   24.4489 C.3     1  UNL1        0.0307
     22 C         -10.5158  -18.0471   22.1217 C.ar    1  UNL1       -0.0105
@<TRIPOS>BOND
     1    15    16    1
     2    16    17   ar
     3    17    18   ar
     4    18    19   ar
     5    19    20   ar
     6    20    21    1
     7    20    22   ar
     8    22    14    1
     9    14     1    1
    10     1     3    1
    11     3     4   ar
    12     4     5   ar
    13     5     6   ar
    14     6     7   ar
    15     7     8   ar
    16     8     9    1
    17     8    10   ar
    18    10    11    1
    19    10    12   ar
    20    12    13   ar
    21    22    16   ar
    22    13     3   ar
    23    13     7   ar
    24     1     2    1
