@<TRIPOS>MOLECULE
*****
 22 24 0 0 0
SMALL
GASTEIGER

@<TRIPOS>ATOM
      1 C          -8.6196  -18.7631   21.5789 C.ar    1  UNL1        0.0427
      2 C          -9.1369  -19.5361   20.4021 C.ar    1  UNL1        0.0077
      3 C         -10.2956  -19.0085   19.6089 C.ar    1  UNL1        0.0006
      4 C         -10.9370  -17.7080   19.9925 C.ar    1  UNL1        0.0013
      5 C         -10.4197  -16.9349   21.1694 C.ar    1  UNL1        0.0150
      6 C          -9.2610  -17.4625   21.9626 C.ar    1  UNL1        0.0540
      7 N          -8.7437  -16.6895   23.1393 N.pl3   1  UNL1       -0.3043
      8 C          -7.7804  -15.5592   22.9293 C.3     1  UNL1        0.1079
      9 C          -7.2630  -14.7861   24.1061 C.3     1  UNL1        0.0903
     10 N          -7.7091  -15.1435   25.4929 N.3     1  UNL1       -0.2946
     11 C          -8.6725  -16.2739   25.7030 C.3     1  UNL1        0.0903
     12 C          -9.1898  -17.0469   24.5262 C.3     1  UNL1        0.1079
     13 H          -8.1440  -14.3090   25.8866 H       1  UNL1        0.1233
     14 S          -7.4610  -19.2907   22.3721 S.3     1  UNL1       -0.0860
     15 C          -2.3824  -18.3287   21.8403 C.3     1  UNL1        0.0307
     16 C          -3.6116  -19.0834   21.4288 C.ar    1  UNL1       -0.0253
     17 C          -3.5309  -20.1119   20.3399 C.ar    1  UNL1       -0.0045
     18 C          -4.7601  -20.8666   19.9284 C.ar    1  UNL1        0.0002
     19 C          -6.0701  -20.5929   20.6058 C.ar    1  UNL1        0.0061
     20 C          -6.1509  -19.5644   21.6947 C.ar    1  UNL1        0.0252
     21 C          -4.9217  -18.8097   22.1062 C.ar    1  UNL1       -0.0198
     22 C          -5.0025  -17.7812   23.1951 C.3     1  UNL1        0.0312
@<TRIPOS>BOND
     1    15    16    1
     2    16    17   ar
     3    17    18   ar
     4    18    19   ar
     5    19    20   ar
     6    20    14    1
     7    14     1    1
     8     1     2   ar
     9     2     3   ar
    10     3     4   ar
    11     4     5   ar
    12     5     6   ar
    13     6     7    1
    14     7     8    1
    15     8     9    1
    16     9    10    1
    17    10    11    1
    18    11    12    1
    19    20    21   ar
    20    21    22    1
    21    21    16   ar
    22     6     1   ar
    23    12     7    1
    24    10    13    1
@<TRIPOS>MOLECULE
*****
 22 24 0 0 0
SMALL
GASTEIGER

@<TRIPOS>ATOM
      1 C          -9.1816  -19.0392   22.6310 C.ar    1  UNL1        0.0427
      2 C          -9.1017  -20.0885   23.6999 C.ar    1  UNL1        0.0077
      3 C         -10.2042  -20.2168   24.7089 C.ar    1  UNL1        0.0006
      4 C         -11.3865  -19.2957   24.6491 C.ar    1  UNL1        0.0013
      5 C         -11.4665  -18.2463   23.5802 C.ar    1  UNL1        0.0150
      6 C         -10.3640  -18.1181   22.5711 C.ar    1  UNL1        0.0540
      7 N         -10.4439  -17.0688   21.5023 N.pl3   1  UNL1       -0.3043
      8 C         -11.4056  -17.2309   20.3626 C.3     1  UNL1        0.1079
      9 C         -11.4855  -16.1815   19.2936 C.3     1  UNL1        0.0903
     10 N         -10.6037  -14.9701   19.3644 N.3     1  UNL1       -0.2946
     11 C          -9.6420  -14.8081   20.5042 C.3     1  UNL1        0.0903
     12 C          -9.5621  -15.8574   21.5731 C.3     1  UNL1        0.1079
     13 H         -11.2203  -14.1578   19.3816 H       1  UNL1        0.1233
     14 S          -8.0791  -18.9110   21.6220 S.3     1  UNL1       -0.0860
     15 C          -2.9605  -19.7996   21.5226 C.3     1  UNL1        0.0307
     16 C          -4.1315  -19.0043   22.0189 C.ar    1  UNL1       -0.0253
     17 C          -3.9142  -17.8581   22.9616 C.ar    1  UNL1       -0.0045
     18 C          -5.0852  -17.0628   23.4578 C.ar    1  UNL1        0.0002
     19 C          -6.4735  -17.4137   23.0113 C.ar    1  UNL1        0.0061
     20 C          -6.6909  -18.5600   22.0685 C.ar    1  UNL1        0.0252
     21 C          -5.5199  -19.3553   21.5723 C.ar    1  UNL1       -0.0198
     22 C          -5.7372  -20.5016   20.6295 C.3     1  UNL1        0.0312
@<TRIPOS>BOND
     1    15    16    1
     2    16    17   ar
     3    17    18   ar
     4    18    19   ar
     5    19    20   ar
     6    20    14    1
     7    14     1    1
     8     1     2   ar
     9     2     3   ar
    10     3     4   ar
    11     4     5   ar
    12     5     6   ar
    13     6     7    1
    14     7     8    1
    15     8     9    1
    16     9    10    1
    17    10    11    1
    18    11    12    1
    19    20    21   ar
    20    21    22    1
    21    21    16   ar
    22     6     1   ar
    23    12     7    1
    24    10    13    1
@<TRIPOS>MOLECULE
*****
 22 24 0 0 0
SMALL
GASTEIGER

@<TRIPOS>ATOM
      1 C          -8.9095  -18.6225   21.6583 C.ar    1  UNL1        0.0427
      2 C          -9.5186  -19.2940   20.4633 C.ar    1  UNL1        0.0077
      3 C         -10.5762  -18.5903   19.6657 C.ar    1  UNL1        0.0006
      4 C         -11.0248  -17.2153   20.0630 C.ar    1  UNL1        0.0013
      5 C         -10.4156  -16.5438   21.2581 C.ar    1  UNL1        0.0150
      6 C          -9.3580  -17.2474   22.0558 C.ar    1  UNL1        0.0540
      7 N          -8.7489  -16.5760   23.2508 N.pl3   1  UNL1       -0.3043
      8 C          -9.1775  -16.9714   24.6327 C.3     1  UNL1        0.1079
      9 C          -8.5683  -16.3000   25.8279 C.3     1  UNL1        0.0903
     10 N          -7.5306  -15.2331   25.6409 N.3     1  UNL1       -0.2946
     11 C          -7.1020  -14.8377   24.2588 C.3     1  UNL1        0.0903
     12 C          -7.7112  -15.5091   23.0638 C.3     1  UNL1        0.1079
     13 H          -6.6929  -15.5482   26.1301 H       1  UNL1        0.1233
     14 S          -7.8518  -19.3262   22.4560 S.3     1  UNL1       -0.0860
     15 C          -3.6490  -20.4568   19.6172 C.3     1  UNL1        0.0307
     16 C          -4.3010  -19.6733   20.7177 C.ar    1  UNL1       -0.0253
     17 C          -3.5037  -18.6716   21.4992 C.ar    1  UNL1       -0.0045
     18 C          -4.1557  -17.8881   22.5997 C.ar    1  UNL1        0.0002
     19 C          -5.6050  -18.1063   22.9186 C.ar    1  UNL1        0.0061
     20 C          -6.4025  -19.1080   22.1371 C.ar    1  UNL1        0.0252
     21 C          -5.7505  -19.8915   21.0366 C.ar    1  UNL1       -0.0198
     22 C          -6.5478  -20.8932   20.2551 C.3     1  UNL1        0.0312
@<TRIPOS>BOND
     1    15    16    1
     2    16    17   ar
     3    17    18   ar
     4    18    19   ar
     5    19    20   ar
     6    20    14    1
     7    14     1    1
     8     1     2   ar
     9     2     3   ar
    10     3     4   ar
    11     4     5   ar
    12     5     6   ar
    13     6     7    1
    14     7     8    1
    15     8     9    1
    16     9    10    1
    17    10    11    1
    18    11    12    1
    19    20    21   ar
    20    21    22    1
    21    21    16   ar
    22     6     1   ar
    23    12     7    1
    24    10    13    1
@<TRIPOS>MOLECULE
*****
 22 24 0 0 0
SMALL
GASTEIGER

@<TRIPOS>ATOM
      1 C          -7.3344  -17.9043   22.0412 C.ar    1  UNL1        0.0427
      2 C          -5.9042  -18.3398   22.1617 C.ar    1  UNL1        0.0077
      3 C          -5.4683  -19.6522   21.5806 C.ar    1  UNL1        0.0006
      4 C          -6.4627  -20.5291   20.8791 C.ar    1  UNL1        0.0013
      5 C          -7.8931  -20.0936   20.7586 C.ar    1  UNL1        0.0150
      6 C          -8.3289  -18.7812   21.3396 C.ar    1  UNL1        0.0540
      7 N          -9.7592  -18.3457   21.2191 N.pl3   1  UNL1       -0.3043
      8 C         -10.2096  -17.5753   20.0135 C.3     1  UNL1        0.1079
      9 C         -11.6399  -17.1397   19.8930 C.3     1  UNL1        0.0903
     10 N         -12.6199  -17.4746   20.9781 N.3     1  UNL1       -0.2946
     11 C         -12.1694  -18.2450   22.1838 C.3     1  UNL1        0.0903
     12 C         -10.7392  -18.6805   22.3043 C.3     1  UNL1        0.1079
     13 H         -13.3662  -18.0175   20.5437 H       1  UNL1        0.1233
     14 S          -7.7703  -16.5919   22.6222 S.3     1  UNL1       -0.0860
     15 C          -8.4028  -16.0378   27.7499 C.3     1  UNL1        0.0307
     16 C          -7.5606  -15.8734   26.5197 C.ar    1  UNL1       -0.0253
     17 C          -6.1923  -15.2674   26.6230 C.ar    1  UNL1       -0.0045
     18 C          -5.3501  -15.1030   25.3927 C.ar    1  UNL1        0.0002
     19 C          -5.8760  -15.5444   24.0591 C.ar    1  UNL1        0.0061
     20 C          -7.2444  -16.1504   23.9558 C.ar    1  UNL1        0.0252
     21 C          -8.0866  -16.3149   25.1861 C.ar    1  UNL1       -0.0198
     22 C          -9.4549  -16.9208   25.0828 C.3     1  UNL1        0.0312
@<TRIPOS>BOND
     1    15    16    1
     2    16    17   ar
     3    17    18   ar
     4    18    19   ar
     5    19    20   ar
     6    20    14    1
     7    14     1    1
     8     1     2   ar
     9     2     3   ar
    10     3     4   ar
    11     4     5   ar
    12     5     6   ar
    13     6     7    1
    14     7     8    1
    15     8     9    1
    16     9    10    1
    17    10    11    1
    18    11    12    1
    19    20    21   ar
    20    21    22    1
    21    21    16   ar
    22     6     1   ar
    23    12     7    1
    24    10    13    1
@<TRIPOS>MOLECULE
*****
 22 24 0 0 0
SMALL
GASTEIGER

@<TRIPOS>ATOM
      1 C         -12.5213   -3.9840   19.2911 C.ar    1  UNL1        0.0427
      2 C         -12.9616   -2.5670   19.5106 C.ar    1  UNL1        0.0077
      3 C         -12.2018   -1.4390   18.8779 C.ar    1  UNL1        0.0006
      4 C         -11.0016   -1.7280   18.0258 C.ar    1  UNL1        0.0013
      5 C         -10.5613   -3.1450   17.8063 C.ar    1  UNL1        0.0150
      6 C         -11.3211   -4.2730   18.4389 C.ar    1  UNL1        0.0540
      7 N         -10.8808   -5.6900   18.2194 N.pl3   1  UNL1       -0.3043
      8 C         -11.5088   -6.5106   17.1321 C.3     1  UNL1        0.1079
      9 C         -11.0685   -7.9277   16.9126 C.3     1  UNL1        0.0903
     10 N         -10.0002   -8.5241   17.7804 N.3     1  UNL1       -0.2946
     11 C          -9.3723   -7.7034   18.8678 C.3     1  UNL1        0.0903
     12 C          -9.8126   -6.2865   19.0873 C.3     1  UNL1        0.1079
     13 H          -9.2458   -8.8169   17.1595 H       1  UNL1        0.1233
     14 S         -13.2811   -5.1120   19.9237 S.3     1  UNL1       -0.0860
     15 C         -17.4432   -7.8266   18.4044 C.3     1  UNL1        0.0307
     16 C         -16.8464   -6.5737   18.9736 C.ar    1  UNL1       -0.0253
     17 C         -17.7337   -5.4252   19.3524 C.ar    1  UNL1       -0.0045
     18 C         -17.1369   -4.1722   19.9216 C.ar    1  UNL1        0.0002
     19 C         -15.6527   -4.0679   20.1120 C.ar    1  UNL1        0.0061
     20 C         -14.7653   -5.2164   19.7333 C.ar    1  UNL1        0.0252
     21 C         -15.3621   -6.4693   19.1641 C.ar    1  UNL1       -0.0198
     22 C         -14.4748   -7.6179   18.7853 C.3     1  UNL1        0.0312
@<TRIPOS>BOND
     1    15    16    1
     2    16    17   ar
     3    17    18   ar
     4    18    19   ar
     5    19    20   ar
     6    20    14    1
     7    14     1    1
     8     1     2   ar
     9     2     3   ar
    10     3     4   ar
    11     4     5   ar
    12     5     6   ar
    13     6     7    1
    14     7     8    1
    15     8     9    1
    16     9    10    1
    17    10    11    1
    18    11    12    1
    19    20    21   ar
    20    21    22    1
    21    21    16   ar
    22     6     1   ar
    23    12     7    1
    24    10    13    1
@<TRIPOS>MOLECULE
*****
 22 24 0 0 0
SMALL
GASTEIGER

@<TRIPOS>ATOM
      1 C         -14.6647   -7.3311   17.9138 C.ar    1  UNL1        0.0427
      2 C         -14.8196   -8.7527   17.4613 C.ar    1  UNL1        0.0077
      3 C         -15.7122   -9.6886   18.2212 C.ar    1  UNL1        0.0006
      4 C         -16.4497   -9.2029   19.4336 C.ar    1  UNL1        0.0013
      5 C         -16.2948   -7.7812   19.8862 C.ar    1  UNL1        0.0150
      6 C         -15.4023   -6.8453   19.1263 C.ar    1  UNL1        0.0540
      7 N         -15.2473   -5.4236   19.5788 N.pl3   1  UNL1       -0.3043
      8 C         -16.2681   -4.3965   19.1876 C.3     1  UNL1        0.1079
      9 C         -16.1131   -2.9748   19.6402 C.3     1  UNL1        0.0903
     10 N         -14.9374   -2.5802   20.4839 N.3     1  UNL1       -0.2946
     11 C         -13.9165   -3.6073   20.8751 C.3     1  UNL1        0.0903
     12 C         -14.0715   -5.0290   20.4225 C.3     1  UNL1        0.1079
     13 H         -15.3129   -2.1936   21.3499 H       1  UNL1        0.1233
     14 S         -13.7721   -6.3951   17.1539 S.3     1  UNL1       -0.0860
     15 C          -9.1965   -3.9723   16.7143 C.3     1  UNL1        0.0307
     16 C         -10.0317   -5.0759   17.2925 C.ar    1  UNL1       -0.0253
     17 C          -9.4145   -6.0718   18.2291 C.ar    1  UNL1       -0.0045
     18 C         -10.2497   -7.1754   18.8073 C.ar    1  UNL1        0.0002
     19 C         -11.7023   -7.2832   18.4489 C.ar    1  UNL1        0.0061
     20 C         -12.3196   -6.2873   17.5123 C.ar    1  UNL1        0.0252
     21 C         -11.4844   -5.1837   16.9341 C.ar    1  UNL1       -0.0198
     22 C         -12.1016   -4.1878   15.9975 C.3     1  UNL1        0.0312
@<TRIPOS>BOND
     1    15    16    1
     2    16    17   ar
     3    17    18   ar
     4    18    19   ar
     5    19    20   ar
     6    20    14    1
     7    14     1    1
     8     1     2   ar
     9     2     3   ar
    10     3     4   ar
    11     4     5   ar
    12     5     6   ar
    13     6     7    1
    14     7     8    1
    15     8     9    1
    16     9    10    1
    17    10    11    1
    18    11    12    1
    19    20    21   ar
    20    21    22    1
    21    21    16   ar
    22     6     1   ar
    23    12     7    1
    24    10    13    1
@<TRIPOS>MOLECULE
*****
 22 24 0 0 0
SMALL
GASTEIGER

@<TRIPOS>ATOM
      1 C         -12.5837   -6.7510   17.6235 C.ar    1  UNL1        0.0427
      2 C         -11.7551   -7.8922   17.1129 C.ar    1  UNL1        0.0077
      3 C         -10.3274   -8.0368   17.5497 C.ar    1  UNL1        0.0006
      4 C          -9.7284   -7.0401   18.4972 C.ar    1  UNL1        0.0013
      5 C         -10.5570   -5.8988   19.0079 C.ar    1  UNL1        0.0150
      6 C         -11.9847   -5.7542   18.5710 C.ar    1  UNL1        0.0540
      7 N         -12.8134   -4.6129   19.0817 N.pl3   1  UNL1       -0.3043
      8 C         -12.8746   -3.3272   18.3116 C.3     1  UNL1        0.1079
      9 C         -13.7033   -2.1858   18.8223 C.3     1  UNL1        0.0903
     10 N         -14.4707   -2.3303   20.1030 N.3     1  UNL1       -0.2946
     11 C         -14.4094   -3.6162   20.8730 C.3     1  UNL1        0.0903
     12 C         -13.5808   -4.7574   20.3624 C.3     1  UNL1        0.1079
     13 H         -15.4523   -2.1684   19.8779 H       1  UNL1        0.1233
     14 S         -14.0114   -6.6064   17.1867 S.3     1  UNL1       -0.0860
     15 C         -18.5827   -5.7930   19.5194 C.3     1  UNL1        0.0307
     16 C         -17.4057   -6.6804   19.2418 C.ar    1  UNL1       -0.0253
     17 C         -17.3372   -8.0486   19.8529 C.ar    1  UNL1       -0.0045
     18 C         -16.1602   -8.9360   19.5754 C.ar    1  UNL1        0.0002
     19 C         -15.0516   -8.4553   18.6866 C.ar    1  UNL1        0.0061
     20 C         -15.1200   -7.0871   18.0754 C.ar    1  UNL1        0.0252
     21 C         -16.2971   -6.1997   18.3530 C.ar    1  UNL1       -0.0198
     22 C         -16.3655   -4.8316   17.7419 C.3     1  UNL1        0.0312
@<TRIPOS>BOND
     1    15    16    1
     2    16    17   ar
     3    17    18   ar
     4    18    19   ar
     5    19    20   ar
     6    20    14    1
     7    14     1    1
     8     1     2   ar
     9     2     3   ar
    10     3     4   ar
    11     4     5   ar
    12     5     6   ar
    13     6     7    1
    14     7     8    1
    15     8     9    1
    16     9    10    1
    17    10    11    1
    18    11    12    1
    19    20    21   ar
    20    21    22    1
    21    21    16   ar
    22     6     1   ar
    23    12     7    1
    24    10    13    1
@<TRIPOS>MOLECULE
*****
 22 24 0 0 0
SMALL
GASTEIGER

@<TRIPOS>ATOM
      1 C         -11.8612   -5.5856   18.9906 C.ar    1  UNL1        0.0427
      2 C         -10.3859   -5.8553   19.0195 C.ar    1  UNL1        0.0077
      3 C          -9.8164   -6.9961   18.2295 C.ar    1  UNL1        0.0006
      4 C         -10.7221   -7.8672   17.4105 C.ar    1  UNL1        0.0013
      5 C         -12.1975   -7.5976   17.3815 C.ar    1  UNL1        0.0150
      6 C         -12.7670   -6.4567   18.1716 C.ar    1  UNL1        0.0540
      7 N         -14.2422   -6.1871   18.1427 N.pl3   1  UNL1       -0.3043
      8 C         -15.1322   -6.7707   19.1996 C.3     1  UNL1        0.1079
      9 C         -16.6075   -6.5011   19.1708 C.3     1  UNL1        0.0903
     10 N         -17.1928   -5.6477   18.0849 N.3     1  UNL1       -0.2946
     11 C         -16.3028   -5.0640   17.0279 C.3     1  UNL1        0.0903
     12 C         -14.8275   -5.3337   17.0568 C.3     1  UNL1        0.1079
     13 H         -17.6574   -4.8643   18.5442 H       1  UNL1        0.1233
     14 S         -12.4307   -4.4448   19.7807 S.3     1  UNL1       -0.0860
     15 C         -14.9647   -0.0450   18.6760 C.3     1  UNL1        0.0307
     16 C         -13.7068   -0.8616   18.6483 C.ar    1  UNL1       -0.0253
     17 C         -12.4580   -0.2949   18.0406 C.ar    1  UNL1       -0.0045
     18 C         -11.2001   -1.1115   18.0130 C.ar    1  UNL1        0.0002
     19 C         -11.1909   -2.4948   18.5929 C.ar    1  UNL1        0.0061
     20 C         -12.4398   -3.0615   19.2007 C.ar    1  UNL1        0.0252
     21 C         -13.6977   -2.2449   19.2283 C.ar    1  UNL1       -0.0198
     22 C         -14.9466   -2.8116   19.8360 C.3     1  UNL1        0.0312
@<TRIPOS>BOND
     1    15    16    1
     2    16    17   ar
     3    17    18   ar
     4    18    19   ar
     5    19    20   ar
     6    20    14    1
     7    14     1    1
     8     1     2   ar
     9     2     3   ar
    10     3     4   ar
    11     4     5   ar
    12     5     6   ar
    13     6     7    1
    14     7     8    1
    15     8     9    1
    16     9    10    1
    17    10    11    1
    18    11    12    1
    19    20    21   ar
    20    21    22    1
    21    21    16   ar
    22     6     1   ar
    23    12     7    1
    24    10    13    1
@<TRIPOS>MOLECULE
*****
 22 24 0 0 0
SMALL
GASTEIGER

@<TRIPOS>ATOM
      1 C         -11.8578   -5.1144   18.8287 C.ar    1  UNL1        0.0427
      2 C         -10.6112   -5.9485   18.8432 C.ar    1  UNL1        0.0077
      3 C          -9.4476   -5.5734   17.9741 C.ar    1  UNL1        0.0006
      4 C          -9.5306   -4.3642   17.0904 C.ar    1  UNL1        0.0013
      5 C         -10.7773   -3.5300   17.0759 C.ar    1  UNL1        0.0150
      6 C         -11.9409   -3.9051   17.9450 C.ar    1  UNL1        0.0540
      7 N         -13.1874   -3.0710   17.9305 N.pl3   1  UNL1       -0.3043
      8 C         -14.2597   -3.3425   16.9173 C.3     1  UNL1        0.1079
      9 C         -15.5064   -2.5084   16.9028 C.3     1  UNL1        0.0903
     10 N         -15.6807   -1.4028   17.9014 N.3     1  UNL1       -0.2946
     11 C         -14.6083   -1.1313   18.9145 C.3     1  UNL1        0.0903
     12 C         -13.3618   -1.9654   18.9291 C.3     1  UNL1        0.1079
     13 H         -16.5330   -1.6084   18.4226 H       1  UNL1        0.1233
     14 S         -13.0214   -5.4895   19.6978 S.3     1  UNL1       -0.0860
     15 C         -18.0555   -6.5004   18.9002 C.3     1  UNL1        0.0307
     16 C         -16.6142   -6.8937   18.7652 C.ar    1  UNL1       -0.0253
     17 C         -16.2488   -8.1856   18.0965 C.ar    1  UNL1       -0.0045
     18 C         -14.8076   -8.5789   17.9616 C.ar    1  UNL1        0.0002
     19 C         -13.7318   -7.6802   18.4953 C.ar    1  UNL1        0.0061
     20 C         -14.0972   -6.3882   19.1641 C.ar    1  UNL1        0.0252
     21 C         -15.5384   -5.9949   19.2990 C.ar    1  UNL1       -0.0198
     22 C         -15.9038   -4.7029   19.9677 C.3     1  UNL1        0.0312
@<TRIPOS>BOND
     1    15    16    1
     2    16    17   ar
     3    17    18   ar
     4    18    19   ar
     5    19    20   ar
     6    20    14    1
     7    14     1    1
     8     1     2   ar
     9     2     3   ar
    10     3     4   ar
    11     4     5   ar
    12     5     6   ar
    13     6     7    1
    14     7     8    1
    15     8     9    1
    16     9    10    1
    17    10    11    1
    18    11    12    1
    19    20    21   ar
    20    21    22    1
    21    21    16   ar
    22     6     1   ar
    23    12     7    1
    24    10    13    1
