@<TRIPOS>MOLECULE
*****
 22 24 0 0 0
SMALL
GASTEIGER

@<TRIPOS>ATOM
      1 N          -4.8647  -16.2155   23.1862 N.pl3   1  UNL1       -0.3132
      2 H          -4.5040  -15.4176   22.7361 H       1  UNL1        0.1485
      3 C          -6.1935  -16.1494   23.8791 C.ar    1  UNL1        0.1480
      4 N          -6.2962  -15.5454   25.2483 N.ar    1  UNL1       -0.2277
      5 C          -7.6249  -15.4794   25.9411 C.ar    1  UNL1        0.1019
      6 C          -8.8510  -16.0172   25.2647 C.ar    1  UNL1        0.0395
      7 C          -8.7483  -16.6211   23.8955 C.ar    1  UNL1        0.0830
      8 C          -7.4196  -16.6872   23.2027 C.ar    1  UNL1        0.1295
      9 N          -7.6257  -17.3346   21.8654 N.ar    1  UNL1       -0.2281
     10 C          -9.0819  -17.6686   21.7317 C.ar    1  UNL1        0.1209
     11 C          -9.7305  -18.3278   20.5506 C.3     1  UNL1        0.0718
     12 N          -9.7757  -17.2277   22.9864 N.ar    1  UNL1       -0.3128
     13 C         -11.2399  -17.3685   23.2803 C.3     1  UNL1        0.1316
     14 C          -4.0855  -17.4972   23.1792 C.3     1  UNL1        0.1148
     15 C          -5.5217  -19.9223   22.1515 C.3     1  UNL1        0.0307
     16 C          -4.3915  -19.3298   21.3632 C.ar    1  UNL1       -0.0245
     17 C          -3.9793  -19.9498   20.0609 C.ar    1  UNL1       -0.0045
     18 C          -2.8491  -19.3572   19.2726 C.ar    1  UNL1       -0.0007
     19 C          -2.1310  -18.1447   19.7865 C.ar    1  UNL1       -0.0045
     20 C          -2.5431  -17.5247   21.0887 C.ar    1  UNL1       -0.0245
     21 C          -1.8250  -16.3121   21.6025 C.3     1  UNL1        0.0307
     22 C          -3.6734  -18.1172   21.8770 C.ar    1  UNL1       -0.0105
@<TRIPOS>BOND
     1    15    16    1
     2    16    17   ar
     3    17    18   ar
     4    18    19   ar
     5    19    20   ar
     6    20    21    1
     7    20    22   ar
     8    22    14    1
     9    14     1    1
    10     1     3    1
    11     3     4   ar
    12     4     5   ar
    13     5     6   ar
    14     6     7   ar
    15     7     8   ar
    16     8     9   ar
    17     9    10   ar
    18    10    11    1
    19    10    12   ar
    20    12    13    1
    21    22    16   ar
    22     8     3   ar
    23    12     7   ar
    24     1     2    1
@<TRIPOS>MOLECULE
*****
 22 24 0 0 0
SMALL
GASTEIGER

@<TRIPOS>ATOM
      1 N          -6.8467  -18.7503   21.6329 N.pl3   1  UNL1       -0.3132
      2 H          -6.7697  -18.1029   20.8953 H       1  UNL1        0.1485
      3 C          -8.1956  -19.0925   22.1930 C.ar    1  UNL1        0.1480
      4 N          -8.3240  -20.1560   23.2429 N.ar    1  UNL1       -0.2277
      5 C          -9.6728  -20.4981   23.8028 C.ar    1  UNL1        0.1019
      6 C         -10.8932  -19.7766   23.3129 C.ar    1  UNL1        0.0395
      7 C         -10.7648  -18.7130   22.2631 C.ar    1  UNL1        0.0830
      8 C          -9.4160  -18.3710   21.7031 C.ar    1  UNL1        0.1295
      9 N          -9.5988  -17.2850   20.6845 N.ar    1  UNL1       -0.2281
     10 C         -11.0606  -16.9560   20.6150 C.ar    1  UNL1        0.1209
     11 C         -11.6911  -15.9254   19.7259 C.3     1  UNL1        0.0718
     12 N         -11.7812  -17.8386   21.5906 N.ar    1  UNL1       -0.3128
     13 C         -13.2589  -17.8454   21.8485 C.3     1  UNL1        0.1316
     14 C          -5.6151  -19.3948   22.1968 C.3     1  UNL1        0.1148
     15 C          -4.4297  -17.0968   23.7179 C.3     1  UNL1        0.0307
     16 C          -3.6661  -17.7221   22.5885 C.ar    1  UNL1       -0.0245
     17 C          -2.3097  -17.1985   22.2195 C.ar    1  UNL1       -0.0045
     18 C          -1.5460  -17.8239   21.0901 C.ar    1  UNL1       -0.0007
     19 C          -2.1388  -18.9729   20.3295 C.ar    1  UNL1       -0.0045
     20 C          -3.4951  -19.4965   20.6984 C.ar    1  UNL1       -0.0245
     21 C          -4.0878  -20.6455   19.9378 C.3     1  UNL1        0.0307
     22 C          -4.2588  -18.8711   21.8279 C.ar    1  UNL1       -0.0105
@<TRIPOS>BOND
     1    15    16    1
     2    16    17   ar
     3    17    18   ar
     4    18    19   ar
     5    19    20   ar
     6    20    21    1
     7    20    22   ar
     8    22    14    1
     9    14     1    1
    10     1     3    1
    11     3     4   ar
    12     4     5   ar
    13     5     6   ar
    14     6     7   ar
    15     7     8   ar
    16     8     9   ar
    17     9    10   ar
    18    10    11    1
    19    10    12   ar
    20    12    13    1
    21    22    16   ar
    22     8     3   ar
    23    12     7   ar
    24     1     2    1
@<TRIPOS>MOLECULE
*****
 22 24 0 0 0
SMALL
GASTEIGER

@<TRIPOS>ATOM
      1 N          -8.7564  -18.3674   20.7512 N.pl3   1  UNL1       -0.3132
      2 H          -8.9280  -17.4556   20.4219 H       1  UNL1        0.1485
      3 C          -7.3466  -18.8416   20.9459 C.ar    1  UNL1        0.1480
      4 N          -6.8303  -20.0050   20.1524 N.ar    1  UNL1       -0.2277
      5 C          -5.4206  -20.4791   20.3472 C.ar    1  UNL1        0.1019
      6 C          -4.5273  -19.7898   21.3355 C.ar    1  UNL1        0.0395
      7 C          -5.0436  -18.6263   22.1290 C.ar    1  UNL1        0.0830
      8 C          -6.4533  -18.1522   21.9342 C.ar    1  UNL1        0.1295
      9 N          -6.6819  -16.9883   22.8524 N.ar    1  UNL1       -0.2281
     10 C          -5.4135  -16.7431   23.6147 C.ar    1  UNL1        0.1209
     11 C          -5.1958  -15.6733   24.6434 C.3     1  UNL1        0.0718
     12 N          -4.4010  -17.7554   23.1675 N.ar    1  UNL1       -0.3128
     13 C          -2.9930  -17.8758   23.6706 C.3     1  UNL1        0.1316
     14 C          -9.9046  -19.2825   21.0582 C.3     1  UNL1        0.1148
     15 C         -12.2708  -17.4859   20.6419 C.3     1  UNL1        0.0307
     16 C         -12.0065  -18.0766   21.9951 C.ar    1  UNL1       -0.0245
     17 C         -12.9253  -17.7691   23.1402 C.ar    1  UNL1       -0.0045
     18 C         -12.6610  -18.3598   24.4934 C.ar    1  UNL1       -0.0007
     19 C         -11.4779  -19.2580   24.7015 C.ar    1  UNL1       -0.0045
     20 C         -10.5591  -19.5656   23.5565 C.ar    1  UNL1       -0.0245
     21 C          -9.3760  -20.4639   23.7646 C.3     1  UNL1        0.0307
     22 C         -10.8234  -18.9749   22.2032 C.ar    1  UNL1       -0.0105
@<TRIPOS>BOND
     1    15    16    1
     2    16    17   ar
     3    17    18   ar
     4    18    19   ar
     5    19    20   ar
     6    20    21    1
     7    20    22   ar
     8    22    14    1
     9    14     1    1
    10     1     3    1
    11     3     4   ar
    12     4     5   ar
    13     5     6   ar
    14     6     7   ar
    15     7     8   ar
    16     8     9   ar
    17     9    10   ar
    18    10    11    1
    19    10    12   ar
    20    12    13    1
    21    22    16   ar
    22     8     3   ar
    23    12     7   ar
    24     1     2    1
@<TRIPOS>MOLECULE
*****
 22 24 0 0 0
SMALL
GASTEIGER

@<TRIPOS>ATOM
      1 N          -8.2149  -18.6217   20.6948 N.pl3   1  UNL1       -0.3132
      2 H          -8.3349  -18.2094   19.8089 H       1  UNL1        0.1485
      3 C          -7.0035  -18.2941   21.5167 C.ar    1  UNL1        0.1480
      4 N          -5.6681  -18.8678   21.1461 N.ar    1  UNL1       -0.2277
      5 C          -4.4569  -18.5401   21.9679 C.ar    1  UNL1        0.1019
      6 C          -4.5811  -17.6387   23.1604 C.ar    1  UNL1        0.0395
      7 C          -5.9165  -17.0649   23.5310 C.ar    1  UNL1        0.0830
      8 C          -7.1278  -17.3926   22.7092 C.ar    1  UNL1        0.1295
      9 N          -8.3036  -16.6839   23.3135 N.ar    1  UNL1       -0.2281
     10 C          -7.8191  -15.9182   24.5088 C.ar    1  UNL1        0.1209
     11 C          -8.6618  -15.0665   25.4113 C.3     1  UNL1        0.0718
     12 N          -6.3438  -16.1537   24.6433 N.ar    1  UNL1       -0.3128
     13 C          -5.4522  -15.5789   25.7038 C.3     1  UNL1        0.1316
     14 C          -9.2432  -19.5777   21.2227 C.3     1  UNL1        0.1148
     15 C          -9.5692  -20.1916   24.1411 C.3     1  UNL1        0.0307
     16 C         -10.5991  -19.3658   23.4288 C.ar    1  UNL1       -0.0245
     17 C         -11.7920  -18.8470   24.1756 C.ar    1  UNL1       -0.0045
     18 C         -12.8219  -18.0212   23.4633 C.ar    1  UNL1       -0.0007
     19 C         -12.6589  -17.7143   22.0041 C.ar    1  UNL1       -0.0045
     20 C         -11.4660  -18.2331   21.2572 C.ar    1  UNL1       -0.0245
     21 C         -11.3030  -17.9262   19.7981 C.3     1  UNL1        0.0307
     22 C         -10.4361  -19.0589   21.9696 C.ar    1  UNL1       -0.0105
@<TRIPOS>BOND
     1    15    16    1
     2    16    17   ar
     3    17    18   ar
     4    18    19   ar
     5    19    20   ar
     6    20    21    1
     7    20    22   ar
     8    22    14    1
     9    14     1    1
    10     1     3    1
    11     3     4   ar
    12     4     5   ar
    13     5     6   ar
    14     6     7   ar
    15     7     8   ar
    16     8     9   ar
    17     9    10   ar
    18    10    11    1
    19    10    12   ar
    20    12    13    1
    21    22    16   ar
    22     8     3   ar
    23    12     7   ar
    24     1     2    1
@<TRIPOS>MOLECULE
*****
 22 24 0 0 0
SMALL
GASTEIGER

@<TRIPOS>ATOM
      1 N          -8.9616  -15.5019   22.8309 N.pl3   1  UNL1       -0.3132
      2 H          -9.0976  -14.7649   22.1925 H       1  UNL1        0.1485
      3 C          -7.5743  -15.8709   23.2660 C.ar    1  UNL1        0.1480
      4 N          -6.8688  -15.0463   24.3015 N.ar    1  UNL1       -0.2277
      5 C          -5.4816  -15.4153   24.7366 C.ar    1  UNL1        0.1019
      6 C          -4.7998  -16.6089   24.1361 C.ar    1  UNL1        0.0395
      7 C          -5.5053  -17.4335   23.1007 C.ar    1  UNL1        0.0830
      8 C          -6.8925  -17.0645   22.6656 C.ar    1  UNL1        0.1295
      9 N          -7.3343  -18.0586   21.6328 N.ar    1  UNL1       -0.2281
     10 C          -6.2200  -19.0420   21.4296 C.ar    1  UNL1        0.1209
     11 C          -6.2337  -20.2073   20.4851 C.3     1  UNL1        0.0718
     12 N          -5.0897  -18.6557   22.3368 N.ar    1  UNL1       -0.3128
     13 C          -3.7745  -19.3666   22.4588 C.3     1  UNL1        0.1316
     14 C         -10.1417  -16.2559   23.3685 C.3     1  UNL1        0.1148
     15 C         -11.1231  -16.5658   20.5505 C.3     1  UNL1        0.0307
     16 C         -10.9587  -17.7736   21.4245 C.ar    1  UNL1       -0.0245
     17 C         -11.2850  -19.1366   20.8896 C.ar    1  UNL1       -0.0045
     18 C         -11.1205  -20.3444   21.7637 C.ar    1  UNL1       -0.0007
     19 C         -10.6298  -20.1895   23.1726 C.ar    1  UNL1       -0.0045
     20 C         -10.3035  -18.8266   23.7076 C.ar    1  UNL1       -0.0245
     21 C          -9.8128  -18.6717   25.1165 C.3     1  UNL1        0.0307
     22 C         -10.4680  -17.6187   22.8335 C.ar    1  UNL1       -0.0105
@<TRIPOS>BOND
     1    15    16    1
     2    16    17   ar
     3    17    18   ar
     4    18    19   ar
     5    19    20   ar
     6    20    21    1
     7    20    22   ar
     8    22    14    1
     9    14     1    1
    10     1     3    1
    11     3     4   ar
    12     4     5   ar
    13     5     6   ar
    14     6     7   ar
    15     7     8   ar
    16     8     9   ar
    17     9    10   ar
    18    10    11    1
    19    10    12   ar
    20    12    13    1
    21    22    16   ar
    22     8     3   ar
    23    12     7   ar
    24     1     2    1
@<TRIPOS>MOLECULE
*****
 22 24 0 0 0
SMALL
GASTEIGER

@<TRIPOS>ATOM
      1 N          -8.3919  -18.6272   21.0798 N.pl3   1  UNL1       -0.3132
      2 H          -8.3457  -18.4835   20.1069 H       1  UNL1        0.1485
      3 C          -7.4179  -17.9358   21.9872 C.ar    1  UNL1        0.1480
      4 N          -7.8971  -16.8744   22.9326 N.ar    1  UNL1       -0.2277
      5 C          -6.9231  -16.1831   23.8399 C.ar    1  UNL1        0.1019
      6 C          -5.4699  -16.5530   23.8018 C.ar    1  UNL1        0.0395
      7 C          -4.9907  -17.6143   22.8563 C.ar    1  UNL1        0.0830
      8 C          -5.9647  -18.3057   21.9490 C.ar    1  UNL1        0.1295
      9 N          -5.2047  -19.3053   21.1285 N.ar    1  UNL1       -0.2281
     10 C          -3.7610  -19.2317   21.5287 C.ar    1  UNL1        0.1209
     11 C          -2.6453  -20.0580   20.9608 C.3     1  UNL1        0.0718
     12 N          -3.6287  -18.1866   22.5966 N.ar    1  UNL1       -0.3128
     13 C          -2.3577  -17.7844   23.2841 C.3     1  UNL1        0.1316
     14 C          -9.4363  -19.5375   21.6547 C.3     1  UNL1        0.1148
     15 C         -11.3183  -18.0154   19.8824 C.3     1  UNL1        0.0307
     16 C         -11.6424  -18.2032   21.3348 C.ar    1  UNL1       -0.0245
     17 C         -12.9076  -17.6299   21.9012 C.ar    1  UNL1       -0.0045
     18 C         -13.2318  -17.8177   23.3536 C.ar    1  UNL1       -0.0007
     19 C         -12.2908  -18.5788   24.2398 C.ar    1  UNL1       -0.0045
     20 C         -11.0256  -19.1520   23.6735 C.ar    1  UNL1       -0.0245
     21 C         -10.0846  -19.9131   24.5597 C.3     1  UNL1        0.0307
     22 C         -10.7014  -18.9642   22.2210 C.ar    1  UNL1       -0.0105
@<TRIPOS>BOND
     1    15    16    1
     2    16    17   ar
     3    17    18   ar
     4    18    19   ar
     5    19    20   ar
     6    20    21    1
     7    20    22   ar
     8    22    14    1
     9    14     1    1
    10     1     3    1
    11     3     4   ar
    12     4     5   ar
    13     5     6   ar
    14     6     7   ar
    15     7     8   ar
    16     8     9   ar
    17     9    10   ar
    18    10    11    1
    19    10    12   ar
    20    12    13    1
    21    22    16   ar
    22     8     3   ar
    23    12     7   ar
    24     1     2    1
@<TRIPOS>MOLECULE
*****
 22 24 0 0 0
SMALL
GASTEIGER

@<TRIPOS>ATOM
      1 N          -8.4674  -18.4883   21.0842 N.pl3   1  UNL1       -0.3132
      2 H          -8.4509  -18.2919   20.1197 H       1  UNL1        0.1485
      3 C          -7.4792  -17.8299   22.0007 C.ar    1  UNL1        0.1480
      4 N          -7.9350  -16.7677   22.9567 N.ar    1  UNL1       -0.2277
      5 C          -6.9468  -16.1093   23.8731 C.ar    1  UNL1        0.1019
      6 C          -5.5027  -16.5131   23.8336 C.ar    1  UNL1        0.0395
      7 C          -5.0468  -17.5752   22.8776 C.ar    1  UNL1        0.0830
      8 C          -6.0351  -18.2336   21.9612 C.ar    1  UNL1        0.1295
      9 N          -5.2972  -19.2421   21.1313 N.ar    1  UNL1       -0.2281
     10 C          -3.8530  -19.2069   21.5349 C.ar    1  UNL1        0.1209
     11 C          -2.7559  -20.0533   20.9601 C.3     1  UNL1        0.0718
     12 N          -3.6982  -18.1767   22.6142 N.ar    1  UNL1       -0.3128
     13 C          -2.4194  -17.8121   23.3082 C.3     1  UNL1        0.1316
     14 C          -9.4807  -19.4461   21.6374 C.3     1  UNL1        0.1148
     15 C         -10.0024  -19.9682   24.5452 C.3     1  UNL1        0.0307
     16 C         -10.9929  -19.1866   23.7340 C.ar    1  UNL1       -0.0245
     17 C         -12.2443  -18.6661   24.3767 C.ar    1  UNL1       -0.0045
     18 C         -13.2348  -17.8845   23.5656 C.ar    1  UNL1       -0.0007
     19 C         -12.9739  -17.6234   22.1117 C.ar    1  UNL1       -0.0045
     20 C         -11.7226  -18.1439   21.4690 C.ar    1  UNL1       -0.0245
     21 C         -11.4617  -17.8829   20.0151 C.3     1  UNL1        0.0307
     22 C         -10.7320  -18.9256   22.2801 C.ar    1  UNL1       -0.0105
@<TRIPOS>BOND
     1    15    16    1
     2    16    17   ar
     3    17    18   ar
     4    18    19   ar
     5    19    20   ar
     6    20    21    1
     7    20    22   ar
     8    22    14    1
     9    14     1    1
    10     1     3    1
    11     3     4   ar
    12     4     5   ar
    13     5     6   ar
    14     6     7   ar
    15     7     8   ar
    16     8     9   ar
    17     9    10   ar
    18    10    11    1
    19    10    12   ar
    20    12    13    1
    21    22    16   ar
    22     8     3   ar
    23    12     7   ar
    24     1     2    1
@<TRIPOS>MOLECULE
*****
 22 24 0 0 0
SMALL
GASTEIGER

@<TRIPOS>ATOM
      1 N          -5.9306  -18.6448   21.6806 N.pl3   1  UNL1       -0.3132
      2 H          -6.2705  -19.1486   20.9061 H       1  UNL1        0.1485
      3 C          -6.8244  -17.6752   22.3955 C.ar    1  UNL1        0.1480
      4 N          -6.2681  -16.8029   23.4816 N.ar    1  UNL1       -0.2277
      5 C          -7.1619  -15.8334   24.1965 C.ar    1  UNL1        0.1019
      6 C          -8.6120  -15.7361   23.8252 C.ar    1  UNL1        0.0395
      7 C          -9.1683  -16.6084   22.7391 C.ar    1  UNL1        0.0830
      8 C          -8.2745  -17.5779   22.0243 C.ar    1  UNL1        0.1295
      9 N          -9.0999  -18.3031   21.0030 N.ar    1  UNL1       -0.2281
     10 C         -10.5039  -17.7817   21.0868 C.ar    1  UNL1        0.1209
     11 C         -11.6623  -18.2291   20.2454 C.3     1  UNL1        0.0718
     12 N         -10.5461  -16.7343   22.1598 N.ar    1  UNL1       -0.3128
     13 C         -11.7541  -15.9505   22.5797 C.3     1  UNL1        0.1316
     14 C          -4.5189  -18.8466   22.1457 C.3     1  UNL1        0.1148
     15 C          -3.8882  -20.4494   19.6894 C.3     1  UNL1        0.0307
     16 C          -3.0586  -19.2484   20.0347 C.ar    1  UNL1       -0.0245
     17 C          -1.9136  -18.8487   19.1519 C.ar    1  UNL1       -0.0045
     18 C          -1.0841  -17.6476   19.4973 C.ar    1  UNL1       -0.0007
     19 C          -1.3994  -16.8462   20.7254 C.ar    1  UNL1       -0.0045
     20 C          -2.5443  -17.2459   21.6082 C.ar    1  UNL1       -0.0245
     21 C          -2.8597  -16.4445   22.8364 C.3     1  UNL1        0.0307
     22 C          -3.3740  -18.4470   21.2629 C.ar    1  UNL1       -0.0105
@<TRIPOS>BOND
     1    15    16    1
     2    16    17   ar
     3    17    18   ar
     4    18    19   ar
     5    19    20   ar
     6    20    21    1
     7    20    22   ar
     8    22    14    1
     9    14     1    1
    10     1     3    1
    11     3     4   ar
    12     4     5   ar
    13     5     6   ar
    14     6     7   ar
    15     7     8   ar
    16     8     9   ar
    17     9    10   ar
    18    10    11    1
    19    10    12   ar
    20    12    13    1
    21    22    16   ar
    22     8     3   ar
    23    12     7   ar
    24     1     2    1
@<TRIPOS>MOLECULE
*****
 22 24 0 0 0
SMALL
GASTEIGER

@<TRIPOS>ATOM
      1 N          -8.1582  -17.2048   21.6900 N.pl3   1  UNL1       -0.3132
      2 H          -8.3434  -17.7400   20.8847 H       1  UNL1        0.1485
      3 C          -6.7912  -17.2268   22.3071 C.ar    1  UNL1        0.1480
      4 N          -6.4713  -16.3144   23.4540 N.ar    1  UNL1       -0.2277
      5 C          -5.1043  -16.3364   24.0710 C.ar    1  UNL1        0.1019
      6 C          -4.0572  -17.2707   23.5413 C.ar    1  UNL1        0.0395
      7 C          -4.3771  -18.1830   22.3944 C.ar    1  UNL1        0.0830
      8 C          -5.7441  -18.1611   21.7774 C.ar    1  UNL1        0.1295
      9 N          -5.7672  -19.1683   20.6660 N.ar    1  UNL1       -0.2281
     10 C          -4.4145  -19.8127   20.5963 C.ar    1  UNL1        0.1209
     11 C          -3.9946  -20.8789   19.6283 C.3     1  UNL1        0.0718
     12 N          -3.5554  -19.2038   21.6645 N.ar    1  UNL1       -0.3128
     13 C          -2.1255  -19.5541   21.9523 C.3     1  UNL1        0.1316
     14 C          -9.2431  -16.3676   22.3000 C.3     1  UNL1        0.1148
     15 C          -9.7192  -17.8839   24.8444 C.3     1  UNL1        0.0307
     16 C         -10.8278  -17.7267   23.8463 C.ar    1  UNL1       -0.0245
     17 C         -12.1746  -18.3277   24.1204 C.ar    1  UNL1       -0.0045
     18 C         -13.2833  -18.1705   23.1223 C.ar    1  UNL1       -0.0007
     19 C         -13.0452  -17.4123   21.8501 C.ar    1  UNL1       -0.0045
     20 C         -11.6985  -16.8114   21.5760 C.ar    1  UNL1       -0.0245
     21 C         -11.4604  -16.0532   20.3038 C.3     1  UNL1        0.0307
     22 C         -10.5898  -16.9685   22.5741 C.ar    1  UNL1       -0.0105
@<TRIPOS>BOND
     1    15    16    1
     2    16    17   ar
     3    17    18   ar
     4    18    19   ar
     5    19    20   ar
     6    20    21    1
     7    20    22   ar
     8    22    14    1
     9    14     1    1
    10     1     3    1
    11     3     4   ar
    12     4     5   ar
    13     5     6   ar
    14     6     7   ar
    15     7     8   ar
    16     8     9   ar
    17     9    10   ar
    18    10    11    1
    19    10    12   ar
    20    12    13    1
    21    22    16   ar
    22     8     3   ar
    23    12     7   ar
    24     1     2    1
