@<TRIPOS>MOLECULE
*****
 31 34 0 0 0
SMALL
GASTEIGER

@<TRIPOS>ATOM
      1 C           7.5505   -3.6049   30.9692 C.3     1  UNL1        0.0344
      2 C           6.5833   -2.7624   30.1916 C.ar    1  UNL1        0.0197
      3 C           6.3695   -2.8075   28.7076 C.ar    1  UNL1        0.1530
      4 N           5.3141   -1.7997   28.3605 N.ar    1  UNL1       -0.1607
      5 N           4.8755   -1.1317   29.6299 N.ar    1  UNL1       -0.2290
      6 C           5.6599   -1.7266   30.7617 C.ar    1  UNL1        0.0804
      7 C           3.8353   -0.0575   29.7470 C.ar    1  UNL1        0.0933
      8 C           2.3795   -0.4183   29.7319 C.ar    1  UNL1        0.0209
      9 C           1.3391    0.6559   29.8490 C.ar    1  UNL1        0.0130
     10 C           1.7548    2.0912   29.9812 C.ar    1  UNL1        0.0586
     11 CL          0.7145    3.1655   30.0983 Cl      1  UNL1       -0.0822
     12 C           3.2106    2.4520   29.9963 C.ar    1  UNL1        0.0243
     13 C           4.2508    1.3778   29.8792 C.ar    1  UNL1        0.0761
     14 CL          5.7067    1.7387   29.8943 Cl      1  UNL1       -0.0806
     15 C           5.5418   -1.3517   32.2092 C.ar    1  UNL1        0.0175
     16 C           6.5641   -0.4508   32.8365 C.ar    1  UNL1        0.0024
     17 C           6.4459   -0.0759   34.2840 C.ar    1  UNL1        0.0114
     18 C           5.3055   -0.6017   35.1043 C.ar    1  UNL1        0.0577
     19 CL          5.1873   -0.2268   36.5518 Cl      1  UNL1       -0.0822
     20 C           4.2832   -1.5026   34.4770 C.ar    1  UNL1        0.0114
     21 C           4.4013   -1.8775   33.0295 C.ar    1  UNL1        0.0024
     22 C           7.0854   -3.7032   27.7406 C.2     1  UNL1        0.2782
     23 O           8.5802   -3.6443   27.6293 O.2     1  UNL1       -0.2671
     24 N           6.3067   -4.6578   26.8849 N.am    1  UNL1       -0.2417
     25 H           5.3257   -4.6965   26.9579 H       1  UNL1        0.1696
     26 N           7.0227   -5.5536   25.9178 N.3     1  UNL1       -0.2057
     27 C           7.3161   -6.9767   26.2899 C.3     1  UNL1        0.0919
     28 C           8.0320   -7.8724   25.3229 C.3     1  UNL1        0.0191
     29 C           8.4546   -7.3449   23.9838 C.3     1  UNL1        0.0030
     30 C           8.1613   -5.9217   23.6117 C.3     1  UNL1        0.0191
     31 C           7.4453   -5.0260   24.5788 C.3     1  UNL1        0.0919
@<TRIPOS>BOND
     1     1     2    1
     2     2     3   ar
     3     3    22    1
     4    22    23    2
     5    22    24   am
     6    24    26    1
     7    26    27    1
     8    27    28    1
     9    28    29    1
    10    29    30    1
    11    30    31    1
    12     3     4   ar
    13     4     5   ar
    14     5     7    1
    15     7     8   ar
    16     8     9   ar
    17     9    10   ar
    18    10    11    1
    19    10    12   ar
    20    12    13   ar
    21    13    14    1
    22     5     6   ar
    23     6    15    1
    24    15    16   ar
    25    16    17   ar
    26    17    18   ar
    27    18    19    1
    28    18    20   ar
    29    20    21   ar
    30     6     2   ar
    31    21    15   ar
    32    31    26    1
    33    13     7   ar
    34    24    25    1
@<TRIPOS>MOLECULE
*****
 31 34 0 0 0
SMALL
GASTEIGER

@<TRIPOS>ATOM
      1 C           4.8308   -1.4776   26.5724 C.3     1  UNL1        0.0344
      2 C           5.3090   -1.7839   27.9608 C.ar    1  UNL1        0.0197
      3 C           6.3614   -2.7870   28.3297 C.ar    1  UNL1        0.1530
      4 N           6.5215   -2.7639   29.8209 N.ar    1  UNL1       -0.1607
      5 N           5.5680   -1.7465   30.3738 N.ar    1  UNL1       -0.2290
      6 C           4.8185   -1.1408   29.2242 C.ar    1  UNL1        0.0804
      7 C           5.3943   -1.3963   31.8219 C.ar    1  UNL1        0.0933
      8 C           4.4592   -2.1959   32.6800 C.ar    1  UNL1        0.0209
      9 C           4.2855   -1.8457   34.1281 C.ar    1  UNL1        0.0130
     10 C           5.0470   -0.6959   34.7183 C.ar    1  UNL1        0.0586
     11 CL          4.8734   -0.3457   36.1664 Cl      1  UNL1       -0.0822
     12 C           5.9821    0.1036   33.8602 C.ar    1  UNL1        0.0243
     13 C           6.1558   -0.2466   32.4121 C.ar    1  UNL1        0.0761
     14 CL          7.0909    0.5530   31.5540 Cl      1  UNL1       -0.0806
     15 C           3.7639   -0.0786   29.3209 C.ar    1  UNL1        0.0175
     16 C           2.3185   -0.4645   29.4302 C.ar    1  UNL1        0.0024
     17 C           1.2639    0.5978   29.5270 C.ar    1  UNL1        0.0114
     18 C           1.6547    2.0459   29.5145 C.ar    1  UNL1        0.0577
     19 CL          0.6001    3.1082   29.6112 Cl      1  UNL1       -0.0822
     20 C           3.1001    2.4318   29.4052 C.ar    1  UNL1        0.0114
     21 C           4.1547    1.3696   29.3084 C.ar    1  UNL1        0.0024
     22 C           7.1206   -3.6600   27.3748 C.2     1  UNL1        0.2782
     23 O           8.6055   -3.5022   27.2330 O.2     1  UNL1       -0.2671
     24 N           6.3948   -4.6906   26.5619 N.am    1  UNL1       -0.2417
     25 H           5.4202   -4.7942   26.6550 H       1  UNL1        0.1696
     26 N           7.1539   -5.5636   25.6070 N.3     1  UNL1       -0.2057
     27 C           7.5416   -5.0382   24.2566 C.3     1  UNL1        0.0919
     28 C           8.3007   -5.9111   23.3018 C.3     1  UNL1        0.0191
     29 C           8.6721   -7.3095   23.6974 C.3     1  UNL1        0.0030
     30 C           8.2845   -7.8350   25.0478 C.3     1  UNL1        0.0191
     31 C           7.5254   -6.9620   26.0026 C.3     1  UNL1        0.0919
@<TRIPOS>BOND
     1     1     2    1
     2     2     3   ar
     3     3    22    1
     4    22    23    2
     5    22    24   am
     6    24    26    1
     7    26    27    1
     8    27    28    1
     9    28    29    1
    10    29    30    1
    11    30    31    1
    12     3     4   ar
    13     4     5   ar
    14     5     7    1
    15     7     8   ar
    16     8     9   ar
    17     9    10   ar
    18    10    11    1
    19    10    12   ar
    20    12    13   ar
    21    13    14    1
    22     5     6   ar
    23     6    15    1
    24    15    16   ar
    25    16    17   ar
    26    17    18   ar
    27    18    19    1
    28    18    20   ar
    29    20    21   ar
    30     6     2   ar
    31    21    15   ar
    32    31    26    1
    33    13     7   ar
    34    24    25    1
@<TRIPOS>MOLECULE
*****
 31 34 0 0 0
SMALL
GASTEIGER

@<TRIPOS>ATOM
      1 C          -0.1571    3.1112   23.5340 C.3     1  UNL1        0.0344
      2 C           0.1858    2.4240   22.2456 C.ar    1  UNL1        0.0197
      3 C          -0.5943    2.5071   20.9671 C.ar    1  UNL1        0.1530
      4 N           0.1068    1.6673   19.9408 N.ar    1  UNL1       -0.1607
      5 N           1.3202    1.0652   20.5850 N.ar    1  UNL1       -0.2290
      6 C           1.3691    1.5328   22.0094 C.ar    1  UNL1        0.0804
      7 C           2.3108    0.1553   19.9213 C.ar    1  UNL1        0.0933
      8 C           2.3152   -1.3101   20.2417 C.ar    1  UNL1        0.0209
      9 C           3.3058   -2.2201   19.5780 C.ar    1  UNL1        0.0130
     10 C           4.2922   -1.6647   18.5938 C.ar    1  UNL1        0.0586
     11 CL          5.2829   -2.5746   17.9300 Cl      1  UNL1       -0.0822
     12 C           4.2879   -0.1993   18.2733 C.ar    1  UNL1        0.0243
     13 C           3.2973    0.7106   18.9371 C.ar    1  UNL1        0.0761
     14 CL          3.2929    2.1760   18.6166 Cl      1  UNL1       -0.0806
     15 C           2.4172    1.1725   23.0202 C.ar    1  UNL1        0.0175
     16 C           2.3339   -0.1329   23.7543 C.ar    1  UNL1        0.0024
     17 C           3.3820   -0.4932   24.7651 C.ar    1  UNL1        0.0114
     18 C           4.5134    0.4520   25.0417 C.ar    1  UNL1        0.0577
     19 CL          5.5615    0.0917   26.0525 Cl      1  UNL1       -0.0822
     20 C           4.5967    1.7574   24.3076 C.ar    1  UNL1        0.0114
     21 C           3.5486    2.1177   23.2969 C.ar    1  UNL1        0.0024
     22 C          -1.8544    3.2921   20.7527 C.2     1  UNL1        0.2782
     23 O          -1.7941    4.7847   20.6162 O.2     1  UNL1       -0.2671
     24 N          -3.1748    2.5847   20.6746 N.am    1  UNL1       -0.2417
     25 H          -3.2143    1.6050   20.7642 H       1  UNL1        0.1696
     26 N          -4.4348    3.3698   20.4602 N.3     1  UNL1       -0.2057
     27 C          -4.8862    3.6980   19.0679 C.3     1  UNL1        0.0919
     28 C          -6.1462    4.4830   18.8535 C.3     1  UNL1        0.0191
     29 C          -6.9549    4.9398   20.0314 C.3     1  UNL1        0.0030
     30 C          -6.5035    4.6116   21.4236 C.3     1  UNL1        0.0191
     31 C          -5.2435    3.8266   21.6380 C.3     1  UNL1        0.0919
@<TRIPOS>BOND
     1     1     2    1
     2     2     3   ar
     3     3    22    1
     4    22    23    2
     5    22    24   am
     6    24    26    1
     7    26    27    1
     8    27    28    1
     9    28    29    1
    10    29    30    1
    11    30    31    1
    12     3     4   ar
    13     4     5   ar
    14     5     7    1
    15     7     8   ar
    16     8     9   ar
    17     9    10   ar
    18    10    11    1
    19    10    12   ar
    20    12    13   ar
    21    13    14    1
    22     5     6   ar
    23     6    15    1
    24    15    16   ar
    25    16    17   ar
    26    17    18   ar
    27    18    19    1
    28    18    20   ar
    29    20    21   ar
    30     6     2   ar
    31    21    15   ar
    32    31    26    1
    33    13     7   ar
    34    24    25    1
@<TRIPOS>MOLECULE
*****
 31 34 0 0 0
SMALL
GASTEIGER

@<TRIPOS>ATOM
      1 C           0.4140    3.3061   18.0464 C.3     1  UNL1        0.0344
      2 C           0.5356    2.5427   19.3319 C.ar    1  UNL1        0.0197
      3 C          -0.4660    2.5306   20.4484 C.ar    1  UNL1        0.1530
      4 N           0.0595    1.6378   21.5331 N.ar    1  UNL1       -0.1607
      5 N           1.3861    1.0980   21.0870 N.ar    1  UNL1       -0.2290
      6 C           1.6804    1.6573   19.7266 C.ar    1  UNL1        0.0804
      7 C           2.2641    0.1632   21.8648 C.ar    1  UNL1        0.0933
      8 C           2.7742   -1.0938   21.2245 C.ar    1  UNL1        0.0209
      9 C           3.6523   -2.0287   22.0022 C.ar    1  UNL1        0.0130
     10 C           4.0203   -1.7066   23.4203 C.ar    1  UNL1        0.0586
     11 CL          4.8984   -2.6415   24.1981 Cl      1  UNL1       -0.0822
     12 C           3.5103   -0.4497   24.0605 C.ar    1  UNL1        0.0243
     13 C           2.6322    0.4852   23.2828 C.ar    1  UNL1        0.0761
     14 CL          2.1222    1.7421   23.9230 Cl      1  UNL1       -0.0806
     15 C           2.9044    1.3798   18.9051 C.ar    1  UNL1        0.0175
     16 C           4.0761    2.3143   18.9660 C.ar    1  UNL1        0.0024
     17 C           5.3001    2.0369   18.1445 C.ar    1  UNL1        0.0114
     18 C           5.3524    0.8250   17.2622 C.ar    1  UNL1        0.0577
     19 CL          6.5764    0.5475   16.4408 Cl      1  UNL1       -0.0822
     20 C           4.1806   -0.1096   17.2014 C.ar    1  UNL1        0.0114
     21 C           2.9566    0.1679   18.0228 C.ar    1  UNL1        0.0024
     22 C          -1.7653    3.2799   20.4753 C.2     1  UNL1        0.2782
     23 O          -1.7663    4.7799   20.4670 O.2     1  UNL1       -0.2671
     24 N          -3.0634    2.5292   20.5107 N.am    1  UNL1       -0.2417
     25 H          -3.0627    1.5447   20.5162 H       1  UNL1        0.1696
     26 N          -4.3626    3.2785   20.5377 N.3     1  UNL1       -0.2057
     27 C          -5.0562    3.6236   19.2532 C.3     1  UNL1        0.0919
     28 C          -6.3553    4.3729   19.2802 C.3     1  UNL1        0.0191
     29 C          -6.9609    4.7770   20.5917 C.3     1  UNL1        0.0030
     30 C          -6.2674    4.4319   21.8761 C.3     1  UNL1        0.0191
     31 C          -4.9682    3.6826   21.8491 C.3     1  UNL1        0.0919
@<TRIPOS>BOND
     1     1     2    1
     2     2     3   ar
     3     3    22    1
     4    22    23    2
     5    22    24   am
     6    24    26    1
     7    26    27    1
     8    27    28    1
     9    28    29    1
    10    29    30    1
    11    30    31    1
    12     3     4   ar
    13     4     5   ar
    14     5     7    1
    15     7     8   ar
    16     8     9   ar
    17     9    10   ar
    18    10    11    1
    19    10    12   ar
    20    12    13   ar
    21    13    14    1
    22     5     6   ar
    23     6    15    1
    24    15    16   ar
    25    16    17   ar
    26    17    18   ar
    27    18    19    1
    28    18    20   ar
    29    20    21   ar
    30     6     2   ar
    31    21    15   ar
    32    31    26    1
    33    13     7   ar
    34    24    25    1
@<TRIPOS>MOLECULE
*****
 31 34 0 0 0
SMALL
GASTEIGER

@<TRIPOS>ATOM
      1 C          -0.6705    2.9077   23.4210 C.3     1  UNL1        0.0344
      2 C          -1.4638    3.1311   22.1677 C.ar    1  UNL1        0.0197
      3 C          -1.0348    2.7699   20.7765 C.ar    1  UNL1        0.1530
      4 N          -2.1312    3.1706   19.8345 N.ar    1  UNL1       -0.1607
      5 N          -3.2379    3.7794   20.6435 N.ar    1  UNL1       -0.2290
      6 C          -2.8254    3.7551   22.0856 C.ar    1  UNL1        0.0804
      7 C          -4.5301    4.3180   20.1051 C.ar    1  UNL1        0.0933
      8 C          -5.6249    3.3758   19.7007 C.ar    1  UNL1        0.0209
      9 C          -6.9172    3.9143   19.1623 C.ar    1  UNL1        0.0130
     10 C          -7.1147    5.3953   19.0283 C.ar    1  UNL1        0.0586
     11 CL         -8.4069    5.9339   18.4898 Cl      1  UNL1       -0.0822
     12 C          -6.0198    6.3375   19.4327 C.ar    1  UNL1        0.0243
     13 C          -4.7276    5.7989   19.9711 C.ar    1  UNL1        0.0761
     14 CL         -3.6328    6.7412   20.3755 Cl      1  UNL1       -0.0806
     15 C          -3.6328    4.2651   23.2423 C.ar    1  UNL1        0.0175
     16 C          -3.4515    5.6755   23.7196 C.ar    1  UNL1        0.0024
     17 C          -4.2589    6.1855   24.8763 C.ar    1  UNL1        0.0114
     18 C          -5.2476    5.2850   25.5557 C.ar    1  UNL1        0.0577
     19 CL         -6.0550    5.7950   26.7124 Cl      1  UNL1       -0.0822
     20 C          -5.4290    3.8746   25.0784 C.ar    1  UNL1        0.0114
     21 C          -4.6216    3.3646   23.9216 C.ar    1  UNL1        0.0024
     22 C           0.2630    2.1218   20.3944 C.2     1  UNL1        0.2782
     23 O           1.5493    2.8813   20.5306 O.2     1  UNL1       -0.2671
     24 N           0.2743    0.7143   19.8761 N.am    1  UNL1       -0.2417
     25 H          -0.5699    0.2158   19.7867 H       1  UNL1        0.1696
     26 N           1.5721    0.0662   19.4940 N.3     1  UNL1       -0.2057
     27 C           2.1856   -0.9691   20.3894 C.3     1  UNL1        0.0919
     28 C           3.4833   -1.6171   20.0072 C.3     1  UNL1        0.0191
     29 C           4.1674   -1.2299   18.7297 C.3     1  UNL1        0.0030
     30 C           3.5538   -0.1947   17.8343 C.3     1  UNL1        0.0191
     31 C           2.2562    0.4534   18.2164 C.3     1  UNL1        0.0919
@<TRIPOS>BOND
     1     1     2    1
     2     2     3   ar
     3     3    22    1
     4    22    23    2
     5    22    24   am
     6    24    26    1
     7    26    27    1
     8    27    28    1
     9    28    29    1
    10    29    30    1
    11    30    31    1
    12     3     4   ar
    13     4     5   ar
    14     5     7    1
    15     7     8   ar
    16     8     9   ar
    17     9    10   ar
    18    10    11    1
    19    10    12   ar
    20    12    13   ar
    21    13    14    1
    22     5     6   ar
    23     6    15    1
    24    15    16   ar
    25    16    17   ar
    26    17    18   ar
    27    18    19    1
    28    18    20   ar
    29    20    21   ar
    30     6     2   ar
    31    21    15   ar
    32    31    26    1
    33    13     7   ar
    34    24    25    1
@<TRIPOS>MOLECULE
*****
 31 34 0 0 0
SMALL
GASTEIGER

@<TRIPOS>ATOM
      1 C         -13.6232   -2.2095   18.7761 C.3     1  UNL1        0.0344
      2 C         -14.8447   -3.0797   18.8003 C.ar    1  UNL1        0.0197
      3 C         -16.2513   -2.6185   19.0430 C.ar    1  UNL1        0.1530
      4 N         -17.1500   -3.8177   18.9786 N.ar    1  UNL1       -0.1607
      5 N         -16.2990   -5.0202   18.6961 N.ar    1  UNL1       -0.2290
      6 C         -14.8742   -4.5641   18.5858 C.ar    1  UNL1        0.0804
      7 C         -16.7870   -6.4309   18.5495 C.ar    1  UNL1        0.0933
      8 C         -16.7853   -7.3519   19.7335 C.ar    1  UNL1        0.0209
      9 C         -17.2733   -8.7627   19.5870 C.ar    1  UNL1        0.0130
     10 C         -17.7630   -9.2525   18.2564 C.ar    1  UNL1        0.0586
     11 CL        -18.2510  -10.6633   18.1098 Cl      1  UNL1       -0.0822
     12 C         -17.7647   -8.3315   17.0725 C.ar    1  UNL1        0.0243
     13 C         -17.2767   -6.9208   17.2190 C.ar    1  UNL1        0.0761
     14 CL        -17.2784   -5.9997   16.0351 Cl      1  UNL1       -0.0806
     15 C         -13.6873   -5.4388   18.3097 C.ar    1  UNL1        0.0175
     16 C         -13.4427   -5.9551   16.9227 C.ar    1  UNL1        0.0024
     17 C         -12.2558   -6.8297   16.6465 C.ar    1  UNL1        0.0114
     18 C         -11.3136   -7.1881   17.7573 C.ar    1  UNL1        0.0577
     19 CL        -10.1268   -8.0628   17.4811 Cl      1  UNL1       -0.0822
     20 C         -11.5583   -6.6719   19.1443 C.ar    1  UNL1        0.0114
     21 C         -12.7452   -5.7972   19.4204 C.ar    1  UNL1        0.0024
     22 C         -16.6832   -1.2060   19.3043 C.2     1  UNL1        0.2782
     23 O         -16.2740   -0.1106   18.3647 O.2     1  UNL1       -0.2671
     24 N         -17.5242   -0.8888   20.5051 N.am    1  UNL1       -0.2417
     25 H         -17.7928   -1.6077   21.1218 H       1  UNL1        0.1696
     26 N         -17.9561    0.5238   20.7664 N.3     1  UNL1       -0.2057
     27 C         -19.2550    1.0261   20.2092 C.3     1  UNL1        0.0919
     28 C         -19.6869    2.4386   20.4705 C.3     1  UNL1        0.0191
     29 C         -18.8198    3.3488   21.2890 C.3     1  UNL1        0.0030
     30 C         -17.5210    2.8464   21.8462 C.3     1  UNL1        0.0191
     31 C         -17.0891    1.4339   21.5849 C.3     1  UNL1        0.0919
@<TRIPOS>BOND
     1     1     2    1
     2     2     3   ar
     3     3    22    1
     4    22    23    2
     5    22    24   am
     6    24    26    1
     7    26    27    1
     8    27    28    1
     9    28    29    1
    10    29    30    1
    11    30    31    1
    12     3     4   ar
    13     4     5   ar
    14     5     7    1
    15     7     8   ar
    16     8     9   ar
    17     9    10   ar
    18    10    11    1
    19    10    12   ar
    20    12    13   ar
    21    13    14    1
    22     5     6   ar
    23     6    15    1
    24    15    16   ar
    25    16    17   ar
    26    17    18   ar
    27    18    19    1
    28    18    20   ar
    29    20    21   ar
    30     6     2   ar
    31    21    15   ar
    32    31    26    1
    33    13     7   ar
    34    24    25    1
@<TRIPOS>MOLECULE
*****
 31 34 0 0 0
SMALL
GASTEIGER

@<TRIPOS>ATOM
      1 C         -13.7158    0.3220   18.7532 C.3     1  UNL1        0.0344
      2 C         -14.5591   -0.9153   18.8418 C.ar    1  UNL1        0.0197
      3 C         -15.9831   -0.9803   19.3089 C.ar    1  UNL1        0.1530
      4 N         -16.4306   -2.4101   19.2347 N.ar    1  UNL1       -0.1607
      5 N         -15.2832   -3.2288   18.7217 N.ar    1  UNL1       -0.2290
      6 C         -14.1265   -2.3051   18.4789 C.ar    1  UNL1        0.0804
      7 C         -15.2910   -4.7110   18.4920 C.ar    1  UNL1        0.0933
      8 C         -15.8932   -5.2725   17.2381 C.ar    1  UNL1        0.0209
      9 C         -15.9011   -6.7547   17.0082 C.ar    1  UNL1        0.0130
     10 C         -15.3067   -7.6756   18.0324 C.ar    1  UNL1        0.0586
     11 CL        -15.3146   -9.1579   17.8026 Cl      1  UNL1       -0.0822
     12 C         -14.7046   -7.1142   19.2862 C.ar    1  UNL1        0.0243
     13 C         -14.6967   -5.6320   19.5160 C.ar    1  UNL1        0.0761
     14 CL        -14.0945   -5.0706   20.7699 Cl      1  UNL1       -0.0806
     15 C         -12.7747   -2.7014   17.9637 C.ar    1  UNL1        0.0175
     16 C         -11.7239   -3.1923   18.9149 C.ar    1  UNL1        0.0024
     17 C         -10.3721   -3.5886   18.3997 C.ar    1  UNL1        0.0114
     18 C         -10.0711   -3.4941   16.9333 C.ar    1  UNL1        0.0577
     19 CL         -8.7193   -3.8904   16.4180 Cl      1  UNL1       -0.0822
     20 C         -11.1219   -3.0032   15.9820 C.ar    1  UNL1        0.0114
     21 C         -12.4737   -2.6069   16.4973 C.ar    1  UNL1        0.0024
     22 C         -16.8137    0.1808   19.7693 C.2     1  UNL1        0.2782
     23 O         -17.3535    1.1601   18.7695 O.2     1  UNL1       -0.2671
     24 N         -17.1046    0.3626   21.2296 N.am    1  UNL1       -0.2417
     25 H         -16.7503   -0.2801   21.8858 H       1  UNL1        0.1696
     26 N         -17.9352    1.5237   21.6900 N.3     1  UNL1       -0.2057
     27 C         -19.4256    1.4925   21.5234 C.3     1  UNL1        0.0919
     28 C         -20.2561    2.6536   21.9839 C.3     1  UNL1        0.0191
     29 C         -19.5963    3.8458   22.6109 C.3     1  UNL1        0.0030
     30 C         -18.1060    3.8770   22.7775 C.3     1  UNL1        0.0191
     31 C         -17.2754    2.7160   22.3170 C.3     1  UNL1        0.0919
@<TRIPOS>BOND
     1     1     2    1
     2     2     3   ar
     3     3    22    1
     4    22    23    2
     5    22    24   am
     6    24    26    1
     7    26    27    1
     8    27    28    1
     9    28    29    1
    10    29    30    1
    11    30    31    1
    12     3     4   ar
    13     4     5   ar
    14     5     7    1
    15     7     8   ar
    16     8     9   ar
    17     9    10   ar
    18    10    11    1
    19    10    12   ar
    20    12    13   ar
    21    13    14    1
    22     5     6   ar
    23     6    15    1
    24    15    16   ar
    25    16    17   ar
    26    17    18   ar
    27    18    19    1
    28    18    20   ar
    29    20    21   ar
    30     6     2   ar
    31    21    15   ar
    32    31    26    1
    33    13     7   ar
    34    24    25    1
@<TRIPOS>MOLECULE
*****
 31 34 0 0 0
SMALL
GASTEIGER

@<TRIPOS>ATOM
      1 C          -0.3336    3.3949   17.6056 C.3     1  UNL1        0.0344
      2 C          -0.7922    3.1912   19.0192 C.ar    1  UNL1        0.0197
      3 C          -0.1064    2.3523   20.0565 C.ar    1  UNL1        0.1530
      4 N          -0.9075    2.4333   21.3220 N.ar    1  UNL1       -0.1607
      5 N          -2.0885    3.3223   21.0670 N.ar    1  UNL1       -0.2290
      6 C          -2.0172    3.7908   19.6438 C.ar    1  UNL1        0.0804
      7 C          -3.1535    3.6800   22.0607 C.ar    1  UNL1        0.0933
      8 C          -4.5460    3.1484   21.8917 C.ar    1  UNL1        0.0209
      9 C          -5.6112    3.5061   22.8853 C.ar    1  UNL1        0.0130
     10 C          -5.2839    4.3955   24.0481 C.ar    1  UNL1        0.0586
     11 CL         -6.3491    4.7533   25.0419 Cl      1  UNL1       -0.0822
     12 C          -3.8915    4.9271   24.2171 C.ar    1  UNL1        0.0243
     13 C          -2.8264    4.5694   23.2235 C.ar    1  UNL1        0.0761
     14 CL         -1.4339    5.1009   23.3925 Cl      1  UNL1       -0.0806
     15 C          -2.9987    4.6992   18.9644 C.ar    1  UNL1        0.0175
     16 C          -2.8114    6.1862   19.0264 C.ar    1  UNL1        0.0024
     17 C          -3.7928    7.0946   18.3470 C.ar    1  UNL1        0.0114
     18 C          -4.9615    6.5161   17.6057 C.ar    1  UNL1        0.0577
     19 CL         -5.9429    7.4245   16.9264 Cl      1  UNL1       -0.0822
     20 C          -5.1487    5.0291   17.5438 C.ar    1  UNL1        0.0114
     21 C          -4.1673    4.1206   18.2232 C.ar    1  UNL1        0.0024
     22 C           1.1585    1.5697   19.8622 C.2     1  UNL1        0.2782
     23 O           2.4417    2.0558   20.4680 O.2     1  UNL1       -0.2671
     24 N           1.1401    0.3011   19.0621 N.am    1  UNL1       -0.2417
     25 H           0.2979   -0.0180   18.6644 H       1  UNL1        0.1696
     26 N           2.4050   -0.4815   18.8678 N.3     1  UNL1       -0.2057
     27 C           2.7984   -1.5308   19.8648 C.3     1  UNL1        0.0919
     28 C           4.0632   -2.3133   19.6705 C.3     1  UNL1        0.0191
     29 C           4.9347   -2.0465   18.4791 C.3     1  UNL1        0.0030
     30 C           4.5413   -0.9972   17.4820 C.3     1  UNL1        0.0191
     31 C           3.2764   -0.2147   17.6764 C.3     1  UNL1        0.0919
@<TRIPOS>BOND
     1     1     2    1
     2     2     3   ar
     3     3    22    1
     4    22    23    2
     5    22    24   am
     6    24    26    1
     7    26    27    1
     8    27    28    1
     9    28    29    1
    10    29    30    1
    11    30    31    1
    12     3     4   ar
    13     4     5   ar
    14     5     7    1
    15     7     8   ar
    16     8     9   ar
    17     9    10   ar
    18    10    11    1
    19    10    12   ar
    20    12    13   ar
    21    13    14    1
    22     5     6   ar
    23     6    15    1
    24    15    16   ar
    25    16    17   ar
    26    17    18   ar
    27    18    19    1
    28    18    20   ar
    29    20    21   ar
    30     6     2   ar
    31    21    15   ar
    32    31    26    1
    33    13     7   ar
    34    24    25    1
@<TRIPOS>MOLECULE
*****
 31 34 0 0 0
SMALL
GASTEIGER

@<TRIPOS>ATOM
      1 C           5.6113   -1.9100   26.1294 C.3     1  UNL1        0.0344
      2 C           5.7144   -2.3088   24.6871 C.ar    1  UNL1        0.0197
      3 C           6.4625   -3.4933   24.1510 C.ar    1  UNL1        0.1530
      4 N           6.2979   -3.5096   22.6602 N.ar    1  UNL1       -0.1607
      5 N           5.4480   -2.3353   22.2748 N.ar    1  UNL1       -0.2290
      6 C           5.0874   -1.5931   23.5275 C.ar    1  UNL1        0.0804
      7 C           5.0319   -1.9676   20.8814 C.ar    1  UNL1        0.0933
      8 C           3.8030   -2.5815   20.2791 C.ar    1  UNL1        0.0209
      9 C           3.3867   -2.2139   18.8857 C.ar    1  UNL1        0.0130
     10 C           4.1996   -1.2323   18.0945 C.ar    1  UNL1        0.0586
     11 CL          3.7834   -0.8646   16.7011 Cl      1  UNL1       -0.0822
     12 C           5.4285   -0.6184   18.6969 C.ar    1  UNL1        0.0243
     13 C           5.8447   -0.9860   20.0902 C.ar    1  UNL1        0.0761
     14 CL          7.0736   -0.3721   20.6926 Cl      1  UNL1       -0.0806
     15 C           4.2473   -0.3529   23.6066 C.ar    1  UNL1        0.0175
     16 C           4.8500    0.9830   23.2869 C.ar    1  UNL1        0.0024
     17 C           4.0099    2.2231   23.3660 C.ar    1  UNL1        0.0114
     18 C           2.5671    2.1273   23.7649 C.ar    1  UNL1        0.0577
     19 CL          1.7270    3.3674   23.8441 Cl      1  UNL1       -0.0822
     20 C           1.9644    0.7914   24.0847 C.ar    1  UNL1        0.0114
     21 C           2.8045   -0.4487   24.0055 C.ar    1  UNL1        0.0024
     22 C           7.2389   -4.4870   24.9633 C.2     1  UNL1        0.2782
     23 O           8.7170   -4.6344   24.7551 O.2     1  UNL1       -0.2671
     24 N           6.5372   -5.3332   25.9839 N.am    1  UNL1       -0.2417
     25 H           5.5671   -5.2364   26.1205 H       1  UNL1        0.1696
     26 N           7.3136   -6.3269   26.7962 N.3     1  UNL1       -0.2057
     27 C           7.8747   -5.9306   28.1296 C.3     1  UNL1        0.0919
     28 C           8.6511   -6.9243   28.9419 C.3     1  UNL1        0.0191
     29 C           8.8664   -8.3143   28.4206 C.3     1  UNL1        0.0030
     30 C           8.3054   -8.7105   27.0872 C.3     1  UNL1        0.0191
     31 C           7.5290   -7.7169   26.2749 C.3     1  UNL1        0.0919
@<TRIPOS>BOND
     1     1     2    1
     2     2     3   ar
     3     3    22    1
     4    22    23    2
     5    22    24   am
     6    24    26    1
     7    26    27    1
     8    27    28    1
     9    28    29    1
    10    29    30    1
    11    30    31    1
    12     3     4   ar
    13     4     5   ar
    14     5     7    1
    15     7     8   ar
    16     8     9   ar
    17     9    10   ar
    18    10    11    1
    19    10    12   ar
    20    12    13   ar
    21    13    14    1
    22     5     6   ar
    23     6    15    1
    24    15    16   ar
    25    16    17   ar
    26    17    18   ar
    27    18    19    1
    28    18    20   ar
    29    20    21   ar
    30     6     2   ar
    31    21    15   ar
    32    31    26    1
    33    13     7   ar
    34    24    25    1
