@<TRIPOS>MOLECULE
*****
 25 28 0 0 0
SMALL
GASTEIGER

@<TRIPOS>ATOM
      1 C          -6.5105  -20.3908   20.4970 C.ar    1  UNL1        0.1385
      2 C          -7.3583  -19.8804   19.3698 C.ar    1  UNL1        0.0384
      3 C          -8.7376  -19.3592   19.6453 C.ar    1  UNL1        0.0203
      4 C          -9.2691  -19.3484   21.0480 C.ar    1  UNL1        0.0602
      5 C          -8.4212  -19.8589   22.1752 C.ar    1  UNL1        0.0204
      6 C          -7.0420  -20.3801   21.8997 C.ar    1  UNL1        0.0384
      7 C          -9.2085  -19.7245   23.4449 C.ar    1  UNL1        0.0234
      8 C         -10.5428  -19.1310   23.1024 C.ar    1  UNL1        0.1143
      9 N         -10.5803  -18.8985   21.6211 N.ar    1  UNL1       -0.3219
     10 C         -11.8035  -18.3073   20.9854 C.3     1  UNL1        0.1276
     11 C         -12.9892  -17.9485   21.8311 C.3     1  UNL1        0.1182
     12 N         -12.9517  -18.1809   23.3125 N.am    1  UNL1       -0.2712
     13 C         -14.1375  -17.8221   24.1583 C.3     1  UNL1        0.1153
     14 C         -11.7285  -18.7722   23.9482 C.2     1  UNL1        0.2650
     15 O         -11.6910  -19.0047   25.4296 O.2     1  UNL1       -0.2683
     16 O          -5.1312  -20.9121   20.2216 O.3     1  UNL1       -0.4791
     17 N          -1.5975  -18.1317   20.4019 N.3     1  UNL1       -0.2737
     18 C          -2.4015  -18.2420   19.1403 C.3     1  UNL1        0.0758
     19 C          -3.5794  -19.1688   19.0802 C.3     1  UNL1        0.0609
     20 C          -3.9533  -19.9853   20.2817 C.3     1  UNL1        0.1687
     21 C          -3.1493  -19.8750   21.5432 C.3     1  UNL1        0.0609
     22 C          -1.9715  -18.9482   21.6033 C.3     1  UNL1        0.0758
     23 C          -0.5980  -15.7956   20.9438 C.3     1  UNL1        0.0173
     24 C          -0.4197  -17.2049   20.4619 C.3     1  UNL1        0.0576
     25 C           0.9366  -17.6873   20.0401 C.3     1  UNL1        0.0173
@<TRIPOS>BOND
     1    23    24    1
     2    24    25    1
     3    24    17    1
     4    17    18    1
     5    18    19    1
     6    19    20    1
     7    20    16    1
     8    16     1    1
     9     1     2   ar
    10     2     3   ar
    11     3     4   ar
    12     4     5   ar
    13     5     6   ar
    14     5     7   ar
    15     7     8   ar
    16     8     9   ar
    17     9    10    1
    18    10    11    1
    19    11    12    1
    20    12    13    1
    21    12    14   am
    22    14    15    2
    23    20    21    1
    24    21    22    1
    25    22    17    1
    26     6     1   ar
    27    14     8    1
    28     9     4   ar
@<TRIPOS>MOLECULE
*****
 25 28 0 0 0
SMALL
GASTEIGER

@<TRIPOS>ATOM
      1 C          -6.5736  -20.2210   20.6058 C.ar    1  UNL1        0.1385
      2 C          -6.5072  -20.5896   22.0583 C.ar    1  UNL1        0.0384
      3 C          -7.6787  -20.3189   22.9551 C.ar    1  UNL1        0.0203
      4 C          -8.9166  -19.6794   22.3994 C.ar    1  UNL1        0.0602
      5 C          -8.9830  -19.3108   20.9469 C.ar    1  UNL1        0.0204
      6 C          -7.8115  -19.5815   20.0502 C.ar    1  UNL1        0.0384
      7 C         -10.3264  -18.6971   20.6855 C.ar    1  UNL1        0.0234
      8 C         -11.0904  -18.6864   21.9763 C.ar    1  UNL1        0.1143
      9 N         -10.2191  -19.2936   23.0356 N.ar    1  UNL1       -0.3219
     10 C         -10.7242  -19.4166   24.4426 C.3     1  UNL1        0.1276
     11 C         -12.1007  -18.9325   24.7903 C.3     1  UNL1        0.1182
     12 N         -12.9720  -18.3254   23.7310 N.am    1  UNL1       -0.2712
     13 C         -14.3486  -17.8413   24.0787 C.3     1  UNL1        0.1153
     14 C         -12.4668  -18.2024   22.3240 C.2     1  UNL1        0.2650
     15 O         -13.3383  -17.5952   21.2646 O.2     1  UNL1       -0.2683
     16 O          -5.4021  -20.4917   19.7090 O.3     1  UNL1       -0.4791
     17 N          -1.6252  -18.0858   20.1528 N.3     1  UNL1       -0.2737
     18 C          -2.6439  -17.6992   19.1219 C.3     1  UNL1        0.0758
     19 C          -3.9029  -18.5012   18.9739 C.3     1  UNL1        0.0609
     20 C          -4.1431  -19.6898   19.8569 C.3     1  UNL1        0.1687
     21 C          -3.1244  -20.0763   20.8879 C.3     1  UNL1        0.0609
     22 C          -1.8655  -19.2743   21.0358 C.3     1  UNL1        0.0758
     23 C           0.9543  -17.8836   19.9185 C.3     1  UNL1        0.0173
     24 C          -0.3663  -17.2838   20.3007 C.3     1  UNL1        0.0576
     25 C          -0.4280  -15.8819   20.8310 C.3     1  UNL1        0.0173
@<TRIPOS>BOND
     1    23    24    1
     2    24    25    1
     3    24    17    1
     4    17    18    1
     5    18    19    1
     6    19    20    1
     7    20    16    1
     8    16     1    1
     9     1     2   ar
    10     2     3   ar
    11     3     4   ar
    12     4     5   ar
    13     5     6   ar
    14     5     7   ar
    15     7     8   ar
    16     8     9   ar
    17     9    10    1
    18    10    11    1
    19    11    12    1
    20    12    13    1
    21    12    14   am
    22    14    15    2
    23    20    21    1
    24    21    22    1
    25    22    17    1
    26     6     1   ar
    27    14     8    1
    28     9     4   ar
@<TRIPOS>MOLECULE
*****
 25 28 0 0 0
SMALL
GASTEIGER

@<TRIPOS>ATOM
      1 C         -14.9810   -0.0175   18.8068 C.ar    1  UNL1        0.1385
      2 C         -13.5842    0.4545   18.5309 C.ar    1  UNL1        0.0384
      3 C         -12.4567   -0.5330   18.4723 C.ar    1  UNL1        0.0203
      4 C         -12.7260   -1.9925   18.6897 C.ar    1  UNL1        0.0602
      5 C         -14.1228   -2.4646   18.9656 C.ar    1  UNL1        0.0204
      6 C         -15.2503   -1.4770   19.0241 C.ar    1  UNL1        0.0384
      7 C         -14.0831   -3.9541   19.1380 C.ar    1  UNL1        0.0234
      8 C         -12.6618   -4.4027   18.9687 C.ar    1  UNL1        0.1143
      9 N         -11.8230   -3.1904   18.6916 N.ar    1  UNL1       -0.3219
     10 C         -10.3455   -3.3338   18.4769 C.3     1  UNL1        0.1276
     11 C          -9.7066   -4.6895   18.5392 C.3     1  UNL1        0.1182
     12 N         -10.5454   -5.9018   18.8163 N.am    1  UNL1       -0.2712
     13 C          -9.9066   -7.2576   18.8786 C.3     1  UNL1        0.1153
     14 C         -12.0230   -5.7584   19.0310 C.2     1  UNL1        0.2650
     15 O         -12.8618   -6.9707   19.3081 O.2     1  UNL1       -0.2683
     16 O         -16.1086    0.9700   18.8653 O.3     1  UNL1       -0.4791
     17 N         -16.7532    3.4316   22.5768 N.3     1  UNL1       -0.2737
     18 C         -17.3580    2.0631   22.4701 C.3     1  UNL1        0.0758
     19 C         -17.1432    1.2426   21.2329 C.3     1  UNL1        0.0609
     20 C         -16.3235    1.7905   20.1025 C.3     1  UNL1        0.1687
     21 C         -15.7186    3.1591   20.2093 C.3     1  UNL1        0.0609
     22 C         -15.9335    3.9796   21.4464 C.3     1  UNL1        0.0758
     23 C         -15.7929    4.6912   24.6362 C.3     1  UNL1        0.0173
     24 C         -16.9681    4.2521   23.8139 C.3     1  UNL1        0.0576
     25 C         -18.3583    4.6335   24.2289 C.3     1  UNL1        0.0173
@<TRIPOS>BOND
     1    23    24    1
     2    24    25    1
     3    24    17    1
     4    17    18    1
     5    18    19    1
     6    19    20    1
     7    20    16    1
     8    16     1    1
     9     1     2   ar
    10     2     3   ar
    11     3     4   ar
    12     4     5   ar
    13     5     6   ar
    14     5     7   ar
    15     7     8   ar
    16     8     9   ar
    17     9    10    1
    18    10    11    1
    19    11    12    1
    20    12    13    1
    21    12    14   am
    22    14    15    2
    23    20    21    1
    24    21    22    1
    25    22    17    1
    26     6     1   ar
    27    14     8    1
    28     9     4   ar
@<TRIPOS>MOLECULE
*****
 25 28 0 0 0
SMALL
GASTEIGER

@<TRIPOS>ATOM
      1 C           7.1051   -4.5722   22.8512 C.ar    1  UNL1        0.1385
      2 C           6.3162   -3.5142   23.5642 C.ar    1  UNL1        0.0384
      3 C           6.2485   -3.5112   25.0626 C.ar    1  UNL1        0.0203
      4 C           6.9696   -4.5662   25.8481 C.ar    1  UNL1        0.0602
      5 C           7.7585   -5.6241   25.1352 C.ar    1  UNL1        0.0204
      6 C           7.8263   -5.6271   23.6367 C.ar    1  UNL1        0.0384
      7 C           8.3611   -6.5286   26.1690 C.ar    1  UNL1        0.0234
      8 C           7.9446   -6.0297   27.5209 C.ar    1  UNL1        0.1143
      9 N           7.0846   -4.8168   27.3226 N.ar    1  UNL1       -0.3219
     10 C           6.5173   -4.0974   28.5102 C.3     1  UNL1        0.1276
     11 C           6.8100   -4.5908   29.8961 C.3     1  UNL1        0.1182
     12 N           7.6700   -5.8036   30.0944 N.am    1  UNL1       -0.2712
     13 C           7.9627   -6.2971   31.4804 C.3     1  UNL1        0.1153
     14 C           8.2373   -6.5231   28.9068 C.2     1  UNL1        0.2650
     15 O           9.0973   -7.7361   29.1051 O.2     1  UNL1       -0.2683
     16 O           7.1729   -4.5752   21.3527 O.3     1  UNL1       -0.4791
     17 N           4.5700   -1.7769   18.9769 N.3     1  UNL1       -0.2737
     18 C           4.0027   -3.0601   19.5077 C.3     1  UNL1        0.0758
     19 C           4.8704   -3.9929   20.2996 C.3     1  UNL1        0.0609
     20 C           6.3053   -3.6425   20.5608 C.3     1  UNL1        0.1687
     21 C           6.8726   -2.3593   20.0300 C.3     1  UNL1        0.0609
     22 C           6.0049   -1.4266   19.2381 C.3     1  UNL1        0.0758
     23 C           2.7620    0.0869   18.8913 C.3     1  UNL1        0.0173
     24 C           3.7024   -0.8442   18.1850 C.3     1  UNL1        0.0576
     25 C           3.7750   -0.8426   16.6867 C.3     1  UNL1        0.0173
@<TRIPOS>BOND
     1    23    24    1
     2    24    25    1
     3    24    17    1
     4    17    18    1
     5    18    19    1
     6    19    20    1
     7    20    16    1
     8    16     1    1
     9     1     2   ar
    10     2     3   ar
    11     3     4   ar
    12     4     5   ar
    13     5     6   ar
    14     5     7   ar
    15     7     8   ar
    16     8     9   ar
    17     9    10    1
    18    10    11    1
    19    11    12    1
    20    12    13    1
    21    12    14   am
    22    14    15    2
    23    20    21    1
    24    21    22    1
    25    22    17    1
    26     6     1   ar
    27    14     8    1
    28     9     4   ar
@<TRIPOS>MOLECULE
*****
 25 28 0 0 0
SMALL
GASTEIGER

@<TRIPOS>ATOM
      1 C           7.3303   -4.6679   23.3380 C.ar    1  UNL1        0.1385
      2 C           7.7985   -5.9753   23.9049 C.ar    1  UNL1        0.0384
      3 C           7.7954   -6.1934   25.3889 C.ar    1  UNL1        0.0203
      4 C           7.3242   -5.1040   26.3061 C.ar    1  UNL1        0.0602
      5 C           6.8560   -3.7966   25.7392 C.ar    1  UNL1        0.0204
      6 C           6.8591   -3.5785   24.2552 C.ar    1  UNL1        0.0384
      7 C           6.4510   -2.9141   26.8826 C.ar    1  UNL1        0.0234
      8 C           6.6688   -3.6762   28.1561 C.ar    1  UNL1        0.1143
      9 N           7.2084   -5.0297   27.7998 N.ar    1  UNL1       -0.3219
     10 C           7.5247   -6.0195   28.8815 C.3     1  UNL1        0.1276
     11 C           7.3014   -5.6559   30.3195 C.3     1  UNL1        0.1182
     12 N           6.7617   -4.3025   30.6758 N.am    1  UNL1       -0.2712
     13 C           6.5383   -3.9388   32.1139 C.3     1  UNL1        0.1153
     14 C           6.4454   -3.3126   29.5940 C.2     1  UNL1        0.2650
     15 O           5.9057   -1.9591   29.9503 O.2     1  UNL1       -0.2683
     16 O           7.3334   -4.4497   21.8539 O.3     1  UNL1       -0.4791
     17 N           4.2152   -1.8149   19.9606 N.3     1  UNL1       -0.2737
     18 C           3.8447   -3.1845   20.4473 C.3     1  UNL1        0.0758
     19 C           4.8841   -4.0628   21.0784 C.3     1  UNL1        0.0609
     20 C           6.2940   -3.5715   21.2228 C.3     1  UNL1        0.1687
     21 C           6.6644   -2.2018   20.7361 C.3     1  UNL1        0.0609
     22 C           5.6251   -1.3236   20.1050 C.3     1  UNL1        0.0758
     23 C           1.8524   -0.7355   20.0064 C.3     1  UNL1        0.0173
     24 C           3.1758   -0.9367   19.3295 C.3     1  UNL1        0.0576
     25 C           3.4598   -0.2596   18.0214 C.3     1  UNL1        0.0173
@<TRIPOS>BOND
     1    23    24    1
     2    24    25    1
     3    24    17    1
     4    17    18    1
     5    18    19    1
     6    19    20    1
     7    20    16    1
     8    16     1    1
     9     1     2   ar
    10     2     3   ar
    11     3     4   ar
    12     4     5   ar
    13     5     6   ar
    14     5     7   ar
    15     7     8   ar
    16     8     9   ar
    17     9    10    1
    18    10    11    1
    19    11    12    1
    20    12    13    1
    21    12    14   am
    22    14    15    2
    23    20    21    1
    24    21    22    1
    25    22    17    1
    26     6     1   ar
    27    14     8    1
    28     9     4   ar
@<TRIPOS>MOLECULE
*****
 25 28 0 0 0
SMALL
GASTEIGER

@<TRIPOS>ATOM
      1 C           7.4917   -4.9378   23.5958 C.ar    1  UNL1        0.1385
      2 C           8.2936   -4.9015   22.3287 C.ar    1  UNL1        0.0384
      3 C           7.7726   -4.1618   21.1324 C.ar    1  UNL1        0.0203
      4 C           6.4497   -3.4583   21.2031 C.ar    1  UNL1        0.0602
      5 C           5.6478   -3.4946   22.4702 C.ar    1  UNL1        0.0204
      6 C           6.1688   -4.2343   23.6665 C.ar    1  UNL1        0.0384
      7 C           4.3875   -2.7133   22.2436 C.ar    1  UNL1        0.0234
      8 C           4.4106   -2.1942   20.8365 C.ar    1  UNL1        0.1143
      9 N           5.6851   -2.6546   20.1934 N.ar    1  UNL1       -0.3219
     10 C           5.9847   -2.2825   18.7716 C.3     1  UNL1        0.1276
     11 C           5.0098   -1.4501   17.9928 C.3     1  UNL1        0.1182
     12 N           3.7353   -0.9897   18.6359 N.am    1  UNL1       -0.2712
     13 C           2.7603   -0.1571   17.8571 C.3     1  UNL1        0.1153
     14 C           3.4356   -1.3617   20.0578 C.2     1  UNL1        0.2650
     15 O           2.1610   -0.9013   20.7009 O.2     1  UNL1       -0.2683
     16 O           8.0127   -5.6776   24.7922 O.3     1  UNL1       -0.4791
     17 N           7.0254   -4.2312   28.9375 N.3     1  UNL1       -0.2737
     18 C           8.0788   -3.5322   28.1303 C.3     1  UNL1        0.0758
     19 C           8.4079   -4.0143   26.7485 C.3     1  UNL1        0.0609
     20 C           7.6836   -5.1955   26.1740 C.3     1  UNL1        0.1687
     21 C           6.6301   -5.8945   26.9812 C.3     1  UNL1        0.0609
     22 C           6.3010   -5.4124   28.3629 C.3     1  UNL1        0.0758
     23 C           6.9113   -4.6501   31.4990 C.3     1  UNL1        0.0173
     24 C           6.6963   -3.7491   30.3192 C.3     1  UNL1        0.0576
     25 C           6.1522   -2.3659   30.5212 C.3     1  UNL1        0.0173
@<TRIPOS>BOND
     1    23    24    1
     2    24    25    1
     3    24    17    1
     4    17    18    1
     5    18    19    1
     6    19    20    1
     7    20    16    1
     8    16     1    1
     9     1     2   ar
    10     2     3   ar
    11     3     4   ar
    12     4     5   ar
    13     5     6   ar
    14     5     7   ar
    15     7     8   ar
    16     8     9   ar
    17     9    10    1
    18    10    11    1
    19    11    12    1
    20    12    13    1
    21    12    14   am
    22    14    15    2
    23    20    21    1
    24    21    22    1
    25    22    17    1
    26     6     1   ar
    27    14     8    1
    28     9     4   ar
@<TRIPOS>MOLECULE
*****
 25 28 0 0 0
SMALL
GASTEIGER

@<TRIPOS>ATOM
      1 C         -13.2071   -4.0232   19.4571 C.ar    1  UNL1        0.1385
      2 C         -11.9909   -3.6444   18.6652 C.ar    1  UNL1        0.0384
      3 C         -11.8673   -2.2623   18.0955 C.ar    1  UNL1        0.0203
      4 C         -12.9600   -1.2590   18.3178 C.ar    1  UNL1        0.0602
      5 C         -14.1763   -1.6378   19.1097 C.ar    1  UNL1        0.0204
      6 C         -14.2998   -3.0199   19.6794 C.ar    1  UNL1        0.0384
      7 C         -15.0842   -0.4451   19.1637 C.ar    1  UNL1        0.0234
      8 C         -14.4291    0.6709   18.4051 C.ar    1  UNL1        0.1143
      9 N         -13.1163    0.1679   17.8823 N.ar    1  UNL1       -0.3219
     10 C         -12.2328    1.0740   17.0773 C.3     1  UNL1        0.1276
     11 C         -12.6621    2.4833   16.7950 C.3     1  UNL1        0.1182
     12 N         -13.9749    2.9863   17.3178 N.am    1  UNL1       -0.2712
     13 C         -14.4043    4.3956   17.0355 C.3     1  UNL1        0.1153
     14 C         -14.8585    2.0801   18.1229 C.2     1  UNL1        0.2650
     15 O         -16.1714    2.5832   18.6457 O.2     1  UNL1       -0.2683
     16 O         -13.3307   -5.4053   20.0268 O.3     1  UNL1       -0.4791
     17 N         -16.3832   -8.2612   18.3604 N.3     1  UNL1       -0.2737
     18 C         -14.9222   -8.4994   18.1178 C.3     1  UNL1        0.0758
     19 C         -13.9047   -7.5474   18.6733 C.3     1  UNL1        0.0609
     20 C         -14.3482   -6.3573   19.4713 C.3     1  UNL1        0.1687
     21 C         -15.8092   -6.1191   19.7139 C.3     1  UNL1        0.0609
     22 C         -16.8266   -7.0710   19.1584 C.3     1  UNL1        0.0758
     23 C         -18.3460   -8.7588   16.7327 C.3     1  UNL1        0.0173
     24 C         -17.4006   -9.2131   17.8050 C.3     1  UNL1        0.0576
     25 C         -17.4727  -10.6195   18.3218 C.3     1  UNL1        0.0173
@<TRIPOS>BOND
     1    23    24    1
     2    24    25    1
     3    24    17    1
     4    17    18    1
     5    18    19    1
     6    19    20    1
     7    20    16    1
     8    16     1    1
     9     1     2   ar
    10     2     3   ar
    11     3     4   ar
    12     4     5   ar
    13     5     6   ar
    14     5     7   ar
    15     7     8   ar
    16     8     9   ar
    17     9    10    1
    18    10    11    1
    19    11    12    1
    20    12    13    1
    21    12    14   am
    22    14    15    2
    23    20    21    1
    24    21    22    1
    25    22    17    1
    26     6     1   ar
    27    14     8    1
    28     9     4   ar
@<TRIPOS>MOLECULE
*****
 25 28 0 0 0
SMALL
GASTEIGER

@<TRIPOS>ATOM
      1 C           6.8082   -4.0993   23.0851 C.ar    1  UNL1        0.1385
      2 C           5.8052   -3.5449   24.0530 C.ar    1  UNL1        0.0384
      3 C           4.6989   -2.6593   23.5615 C.ar    1  UNL1        0.0203
      4 C           4.5954   -2.3281   22.1022 C.ar    1  UNL1        0.0602
      5 C           5.5984   -2.8825   21.1343 C.ar    1  UNL1        0.0204
      6 C           6.7047   -3.7681   21.6258 C.ar    1  UNL1        0.0384
      7 C           5.2439   -2.3857   19.7641 C.ar    1  UNL1        0.0234
      8 C           4.0220   -1.5242   19.8851 C.ar    1  UNL1        0.1143
      9 N           3.6211   -1.4886   21.3301 N.ar    1  UNL1       -0.3219
     10 C           2.4208   -0.6964   21.7561 C.3     1  UNL1        0.1276
     11 C           1.6213    0.0602   20.7372 C.3     1  UNL1        0.1182
     12 N           2.0221    0.0246   19.2922 N.am    1  UNL1       -0.2712
     13 C           1.2226    0.7813   18.2732 C.3     1  UNL1        0.1153
     14 C           3.2225   -0.7676   18.8661 C.2     1  UNL1        0.2650
     15 O           3.6233   -0.8032   17.4210 O.2     1  UNL1       -0.2683
     16 O           7.9146   -4.9850   23.5766 O.3     1  UNL1       -0.4791
     17 N           8.2147   -5.9929   27.9520 N.3     1  UNL1       -0.2737
     18 C           7.4801   -6.9101   27.0198 C.3     1  UNL1        0.0758
     19 C           7.3801   -6.5741   25.5612 C.3     1  UNL1        0.0609
     20 C           8.0146   -5.3210   25.0350 C.3     1  UNL1        0.1687
     21 C           8.7493   -4.4038   25.9673 C.3     1  UNL1        0.0609
     22 C           8.8493   -4.7398   27.4258 C.3     1  UNL1        0.0758
     23 C           7.2954   -5.7978   30.3741 C.3     1  UNL1        0.0173
     24 C           8.3148   -6.3289   29.4104 C.3     1  UNL1        0.0576
     25 C           9.4343   -7.1962   29.9052 C.3     1  UNL1        0.0173
@<TRIPOS>BOND
     1    23    24    1
     2    24    25    1
     3    24    17    1
     4    17    18    1
     5    18    19    1
     6    19    20    1
     7    20    16    1
     8    16     1    1
     9     1     2   ar
    10     2     3   ar
    11     3     4   ar
    12     4     5   ar
    13     5     6   ar
    14     5     7   ar
    15     7     8   ar
    16     8     9   ar
    17     9    10    1
    18    10    11    1
    19    11    12    1
    20    12    13    1
    21    12    14   am
    22    14    15    2
    23    20    21    1
    24    21    22    1
    25    22    17    1
    26     6     1   ar
    27    14     8    1
    28     9     4   ar
@<TRIPOS>MOLECULE
*****
 25 28 0 0 0
SMALL
GASTEIGER

@<TRIPOS>ATOM
      1 C           2.7876   -0.2407   30.7913 C.ar    1  UNL1        0.1385
      2 C           3.7981   -1.0036   31.5955 C.ar    1  UNL1        0.0384
      3 C           4.1386   -0.5600   32.9873 C.ar    1  UNL1        0.0203
      4 C           3.4686    0.6465   33.5750 C.ar    1  UNL1        0.0602
      5 C           2.4581    1.4095   32.7708 C.ar    1  UNL1        0.0204
      6 C           2.1176    0.9659   31.3790 C.ar    1  UNL1        0.0384
      7 C           1.9650    2.5513   33.6093 C.ar    1  UNL1        0.0234
      8 C           2.6707    2.4940   34.9317 C.ar    1  UNL1        0.1143
      9 N           3.6001    1.3168   34.9105 N.ar    1  UNL1       -0.3219
     10 C           4.4458    1.0073   36.1099 C.3     1  UNL1        0.1276
     11 C           4.3623    1.8751   37.3306 C.3     1  UNL1        0.1182
     12 N           3.4330    3.0523   37.3518 N.am    1  UNL1       -0.2712
     13 C           3.3494    3.9201   38.5725 C.3     1  UNL1        0.1153
     14 C           2.5872    3.3618   36.1523 C.2     1  UNL1        0.2650
     15 O           1.6578    4.5391   36.1734 O.2     1  UNL1       -0.2683
     16 O           2.4470   -0.6843   29.3994 O.3     1  UNL1       -0.4791
     17 N          -0.2553    1.8371   26.8323 N.3     1  UNL1       -0.2737
     18 C           1.2336    1.9777   26.7177 C.3     1  UNL1        0.0758
     19 C           2.1345    1.1372   27.5734 C.3     1  UNL1        0.0609
     20 C           1.5463    0.1562   28.5437 C.3     1  UNL1        0.1687
     21 C           0.0572    0.0156   28.6583 C.3     1  UNL1        0.0609
     22 C          -0.8435    0.8560   27.8026 C.3     1  UNL1        0.0758
     23 C          -0.8578    2.8492   24.5166 C.3     1  UNL1        0.0173
     24 C          -1.1561    2.6775   25.9766 C.3     1  UNL1        0.0576
     25 C          -2.3551    3.3463   26.5809 C.3     1  UNL1        0.0173
@<TRIPOS>BOND
     1    23    24    1
     2    24    25    1
     3    24    17    1
     4    17    18    1
     5    18    19    1
     6    19    20    1
     7    20    16    1
     8    16     1    1
     9     1     2   ar
    10     2     3   ar
    11     3     4   ar
    12     4     5   ar
    13     5     6   ar
    14     5     7   ar
    15     7     8   ar
    16     8     9   ar
    17     9    10    1
    18    10    11    1
    19    11    12    1
    20    12    13    1
    21    12    14   am
    22    14    15    2
    23    20    21    1
    24    21    22    1
    25    22    17    1
    26     6     1   ar
    27    14     8    1
    28     9     4   ar
