@<TRIPOS>MOLECULE
*****
 20 22 0 0 0
SMALL
GASTEIGER

@<TRIPOS>ATOM
      1 N          -0.9481  -17.8102   18.2362 N.pl3   1  UNL1       -0.3599
      2 C          -1.8851  -18.1864   19.3454 C.2     1  UNL1        0.0247
      3 C          -1.3526  -18.4333   20.7258 C.2     1  UNL1        0.0116
      4 C          -2.2897  -18.8095   21.8350 C.2     1  UNL1        0.0213
      5 C          -3.7593  -18.9388   21.5639 C.2     1  UNL1        0.0974
      6 N          -4.9162  -19.2926   22.4506 N.2     1  UNL1       -0.2200
      7 C          -6.1638  -19.2644   21.6182 C.2     1  UNL1        0.1901
      8 N          -5.7779  -18.8931   20.2171 N.2     1  UNL1       -0.2237
      9 C          -4.2918  -18.6919   20.1835 C.2     1  UNL1        0.0844
     10 C          -3.3547  -18.3157   19.0743 C.3     1  UNL1        0.0879
     11 H           0.0165  -17.7253   18.4141 H       1  UNL1        0.1421
     12 H          -1.2976  -17.6482   17.3302 H       1  UNL1        0.1421
     13 S          -7.5533  -19.5562   22.1021 S.3     1  UNL1       -0.0692
     14 C          -8.3697  -18.4702   22.7379 C.3     1  UNL1        0.1107
     15 C          -9.7551  -18.1838   22.2393 C.ar    1  UNL1        0.0703
     16 C         -10.9252  -18.2936   23.1714 C.ar    1  UNL1        0.0156
     17 C         -12.3106  -18.0072   22.6728 C.ar    1  UNL1        0.0028
     18 C         -12.5259  -17.6110   21.2422 C.ar    1  UNL1        0.0207
     19 C         -11.3558  -17.5011   20.3101 C.ar    1  UNL1        0.0985
     20 N          -9.9703  -17.7876   20.8088 N.ar    1  UNL1       -0.2473
@<TRIPOS>BOND
     1     1     2    1
     2     2     3    2
     3     3     4    1
     4     4     5    2
     5     5     6    1
     6     6     7    2
     7     7    13    1
     8    13    14    1
     9    14    15    1
    10    15    16   ar
    11    16    17   ar
    12    17    18   ar
    13    18    19   ar
    14    19    20   ar
    15     7     8    1
    16     8     9    2
    17     9    10    1
    18    10     2    1
    19     9     5    1
    20    20    15   ar
    21     1    11    1
    22     1    12    1
@<TRIPOS>MOLECULE
*****
 20 22 0 0 0
SMALL
GASTEIGER

@<TRIPOS>ATOM
      1 N         -12.3674  -15.7721   22.5545 N.pl3   1  UNL1       -0.3599
      2 C         -11.3313  -16.8558   22.6024 C.2     1  UNL1        0.0247
      3 C         -11.6791  -18.2015   23.1663 C.2     1  UNL1        0.0116
      4 C         -10.6431  -19.2852   23.2142 C.2     1  UNL1        0.0213
      5 C          -9.2592  -19.0231   22.6982 C.2     1  UNL1        0.0974
      6 N          -8.0380  -19.8901   22.6154 N.2     1  UNL1       -0.2200
      7 C          -6.9353  -19.0801   22.0003 C.2     1  UNL1        0.1901
      8 N          -7.4751  -17.7126   21.7030 N.2     1  UNL1       -0.2237
      9 C          -8.9114  -17.6774   22.1343 C.2     1  UNL1        0.0844
     10 C          -9.9475  -16.5937   22.0864 C.3     1  UNL1        0.0879
     11 H         -13.2756  -15.9441   22.8931 H       1  UNL1        0.1421
     12 H         -12.1391  -14.8889   22.1844 H       1  UNL1        0.1421
     13 S          -5.5382  -19.5545   21.7301 S.3     1  UNL1       -0.0692
     14 C          -4.3892  -18.9855   22.5087 C.3     1  UNL1        0.1107
     15 C          -3.2419  -18.3407   21.7892 C.ar    1  UNL1        0.0703
     16 C          -2.4497  -19.1252   20.7856 C.ar    1  UNL1        0.0156
     17 C          -1.3024  -18.4803   20.0661 C.ar    1  UNL1        0.0028
     18 C          -0.9471  -17.0509   20.3502 C.ar    1  UNL1        0.0207
     19 C          -1.7392  -16.2664   21.3537 C.ar    1  UNL1        0.0985
     20 N          -2.8866  -16.9114   22.0732 N.ar    1  UNL1       -0.2473
@<TRIPOS>BOND
     1     1     2    1
     2     2     3    2
     3     3     4    1
     4     4     5    2
     5     5     6    1
     6     6     7    2
     7     7    13    1
     8    13    14    1
     9    14    15    1
    10    15    16   ar
    11    16    17   ar
    12    17    18   ar
    13    18    19   ar
    14    19    20   ar
    15     7     8    1
    16     8     9    2
    17     9    10    1
    18    10     2    1
    19     9     5    1
    20    20    15   ar
    21     1    11    1
    22     1    12    1
@<TRIPOS>MOLECULE
*****
 20 22 0 0 0
SMALL
GASTEIGER

@<TRIPOS>ATOM
      1 N         -14.1770  -18.0987   24.6738 N.pl3   1  UNL1       -0.3599
      2 C         -12.9730  -18.1428   23.7802 C.2     1  UNL1        0.0247
      3 C         -13.0154  -17.4870   22.4318 C.2     1  UNL1        0.0116
      4 C         -11.8114  -17.5312   21.5382 C.2     1  UNL1        0.0213
      5 C         -10.5651  -18.2311   21.9929 C.2     1  UNL1        0.0974
      6 N          -9.2328  -18.4370   21.3353 N.2     1  UNL1       -0.2200
      7 C          -8.3670  -19.2201   22.2773 C.2     1  UNL1        0.1901
      8 N          -9.1642  -19.4981   23.5171 N.2     1  UNL1       -0.2237
      9 C         -10.5228  -18.8869   23.3413 C.2     1  UNL1        0.0844
     10 C         -11.7267  -18.8427   24.2349 C.3     1  UNL1        0.0879
     11 H         -14.9950  -17.6393   24.3753 H       1  UNL1        0.1421
     12 H         -14.1492  -18.5291   25.5588 H       1  UNL1        0.1421
     13 S          -6.9523  -19.6497   22.0239 S.3     1  UNL1       -0.0692
     14 C          -6.2982  -19.3395   20.7101 C.3     1  UNL1        0.1107
     15 C          -4.8084  -19.1830   20.6325 C.ar    1  UNL1        0.0703
     16 C          -3.9497  -19.5944   21.7915 C.ar    1  UNL1        0.0156
     17 C          -2.4599  -19.4379   21.7138 C.ar    1  UNL1        0.0028
     18 C          -1.8288  -18.8700   20.4771 C.ar    1  UNL1        0.0207
     19 C          -2.6876  -18.4586   19.3181 C.ar    1  UNL1        0.0985
     20 N          -4.1774  -18.6151   19.3958 N.ar    1  UNL1       -0.2473
@<TRIPOS>BOND
     1     1     2    1
     2     2     3    2
     3     3     4    1
     4     4     5    2
     5     5     6    1
     6     6     7    2
     7     7    13    1
     8    13    14    1
     9    14    15    1
    10    15    16   ar
    11    16    17   ar
    12    17    18   ar
    13    18    19   ar
    14    19    20   ar
    15     7     8    1
    16     8     9    2
    17     9    10    1
    18    10     2    1
    19     9     5    1
    20    20    15   ar
    21     1    11    1
    22     1    12    1
@<TRIPOS>MOLECULE
*****
 20 22 0 0 0
SMALL
GASTEIGER

@<TRIPOS>ATOM
      1 N           0.5919  -17.6157   20.4599 N.pl3   1  UNL1       -0.3599
      2 C          -0.8618  -17.9389   20.2800 C.2     1  UNL1        0.0247
      3 C          -1.5308  -17.6780   18.9631 C.2     1  UNL1        0.0116
      4 C          -2.9845  -18.0011   18.7832 C.2     1  UNL1        0.0213
      5 C          -3.7692  -18.5852   19.9203 C.2     1  UNL1        0.0974
      6 N          -5.2050  -19.0027   20.0390 N.2     1  UNL1       -0.2200
      7 C          -5.4235  -19.5217   21.4293 C.2     1  UNL1        0.1901
      8 N          -4.1226  -19.4249   22.1699 N.2     1  UNL1       -0.2237
      9 C          -3.1003  -18.8461   21.2372 C.2     1  UNL1        0.0844
     10 C          -1.6466  -18.5230   21.4171 C.3     1  UNL1        0.0879
     11 H           1.1069  -17.2324   19.7135 H       1  UNL1        0.1421
     12 H           1.0309  -17.7870   21.3242 H       1  UNL1        0.1421
     13 S          -6.7159  -20.0455   21.9820 S.3     1  UNL1       -0.0692
     14 C          -8.0180  -19.4448   21.5419 C.3     1  UNL1        0.1107
     15 C          -9.1150  -19.2191   22.5396 C.ar    1  UNL1        0.0703
     16 C          -9.3556  -20.2214   23.6294 C.ar    1  UNL1        0.0156
     17 C         -10.4526  -19.9957   24.6271 C.ar    1  UNL1        0.0028
     18 C         -11.3092  -18.7677   24.5351 C.ar    1  UNL1        0.0207
     19 C         -11.0687  -17.7655   23.4453 C.ar    1  UNL1        0.0985
     20 N          -9.9716  -17.9912   22.4476 N.ar    1  UNL1       -0.2473
@<TRIPOS>BOND
     1     1     2    1
     2     2     3    2
     3     3     4    1
     4     4     5    2
     5     5     6    1
     6     6     7    2
     7     7    13    1
     8    13    14    1
     9    14    15    1
    10    15    16   ar
    11    16    17   ar
    12    17    18   ar
    13    18    19   ar
    14    19    20   ar
    15     7     8    1
    16     8     9    2
    17     9    10    1
    18    10     2    1
    19     9     5    1
    20    20    15   ar
    21     1    11    1
    22     1    12    1
@<TRIPOS>MOLECULE
*****
 20 22 0 0 0
SMALL
GASTEIGER

@<TRIPOS>ATOM
      1 N          -8.3900  -14.9882   27.2149 N.pl3   1  UNL1       -0.3599
      2 C          -7.9509  -15.5627   25.9006 C.2     1  UNL1        0.0247
      3 C          -6.7007  -15.0593   25.2423 C.2     1  UNL1        0.0116
      4 C          -6.2616  -15.6337   23.9281 C.2     1  UNL1        0.0213
      5 C          -7.0727  -16.7116   23.2722 C.2     1  UNL1        0.0974
      6 N          -6.8907  -17.4633   21.9870 N.2     1  UNL1       -0.2200
      7 C          -8.0285  -18.4313   21.8510 C.2     1  UNL1        0.1901
      8 N          -8.9137  -18.2779   23.0522 N.2     1  UNL1       -0.2237
      9 C          -8.3230  -17.2150   23.9305 C.2     1  UNL1        0.0844
     10 C          -8.7621  -16.6405   25.2448 C.3     1  UNL1        0.0879
     11 H          -7.8576  -14.2807   27.6453 H       1  UNL1        0.1421
     12 H          -9.2106  -15.3186   27.6470 H       1  UNL1        0.1421
     13 S          -8.2433  -19.3854   20.7135 S.3     1  UNL1       -0.0692
     14 C          -9.5382  -19.3706   19.9567 C.3     1  UNL1        0.1107
     15 C         -10.6006  -18.3715   20.3075 C.ar    1  UNL1        0.0703
     16 C         -11.6949  -18.7446   21.2631 C.ar    1  UNL1        0.0156
     17 C         -12.7573  -17.7455   21.6139 C.ar    1  UNL1        0.0028
     18 C         -12.7254  -16.3732   21.0090 C.ar    1  UNL1        0.0207
     19 C         -11.6311  -16.0000   20.0534 C.ar    1  UNL1        0.0985
     20 N         -10.5687  -16.9992   19.7026 N.ar    1  UNL1       -0.2473
@<TRIPOS>BOND
     1     1     2    1
     2     2     3    2
     3     3     4    1
     4     4     5    2
     5     5     6    1
     6     6     7    2
     7     7    13    1
     8    13    14    1
     9    14    15    1
    10    15    16   ar
    11    16    17   ar
    12    17    18   ar
    13    18    19   ar
    14    19    20   ar
    15     7     8    1
    16     8     9    2
    17     9    10    1
    18    10     2    1
    19     9     5    1
    20    20    15   ar
    21     1    11    1
    22     1    12    1
@<TRIPOS>MOLECULE
*****
 20 22 0 0 0
SMALL
GASTEIGER

@<TRIPOS>ATOM
      1 N          -6.9963  -14.8065   26.6728 N.pl3   1  UNL1       -0.3599
      2 C          -7.4381  -15.5478   25.4459 C.2     1  UNL1        0.0247
      3 C          -8.8868  -15.5589   25.0574 C.2     1  UNL1        0.0116
      4 C          -9.3286  -16.3002   23.8304 C.2     1  UNL1        0.0213
      5 C          -8.3217  -17.0304   22.9921 C.2     1  UNL1        0.0974
      6 N          -8.4591  -17.8418   21.7380 N.2     1  UNL1       -0.2200
      7 C          -7.0952  -18.3322   21.3515 C.2     1  UNL1        0.1901
      8 N          -6.1149  -17.8239   22.3667 N.2     1  UNL1       -0.2237
      9 C          -6.8730  -17.0193   23.3807 C.2     1  UNL1        0.0844
     10 C          -6.4312  -16.2780   24.6076 C.3     1  UNL1        0.0879
     11 H          -7.6572  -14.3272   27.2231 H       1  UNL1        0.1421
     12 H          -6.0454  -14.7992   26.9279 H       1  UNL1        0.1421
     13 S          -6.7689  -19.1818   20.1591 S.3     1  UNL1       -0.0692
     14 C          -5.5300  -20.0275   20.1572 C.3     1  UNL1        0.1107
     15 C          -4.1782  -19.3775   20.1654 C.ar    1  UNL1        0.0703
     16 C          -3.1244  -19.8506   21.1222 C.ar    1  UNL1        0.0156
     17 C          -1.7726  -19.2006   21.1305 C.ar    1  UNL1        0.0028
     18 C          -1.4746  -18.0775   20.1818 C.ar    1  UNL1        0.0207
     19 C          -2.5284  -17.6044   19.2249 C.ar    1  UNL1        0.0985
     20 N          -3.8803  -18.2545   19.2167 N.ar    1  UNL1       -0.2473
@<TRIPOS>BOND
     1     1     2    1
     2     2     3    2
     3     3     4    1
     4     4     5    2
     5     5     6    1
     6     6     7    2
     7     7    13    1
     8    13    14    1
     9    14    15    1
    10    15    16   ar
    11    16    17   ar
    12    17    18   ar
    13    18    19   ar
    14    19    20   ar
    15     7     8    1
    16     8     9    2
    17     9    10    1
    18    10     2    1
    19     9     5    1
    20    20    15   ar
    21     1    11    1
    22     1    12    1
@<TRIPOS>MOLECULE
*****
 20 22 0 0 0
SMALL
GASTEIGER

@<TRIPOS>ATOM
      1 N          -6.7915  -14.4665   27.6637 N.pl3   1  UNL1       -0.3599
      2 C          -6.6678  -15.1621   26.3406 C.2     1  UNL1        0.0247
      3 C          -5.3448  -15.2016   25.6348 C.2     1  UNL1        0.0116
      4 C          -5.2211  -15.8972   24.3116 C.2     1  UNL1        0.0213
      5 C          -6.4203  -16.5534   23.6942 C.2     1  UNL1        0.0974
      6 N          -6.6020  -17.3079   22.4106 N.2     1  UNL1       -0.2200
      7 C          -8.0374  -17.7348   22.3230 C.2     1  UNL1        0.1901
      8 N          -8.7427  -17.2441   23.5525 N.2     1  UNL1       -0.2237
      9 C          -7.7433  -16.5140   24.4000 C.2     1  UNL1        0.0844
     10 C          -7.8670  -15.8183   25.7231 C.3     1  UNL1        0.0879
     11 H          -6.0044  -14.0358   28.0689 H       1  UNL1        0.1421
     12 H          -7.6599  -14.4406   28.1269 H       1  UNL1        0.1421
     13 S          -8.6583  -18.5153   21.2026 S.3     1  UNL1       -0.0692
     14 C          -9.8141  -19.4311   21.4771 C.3     1  UNL1        0.1107
     15 C         -11.0276  -18.9141   22.1912 C.ar    1  UNL1        0.0703
     16 C         -12.0554  -18.1176   21.4434 C.ar    1  UNL1        0.0156
     17 C         -13.2689  -17.6005   22.1576 C.ar    1  UNL1        0.0028
     18 C         -13.4546  -17.8799   23.6197 C.ar    1  UNL1        0.0207
     19 C         -12.4267  -18.6763   24.3675 C.ar    1  UNL1        0.0985
     20 N         -11.2132  -19.1934   23.6532 N.ar    1  UNL1       -0.2473
@<TRIPOS>BOND
     1     1     2    1
     2     2     3    2
     3     3     4    1
     4     4     5    2
     5     5     6    1
     6     6     7    2
     7     7    13    1
     8    13    14    1
     9    14    15    1
    10    15    16   ar
    11    16    17   ar
    12    17    18   ar
    13    18    19   ar
    14    19    20   ar
    15     7     8    1
    16     8     9    2
    17     9    10    1
    18    10     2    1
    19     9     5    1
    20    20    15   ar
    21     1    11    1
    22     1    12    1
@<TRIPOS>MOLECULE
*****
 20 22 0 0 0
SMALL
GASTEIGER

@<TRIPOS>ATOM
      1 N          -2.1815  -20.6249   20.6662 N.pl3   1  UNL1       -0.3599
      2 C          -2.8749  -19.5500   21.4497 C.2     1  UNL1        0.0247
      3 C          -2.0713  -18.5680   22.2496 C.2     1  UNL1        0.0116
      4 C          -2.7647  -17.4932   23.0331 C.2     1  UNL1        0.0213
      5 C          -4.2617  -17.4002   23.0166 C.2     1  UNL1        0.0974
      6 N          -5.2162  -16.4556   23.6849 N.2     1  UNL1       -0.2200
      7 C          -6.6097  -16.8537   23.2981 C.2     1  UNL1        0.1901
      8 N          -6.5165  -18.0445   22.3906 N.2     1  UNL1       -0.2237
      9 C          -5.0653  -18.3822   22.2167 C.2     1  UNL1        0.0844
     10 C          -4.3719  -19.4571   21.4332 C.3     1  UNL1        0.0879
     11 H          -1.1989  -20.6859   20.6771 H       1  UNL1        0.1421
     12 H          -2.7089  -21.2694   20.1412 H       1  UNL1        0.1421
     13 S          -7.8743  -16.1795   23.7409 S.3     1  UNL1       -0.0692
     14 C          -8.9224  -15.8141   22.7319 C.3     1  UNL1        0.1107
     15 C         -10.2345  -16.5409   22.7167 C.ar    1  UNL1        0.0703
     16 C         -10.5481  -17.5451   23.7859 C.ar    1  UNL1        0.0156
     17 C         -11.8601  -18.2719   23.7707 C.ar    1  UNL1        0.0028
     18 C         -12.8587  -17.9945   22.6863 C.ar    1  UNL1        0.0207
     19 C         -12.5451  -16.9902   21.6170 C.ar    1  UNL1        0.0985
     20 N         -11.2330  -16.2635   21.6323 N.ar    1  UNL1       -0.2473
@<TRIPOS>BOND
     1     1     2    1
     2     2     3    2
     3     3     4    1
     4     4     5    2
     5     5     6    1
     6     6     7    2
     7     7    13    1
     8    13    14    1
     9    14    15    1
    10    15    16   ar
    11    16    17   ar
    12    17    18   ar
    13    18    19   ar
    14    19    20   ar
    15     7     8    1
    16     8     9    2
    17     9    10    1
    18    10     2    1
    19     9     5    1
    20    20    15   ar
    21     1    11    1
    22     1    12    1
@<TRIPOS>MOLECULE
*****
 20 22 0 0 0
SMALL
GASTEIGER

@<TRIPOS>ATOM
      1 N          -1.4441  -18.5599   21.6178 N.pl3   1  UNL1       -0.3599
      2 C          -2.9406  -18.5523   21.7189 C.2     1  UNL1        0.0247
      3 C          -3.6051  -18.0698   22.9742 C.2     1  UNL1        0.0116
      4 C          -5.1016  -18.0622   23.0753 C.2     1  UNL1        0.0213
      5 C          -5.9338  -18.5372   21.9212 C.2     1  UNL1        0.0974
      6 N          -7.4177  -18.6447   21.7309 N.2     1  UNL1       -0.2200
      7 C          -7.6705  -19.1937   20.3580 C.2     1  UNL1        0.1901
      8 N          -6.3427  -19.4254   19.6998 N.2     1  UNL1       -0.2237
      9 C          -5.2693  -19.0197   20.6660 C.2     1  UNL1        0.0844
     10 C          -3.7727  -19.0273   20.5648 C.3     1  UNL1        0.0879
     11 H          -0.8979  -18.2482   22.3753 H       1  UNL1        0.1421
     12 H          -1.0080  -18.8767   20.7939 H       1  UNL1        0.1421
     13 S          -9.0150  -19.4635   19.7500 S.3     1  UNL1       -0.0692
     14 C         -10.1807  -19.8060   20.6297 C.3     1  UNL1        0.1107
     15 C         -10.9956  -18.7126   21.2545 C.ar    1  UNL1        0.0703
     16 C         -11.4908  -18.8576   22.6629 C.ar    1  UNL1        0.0156
     17 C         -12.3057  -17.7643   23.2877 C.ar    1  UNL1        0.0028
     18 C         -12.6254  -16.5258   22.5041 C.ar    1  UNL1        0.0207
     19 C         -12.1302  -16.3808   21.0956 C.ar    1  UNL1        0.0985
     20 N         -11.3152  -17.4742   20.4708 N.ar    1  UNL1       -0.2473
@<TRIPOS>BOND
     1     1     2    1
     2     2     3    2
     3     3     4    1
     4     4     5    2
     5     5     6    1
     6     6     7    2
     7     7    13    1
     8    13    14    1
     9    14    15    1
    10    15    16   ar
    11    16    17   ar
    12    17    18   ar
    13    18    19   ar
    14    19    20   ar
    15     7     8    1
    16     8     9    2
    17     9    10    1
    18    10     2    1
    19     9     5    1
    20    20    15   ar
    21     1    11    1
    22     1    12    1
