@<TRIPOS>MOLECULE
*****
 31 34 0 0 0
SMALL
GASTEIGER

@<TRIPOS>ATOM
      1 N           0.7586    1.7234   29.5120 N.3     1  UNL1       -0.1521
      2 C          -0.2988    0.8337   28.9287 C.3     1  UNL1        0.1173
      3 C          -1.2245    1.3616   27.8729 C.3     1  UNL1        0.1126
      4 N          -1.0927    2.7791   27.4005 N.pl3   1  UNL1       -0.2782
      5 C          -0.0354    3.6688   27.9839 C.3     1  UNL1        0.0933
      6 C           0.0964    5.0864   27.5115 C.3     1  UNL1        0.0230
      7 C           0.8903    3.1410   29.0396 C.3     1  UNL1        0.1156
      8 C          -2.0184    3.3069   26.3448 C.ar    1  UNL1        0.2035
      9 N          -3.3053    3.9692   26.7387 N.ar    1  UNL1       -0.2133
     10 C          -4.2310    4.4970   25.6830 C.ar    1  UNL1        0.1065
     11 C          -3.8697    4.3626   24.2334 C.ar    1  UNL1        0.0815
     12 C          -2.5828    3.7003   23.8395 C.ar    1  UNL1        0.2646
     13 O          -2.2215    3.5658   22.3898 O.2     1  UNL1       -0.2668
     14 N          -1.6571    3.1725   24.8952 N.ar    1  UNL1       -0.2667
     15 C          -0.3701    2.5102   24.5013 C.3     1  UNL1        0.1363
     16 C          -5.5180    5.1593   26.0769 C.ar    1  UNL1        0.1024
     17 C          -6.5630    5.4444   25.0393 C.ar    1  UNL1        0.0414
     18 C          -7.8500    6.1067   25.4333 C.ar    1  UNL1        0.1023
     19 N          -8.0918    6.4839   26.8648 N.ar    1  UNL1       -0.2224
     20 C          -7.0467    6.1987   27.9024 C.ar    1  UNL1        0.1989
     21 N          -5.7598    5.5364   27.5084 N.ar    1  UNL1       -0.2224
     22 S           1.6842    1.1956   30.5677 S.O2    1  UNL1        0.0634
     23 O           1.3034   -0.2078   30.2000 O.2     1  UNL1       -0.1528
     24 O           2.0651    2.5991   30.9354 O.2     1  UNL1       -0.1528
     25 C           5.3869   -0.9157   34.7906 C.3     1  UNL1        0.0310
     26 C           4.4612   -0.3878   33.7349 C.ar    1  UNL1       -0.0218
     27 C           3.7516    0.9171   33.9438 C.ar    1  UNL1       -0.0029
     28 C           2.8260    1.4449   32.8881 C.ar    1  UNL1        0.0196
     29 C           2.6099    0.6678   31.6235 C.ar    1  UNL1        0.1222
     30 C           3.3195   -0.6371   31.4145 C.ar    1  UNL1        0.0196
     31 C           4.2451   -1.1649   32.4702 C.ar    1  UNL1       -0.0029
@<TRIPOS>BOND
     1    25    26    1
     2    26    27   ar
     3    27    28   ar
     4    28    29   ar
     5    29    22    1
     6    22    23    2
     7    22    24    2
     8    22     1    1
     9     1     2    1
    10     2     3    1
    11     3     4    1
    12     4     8    1
    13     8     9   ar
    14     9    10   ar
    15    10    16    1
    16    16    17   ar
    17    17    18   ar
    18    18    19   ar
    19    19    20   ar
    20    20    21   ar
    21    10    11   ar
    22    11    12   ar
    23    12    13    2
    24    12    14   ar
    25    14    15    1
    26     4     5    1
    27     5     6    1
    28     5     7    1
    29    29    30   ar
    30    30    31   ar
    31    31    26   ar
    32     7     1    1
    33    14     8   ar
    34    21    16   ar
@<TRIPOS>MOLECULE
*****
 31 34 0 0 0
SMALL
GASTEIGER

@<TRIPOS>ATOM
      1 N         -13.1501   -1.6667   18.7447 N.3     1  UNL1       -0.1521
      2 C         -12.5391   -0.4681   18.0814 C.3     1  UNL1        0.1173
      3 C         -13.2638    0.8452   18.0907 C.3     1  UNL1        0.1126
      4 N         -14.5996    0.9598   18.7633 N.pl3   1  UNL1       -0.2782
      5 C         -15.2107   -0.2387   19.4266 C.3     1  UNL1        0.0933
      6 C         -16.5466   -0.1241   20.0992 C.3     1  UNL1        0.0230
      7 C         -14.4859   -1.5520   19.4173 C.3     1  UNL1        0.1156
      8 C         -15.3244    2.2731   18.7726 C.ar    1  UNL1        0.2035
      9 N         -14.9950    3.3042   19.8110 N.ar    1  UNL1       -0.2133
     10 C         -15.7197    4.6174   19.8203 C.ar    1  UNL1        0.1065
     11 C         -16.7739    4.8996   18.7912 C.ar    1  UNL1        0.0815
     12 C         -17.1033    3.8685   17.7528 C.ar    1  UNL1        0.2646
     13 O         -18.1575    4.1507   16.7236 O.2     1  UNL1       -0.2668
     14 N         -16.3786    2.5553   17.7435 N.ar    1  UNL1       -0.2667
     15 C         -16.7080    1.5241   16.7050 C.3     1  UNL1        0.1363
     16 C         -15.3903    5.6486   20.8587 C.ar    1  UNL1        0.1024
     17 C         -16.4345    6.6323   21.2966 C.ar    1  UNL1        0.0414
     18 C         -16.1051    7.6634   22.3351 C.ar    1  UNL1        0.1023
     19 N         -14.7314    7.7107   22.9356 N.ar    1  UNL1       -0.2224
     20 C         -13.6871    6.7269   22.4976 C.ar    1  UNL1        0.1989
     21 N         -14.0166    5.6959   21.4592 N.ar    1  UNL1       -0.2224
     22 S         -12.4254   -2.9799   18.7354 S.O2    1  UNL1        0.0634
     23 O         -11.9768   -2.7224   17.3274 O.2     1  UNL1       -0.1528
     24 O         -12.8739   -3.2374   20.1434 O.2     1  UNL1       -0.1528
     25 C          -9.5263   -8.2330   18.6982 C.3     1  UNL1        0.0310
     26 C         -10.2511   -6.9197   18.7075 C.ar    1  UNL1       -0.0218
     27 C          -9.4867   -5.6425   18.8931 C.ar    1  UNL1       -0.0029
     28 C         -10.2115   -4.3293   18.9023 C.ar    1  UNL1        0.0196
     29 C         -11.7006   -4.2932   18.7261 C.ar    1  UNL1        0.1222
     30 C         -12.4650   -5.5704   18.5406 C.ar    1  UNL1        0.0196
     31 C         -11.7402   -6.8836   18.5313 C.ar    1  UNL1       -0.0029
@<TRIPOS>BOND
     1    25    26    1
     2    26    27   ar
     3    27    28   ar
     4    28    29   ar
     5    29    22    1
     6    22    23    2
     7    22    24    2
     8    22     1    1
     9     1     2    1
    10     2     3    1
    11     3     4    1
    12     4     8    1
    13     8     9   ar
    14     9    10   ar
    15    10    16    1
    16    16    17   ar
    17    17    18   ar
    18    18    19   ar
    19    19    20   ar
    20    20    21   ar
    21    10    11   ar
    22    11    12   ar
    23    12    13    2
    24    12    14   ar
    25    14    15    1
    26     4     5    1
    27     5     6    1
    28     5     7    1
    29    29    30   ar
    30    30    31   ar
    31    31    26   ar
    32     7     1    1
    33    14     8   ar
    34    21    16   ar
@<TRIPOS>MOLECULE
*****
 31 34 0 0 0
SMALL
GASTEIGER

@<TRIPOS>ATOM
      1 N           3.4958    0.4054   31.0561 N.3     1  UNL1       -0.1521
      2 C           2.4255   -0.4739   30.4804 C.3     1  UNL1        0.1173
      3 C           2.3058   -0.6344   28.9939 C.3     1  UNL1        0.1126
      4 N           3.2562    0.0844   28.0829 N.pl3   1  UNL1       -0.2782
      5 C           4.3265    0.9637   28.6586 C.3     1  UNL1        0.0933
      6 C           5.2770    1.6826   27.7476 C.3     1  UNL1        0.0230
      7 C           4.4462    1.1242   30.1451 C.3     1  UNL1        0.1156
      8 C           3.1365   -0.0760   26.5964 C.ar    1  UNL1        0.2035
      9 N           3.9494   -1.1178   25.8865 N.ar    1  UNL1       -0.2133
     10 C           3.8296   -1.2783   24.4000 C.ar    1  UNL1        0.1065
     11 C           2.8970   -0.3969   23.6232 C.ar    1  UNL1        0.0815
     12 C           2.0841    0.6448   24.3330 C.ar    1  UNL1        0.2646
     13 O           1.1514    1.5262   23.5562 O.2     1  UNL1       -0.2668
     14 N           2.2038    0.8053   25.8196 N.ar    1  UNL1       -0.2667
     15 C           1.3909    1.8471   26.5294 C.3     1  UNL1        0.1363
     16 C           4.6426   -2.3201   23.6902 C.ar    1  UNL1        0.1024
     17 C           4.3222   -2.6827   22.2704 C.ar    1  UNL1        0.0414
     18 C           5.1351   -3.7245   21.5606 C.ar    1  UNL1        0.1023
     19 N           6.2685   -4.4037   22.2706 N.ar    1  UNL1       -0.2224
     20 C           6.5889   -4.0411   23.6905 C.ar    1  UNL1        0.1989
     21 N           5.7759   -2.9993   24.4002 N.ar    1  UNL1       -0.2224
     22 S           3.6155    0.5658   32.5427 S.O2    1  UNL1        0.0634
     23 O           3.6863    2.0549   32.3762 O.2     1  UNL1       -0.1528
     24 O           3.5448   -0.9232   32.7091 O.2     1  UNL1       -0.1528
     25 C           4.0946    1.2077   38.4890 C.3     1  UNL1        0.0310
     26 C           3.9748    1.0472   37.0024 C.ar    1  UNL1       -0.0218
     27 C           3.1683    2.0286   36.2047 C.ar    1  UNL1       -0.0029
     28 C           3.0486    1.8681   34.7181 C.ar    1  UNL1        0.0196
     29 C           3.7353    0.7263   34.0292 C.ar    1  UNL1        0.1222
     30 C           4.5418   -0.2551   34.8270 C.ar    1  UNL1        0.0196
     31 C           4.6616   -0.0946   36.3135 C.ar    1  UNL1       -0.0029
@<TRIPOS>BOND
     1    25    26    1
     2    26    27   ar
     3    27    28   ar
     4    28    29   ar
     5    29    22    1
     6    22    23    2
     7    22    24    2
     8    22     1    1
     9     1     2    1
    10     2     3    1
    11     3     4    1
    12     4     8    1
    13     8     9   ar
    14     9    10   ar
    15    10    16    1
    16    16    17   ar
    17    17    18   ar
    18    18    19   ar
    19    19    20   ar
    20    20    21   ar
    21    10    11   ar
    22    11    12   ar
    23    12    13    2
    24    12    14   ar
    25    14    15    1
    26     4     5    1
    27     5     6    1
    28     5     7    1
    29    29    30   ar
    30    30    31   ar
    31    31    26   ar
    32     7     1    1
    33    14     8   ar
    34    21    16   ar
@<TRIPOS>MOLECULE
*****
 31 34 0 0 0
SMALL
GASTEIGER

@<TRIPOS>ATOM
      1 N         -13.8121   -1.9740   19.2123 N.3     1  UNL1       -0.1521
      2 C         -15.0720   -2.0525   20.0225 C.3     1  UNL1        0.1173
      3 C         -15.9846   -0.8650   20.1070 C.3     1  UNL1        0.1126
      4 N         -15.6372    0.4009   19.3814 N.pl3   1  UNL1       -0.2782
      5 C         -14.3773    0.4794   18.5712 C.3     1  UNL1        0.0933
      6 C         -14.0299    1.7455   17.8455 C.3     1  UNL1        0.0230
      7 C         -13.4648   -0.7081   18.4867 C.3     1  UNL1        0.1156
      8 C         -16.5497    1.5884   19.4659 C.ar    1  UNL1        0.2035
      9 N         -16.4057    2.5661   20.5943 N.ar    1  UNL1       -0.2133
     10 C         -17.3183    3.7536   20.6788 C.ar    1  UNL1        0.1065
     11 C         -18.3748    3.9634   19.6350 C.ar    1  UNL1        0.0815
     12 C         -18.5188    2.9857   18.5066 C.ar    1  UNL1        0.2646
     13 O         -19.5754    3.1955   17.4627 O.2     1  UNL1       -0.2668
     14 N         -17.6063    1.7982   18.4221 N.ar    1  UNL1       -0.2667
     15 C         -17.7503    0.8205   17.2936 C.3     1  UNL1        0.1363
     16 C         -17.1742    4.7314   21.8073 C.ar    1  UNL1        0.1024
     17 C         -16.3668    4.3662   23.0176 C.ar    1  UNL1        0.0414
     18 C         -16.2227    5.3440   24.1460 C.ar    1  UNL1        0.1023
     19 N         -16.8862    6.6868   24.0642 N.ar    1  UNL1       -0.2224
     20 C         -17.6936    7.0519   22.8539 C.ar    1  UNL1        0.1989
     21 N         -17.8376    6.0742   21.7255 N.ar    1  UNL1       -0.2224
     22 S         -12.8996   -3.1615   19.1277 S.O2    1  UNL1        0.0634
     23 O         -14.0783   -4.0777   19.2734 O.2     1  UNL1       -0.1528
     24 O         -11.7209   -2.2453   18.9821 O.2     1  UNL1       -0.1528
     25 C          -9.2495   -7.9115   18.7896 C.3     1  UNL1        0.0310
     26 C         -10.1620   -6.7240   18.8741 C.ar    1  UNL1       -0.0218
     27 C         -11.6475   -6.9225   18.9353 C.ar    1  UNL1       -0.0029
     28 C         -12.5600   -5.7350   19.0199 C.ar    1  UNL1        0.0196
     29 C         -11.9871   -4.3490   19.0432 C.ar    1  UNL1        0.1222
     30 C         -10.5016   -4.1505   18.9820 C.ar    1  UNL1        0.0196
     31 C          -9.5890   -5.3380   18.8974 C.ar    1  UNL1       -0.0029
@<TRIPOS>BOND
     1    25    26    1
     2    26    27   ar
     3    27    28   ar
     4    28    29   ar
     5    29    22    1
     6    22    23    2
     7    22    24    2
     8    22     1    1
     9     1     2    1
    10     2     3    1
    11     3     4    1
    12     4     8    1
    13     8     9   ar
    14     9    10   ar
    15    10    16    1
    16    16    17   ar
    17    17    18   ar
    18    18    19   ar
    19    19    20   ar
    20    20    21   ar
    21    10    11   ar
    22    11    12   ar
    23    12    13    2
    24    12    14   ar
    25    14    15    1
    26     4     5    1
    27     5     6    1
    28     5     7    1
    29    29    30   ar
    30    30    31   ar
    31    31    26   ar
    32     7     1    1
    33    14     8   ar
    34    21    16   ar
@<TRIPOS>MOLECULE
*****
 31 34 0 0 0
SMALL
GASTEIGER

@<TRIPOS>ATOM
      1 N           0.6894    1.5557   20.3884 N.3     1  UNL1       -0.1521
      2 C           0.5093    0.0829   20.1681 C.3     1  UNL1        0.1173
      3 C           1.7083   -0.8135   20.0739 C.3     1  UNL1        0.1126
      4 N           3.0874   -0.2372   20.2000 N.pl3   1  UNL1       -0.2782
      5 C           3.2674    1.2356   20.4203 C.3     1  UNL1        0.0933
      6 C           4.6466    1.8120   20.5464 C.3     1  UNL1        0.0230
      7 C           2.0684    2.1320   20.5145 C.3     1  UNL1        0.1156
      8 C           4.2864   -1.1336   20.1058 C.ar    1  UNL1        0.2035
      9 N           4.7710   -1.8680   21.3205 N.ar    1  UNL1       -0.2133
     10 C           5.9700   -2.7644   21.2263 C.ar    1  UNL1        0.1065
     11 C           6.6843   -2.9264   19.9174 C.ar    1  UNL1        0.0815
     12 C           6.1997   -2.1919   18.7026 C.ar    1  UNL1        0.2646
     13 O           6.9141   -2.3539   17.3936 O.2     1  UNL1       -0.2668
     14 N           5.0007   -1.2955   18.7968 N.ar    1  UNL1       -0.2667
     15 C           4.5161   -0.5611   17.5820 C.3     1  UNL1        0.1363
     16 C           6.4546   -3.4989   22.4412 C.ar    1  UNL1        0.1024
     17 C           6.0685   -3.0217   23.8098 C.ar    1  UNL1        0.0414
     18 C           6.5531   -3.7561   25.0247 C.ar    1  UNL1        0.1023
     19 N           7.4239   -4.9678   24.8708 N.ar    1  UNL1       -0.2224
     20 C           7.8100   -5.4450   23.5021 C.ar    1  UNL1        0.1989
     21 N           7.3254   -4.7105   22.2873 N.ar    1  UNL1       -0.2224
     22 S          -0.5096    2.4521   20.4826 S.O2    1  UNL1        0.0634
     23 O          -0.3372    2.8340   19.0423 O.2     1  UNL1       -0.1528
     24 O          -0.6820    2.0701   21.9229 O.2     1  UNL1       -0.1528
     25 C          -5.3056    6.0377   20.8594 C.3     1  UNL1        0.0310
     26 C          -4.1066    5.1413   20.7652 C.ar    1  UNL1       -0.0218
     27 C          -3.4796    4.8651   19.4308 C.ar    1  UNL1       -0.0029
     28 C          -2.2807    3.9687   19.3366 C.ar    1  UNL1        0.0196
     29 C          -1.7086    3.3485   20.5768 C.ar    1  UNL1        0.1222
     30 C          -2.3356    3.6246   21.9112 C.ar    1  UNL1        0.0196
     31 C          -3.5346    4.5210   22.0053 C.ar    1  UNL1       -0.0029
@<TRIPOS>BOND
     1    25    26    1
     2    26    27   ar
     3    27    28   ar
     4    28    29   ar
     5    29    22    1
     6    22    23    2
     7    22    24    2
     8    22     1    1
     9     1     2    1
    10     2     3    1
    11     3     4    1
    12     4     8    1
    13     8     9   ar
    14     9    10   ar
    15    10    16    1
    16    16    17   ar
    17    17    18   ar
    18    18    19   ar
    19    19    20   ar
    20    20    21   ar
    21    10    11   ar
    22    11    12   ar
    23    12    13    2
    24    12    14   ar
    25    14    15    1
    26     4     5    1
    27     5     6    1
    28     5     7    1
    29    29    30   ar
    30    30    31   ar
    31    31    26   ar
    32     7     1    1
    33    14     8   ar
    34    21    16   ar
@<TRIPOS>MOLECULE
*****
 31 34 0 0 0
SMALL
GASTEIGER

@<TRIPOS>ATOM
      1 N           6.3622   -3.3046   22.7314 N.3     1  UNL1       -0.1521
      2 C           6.5758   -1.8711   23.1181 C.3     1  UNL1        0.1173
      3 C           6.0712   -0.7718   22.2311 C.3     1  UNL1        0.1126
      4 N           5.3531   -1.1059   20.9573 N.pl3   1  UNL1       -0.2782
      5 C           5.1395   -2.5393   20.5705 C.3     1  UNL1        0.0933
      6 C           4.4214   -2.8735   19.2966 C.3     1  UNL1        0.0230
      7 C           5.6441   -3.6387   21.4576 C.3     1  UNL1        0.1156
      8 C           4.8485   -0.0065   20.0702 C.ar    1  UNL1        0.2035
      9 N           3.4592    0.5279   20.2546 N.ar    1  UNL1       -0.2133
     10 C           2.9546    1.6273   19.3676 C.ar    1  UNL1        0.1065
     11 C           3.8393    2.1921   18.2961 C.ar    1  UNL1        0.0815
     12 C           5.2287    1.6577   18.1117 C.ar    1  UNL1        0.2646
     13 O           6.1135    2.2226   17.0402 O.2     1  UNL1       -0.2668
     14 N           5.7332    0.5583   18.9988 N.ar    1  UNL1       -0.2667
     15 C           7.1227    0.0239   18.8143 C.3     1  UNL1        0.1363
     16 C           1.5652    2.1617   19.5521 C.ar    1  UNL1        0.1024
     17 C           0.8926    2.9038   18.4354 C.ar    1  UNL1        0.0414
     18 C          -0.4968    3.4383   18.6199 C.ar    1  UNL1        0.1023
     19 N          -1.2136    3.2306   19.9210 N.ar    1  UNL1       -0.2224
     20 C          -0.5410    2.4885   21.0377 C.ar    1  UNL1        0.1989
     21 N           0.8483    1.9541   20.8532 N.ar    1  UNL1       -0.2224
     22 S           6.8668   -4.4039   23.6184 S.O2    1  UNL1        0.0634
     23 O           7.4609   -5.0933   22.4261 O.2     1  UNL1       -0.1528
     24 O           6.2727   -3.7145   24.8108 O.2     1  UNL1       -0.1528
     25 C           8.8851   -8.8013   27.1666 C.3     1  UNL1        0.0310
     26 C           8.3805   -7.7019   26.2796 C.ar    1  UNL1       -0.0218
     27 C           7.4943   -6.6309   26.8428 C.ar    1  UNL1       -0.0029
     28 C           6.9897   -5.5315   25.9558 C.ar    1  UNL1        0.0196
     29 C           7.3714   -5.5033   24.5055 C.ar    1  UNL1        0.1222
     30 C           8.2577   -6.5743   23.9422 C.ar    1  UNL1        0.0196
     31 C           8.7622   -7.6736   24.8292 C.ar    1  UNL1       -0.0029
@<TRIPOS>BOND
     1    25    26    1
     2    26    27   ar
     3    27    28   ar
     4    28    29   ar
     5    29    22    1
     6    22    23    2
     7    22    24    2
     8    22     1    1
     9     1     2    1
    10     2     3    1
    11     3     4    1
    12     4     8    1
    13     8     9   ar
    14     9    10   ar
    15    10    16    1
    16    16    17   ar
    17    17    18   ar
    18    18    19   ar
    19    19    20   ar
    20    20    21   ar
    21    10    11   ar
    22    11    12   ar
    23    12    13    2
    24    12    14   ar
    25    14    15    1
    26     4     5    1
    27     5     6    1
    28     5     7    1
    29    29    30   ar
    30    30    31   ar
    31    31    26   ar
    32     7     1    1
    33    14     8   ar
    34    21    16   ar
@<TRIPOS>MOLECULE
*****
 31 34 0 0 0
SMALL
GASTEIGER

@<TRIPOS>ATOM
      1 N           2.3128   -0.2270   21.5430 N.3     1  UNL1       -0.1521
      2 C           1.3165   -0.6098   20.4891 C.3     1  UNL1        0.1173
      3 C           0.2463    0.3591   20.0816 C.3     1  UNL1        0.1126
      4 N           0.1725    1.7106   20.7279 N.pl3   1  UNL1       -0.2782
      5 C           1.1688    2.0934   21.7818 C.3     1  UNL1        0.0933
      6 C           1.0950    3.4450   22.4282 C.3     1  UNL1        0.0230
      7 C           2.2390    1.1245   22.1894 C.3     1  UNL1        0.1156
      8 C          -0.8977    2.6794   20.3204 C.ar    1  UNL1        0.2035
      9 N          -2.1250    2.8413   21.1674 N.ar    1  UNL1       -0.2133
     10 C          -3.1952    3.8101   20.7599 C.ar    1  UNL1        0.1065
     11 C          -3.0381    4.6171   19.5053 C.ar    1  UNL1        0.0815
     12 C          -1.8108    4.4552   18.6583 C.ar    1  UNL1        0.2646
     13 O          -1.6537    5.2622   17.4036 O.2     1  UNL1       -0.2668
     14 N          -0.7406    3.4864   19.0658 N.ar    1  UNL1       -0.2667
     15 C           0.4867    3.3246   18.2187 C.3     1  UNL1        0.1363
     16 C          -4.4225    3.9719   21.6070 C.ar    1  UNL1        0.1024
     17 C          -4.3511    3.7278   23.0853 C.ar    1  UNL1        0.0414
     18 C          -5.5784    3.8896   23.9324 C.ar    1  UNL1        0.1023
     19 N          -6.8772    4.2955   23.3012 N.ar    1  UNL1       -0.2224
     20 C          -6.9486    4.5396   21.8229 C.ar    1  UNL1        0.1989
     21 N          -5.7213    4.3778   20.9758 N.ar    1  UNL1       -0.2224
     22 S           3.3830   -1.1958   21.9506 S.O2    1  UNL1        0.0634
     23 O           3.6247   -1.5351   20.5096 O.2     1  UNL1       -0.1528
     24 O           3.1414   -0.8566   23.3916 O.2     1  UNL1       -0.1528
     25 C           7.6638   -5.0711   23.5808 C.3     1  UNL1        0.0310
     26 C           6.5936   -4.1023   23.1732 C.ar    1  UNL1       -0.0218
     27 C           6.3442   -3.8280   21.7198 C.ar    1  UNL1       -0.0029
     28 C           5.2740   -2.8592   21.3122 C.ar    1  UNL1        0.0196
     29 C           4.4532   -2.1646   22.3581 C.ar    1  UNL1        0.1222
     30 C           4.7026   -2.4389   23.8116 C.ar    1  UNL1        0.0196
     31 C           5.7728   -3.4078   24.2191 C.ar    1  UNL1       -0.0029
@<TRIPOS>BOND
     1    25    26    1
     2    26    27   ar
     3    27    28   ar
     4    28    29   ar
     5    29    22    1
     6    22    23    2
     7    22    24    2
     8    22     1    1
     9     1     2    1
    10     2     3    1
    11     3     4    1
    12     4     8    1
    13     8     9   ar
    14     9    10   ar
    15    10    16    1
    16    16    17   ar
    17    17    18   ar
    18    18    19   ar
    19    19    20   ar
    20    20    21   ar
    21    10    11   ar
    22    11    12   ar
    23    12    13    2
    24    12    14   ar
    25    14    15    1
    26     4     5    1
    27     5     6    1
    28     5     7    1
    29    29    30   ar
    30    30    31   ar
    31    31    26   ar
    32     7     1    1
    33    14     8   ar
    34    21    16   ar
@<TRIPOS>MOLECULE
*****
 31 34 0 0 0
SMALL
GASTEIGER

@<TRIPOS>ATOM
      1 N           1.8057    1.5774   30.5443 N.3     1  UNL1       -0.1521
      2 C           2.0689    2.8801   29.8489 C.3     1  UNL1        0.1173
      3 C           1.3043    3.2360   28.6084 C.3     1  UNL1        0.1126
      4 N           0.2766    2.2891   28.0633 N.pl3   1  UNL1       -0.2782
      5 C           0.0135    0.9864   28.7587 C.3     1  UNL1        0.0933
      6 C          -1.0143    0.0394   28.2136 C.3     1  UNL1        0.0230
      7 C           0.7780    0.6305   29.9992 C.3     1  UNL1        0.1156
      8 C          -0.4879    2.6450   26.8228 C.ar    1  UNL1        0.2035
      9 N          -1.8369    3.2916   26.9328 N.ar    1  UNL1       -0.2133
     10 C          -2.6014    3.6474   25.6923 C.ar    1  UNL1        0.1065
     11 C          -2.0171    3.3566   24.3418 C.ar    1  UNL1        0.0815
     12 C          -0.6681    2.7100   24.2318 C.ar    1  UNL1        0.2646
     13 O          -0.0837    2.4191   22.8813 O.2     1  UNL1       -0.2668
     14 N           0.0964    2.3541   25.4723 N.ar    1  UNL1       -0.2667
     15 C           1.4455    1.7075   25.3623 C.3     1  UNL1        0.1363
     16 C          -3.9505    4.2941   25.8024 C.ar    1  UNL1        0.1024
     17 C          -4.2990    5.0997   27.0187 C.ar    1  UNL1        0.0414
     18 C          -5.6480    5.7464   27.1287 C.ar    1  UNL1        0.1023
     19 N          -6.6484    5.5874   26.0224 N.ar    1  UNL1       -0.2224
     20 C          -6.2998    4.7818   24.8060 C.ar    1  UNL1        0.1989
     21 N          -4.9508    4.1352   24.6960 N.ar    1  UNL1       -0.2224
     22 S           2.5703    1.2216   31.7848 S.O2    1  UNL1        0.0634
     23 O           2.7420    2.6787   32.0969 O.2     1  UNL1       -0.1528
     24 O           2.3986   -0.2355   31.4726 O.2     1  UNL1       -0.1528
     25 C           5.6285   -0.2018   36.7467 C.3     1  UNL1        0.0310
     26 C           4.8640    0.1541   35.5063 C.ar    1  UNL1       -0.0218
     27 C           4.6322   -0.8807   34.4454 C.ar    1  UNL1       -0.0029
     28 C           3.8676   -0.5249   33.2049 C.ar    1  UNL1        0.0196
     29 C           3.3349    0.8657   33.0253 C.ar    1  UNL1        0.1222
     30 C           3.5666    1.9005   34.0861 C.ar    1  UNL1        0.0196
     31 C           4.3312    1.5447   35.3266 C.ar    1  UNL1       -0.0029
@<TRIPOS>BOND
     1    25    26    1
     2    26    27   ar
     3    27    28   ar
     4    28    29   ar
     5    29    22    1
     6    22    23    2
     7    22    24    2
     8    22     1    1
     9     1     2    1
    10     2     3    1
    11     3     4    1
    12     4     8    1
    13     8     9   ar
    14     9    10   ar
    15    10    16    1
    16    16    17   ar
    17    17    18   ar
    18    18    19   ar
    19    19    20   ar
    20    20    21   ar
    21    10    11   ar
    22    11    12   ar
    23    12    13    2
    24    12    14   ar
    25    14    15    1
    26     4     5    1
    27     5     6    1
    28     5     7    1
    29    29    30   ar
    30    30    31   ar
    31    31    26   ar
    32     7     1    1
    33    14     8   ar
    34    21    16   ar
@<TRIPOS>MOLECULE
*****
 31 34 0 0 0
SMALL
GASTEIGER

@<TRIPOS>ATOM
      1 N          -0.7720    2.4974   27.0876 N.3     1  UNL1       -0.1521
      2 C          -1.1867    1.3245   27.9256 C.3     1  UNL1        0.1173
      3 C          -0.3630    0.9223   29.1129 C.3     1  UNL1        0.1126
      4 N           0.8754    1.6931   29.4624 N.pl3   1  UNL1       -0.2782
      5 C           1.2901    2.8661   28.6244 C.3     1  UNL1        0.0933
      6 C           2.5286    3.6369   28.9738 C.3     1  UNL1        0.0230
      7 C           0.4664    3.2682   27.4371 C.3     1  UNL1        0.1156
      8 C           1.6991    1.2910   30.6497 C.ar    1  UNL1        0.2035
      9 N           2.7292    0.2088   30.5161 N.ar    1  UNL1       -0.2133
     10 C           3.5529   -0.1933   31.7035 C.ar    1  UNL1        0.1065
     11 C           3.3465    0.4867   33.0244 C.ar    1  UNL1        0.0815
     12 C           2.3164    1.5688   33.1580 C.ar    1  UNL1        0.2646
     13 O           2.1100    2.2489   34.4790 O.2     1  UNL1       -0.2668
     14 N           1.4927    1.9710   31.9707 N.ar    1  UNL1       -0.2667
     15 C           0.4626    3.0532   32.1043 C.3     1  UNL1        0.1363
     16 C           4.5830   -1.2755   31.5698 C.ar    1  UNL1        0.1024
     17 C           4.8475   -2.2049   32.7170 C.ar    1  UNL1        0.0414
     18 C           5.8776   -3.2871   32.5834 C.ar    1  UNL1        0.1023
     19 N           6.6432   -3.4398   31.3025 N.ar    1  UNL1       -0.2224
     20 C           6.3786   -2.5103   30.1553 C.ar    1  UNL1        0.1989
     21 N           5.3485   -1.4281   30.2889 N.ar    1  UNL1       -0.2224
     22 S          -1.5957    2.8995   25.9003 S.O2    1  UNL1        0.0634
     23 O          -2.5532    3.6146   26.8068 O.2     1  UNL1       -0.1528
     24 O          -0.6381    2.1844   24.9938 O.2     1  UNL1       -0.1528
     25 C          -4.8905    4.5081   21.1509 C.3     1  UNL1        0.0310
     26 C          -4.0668    4.1059   22.3382 C.ar    1  UNL1       -0.0218
     27 C          -2.5731    4.0300   22.2238 C.ar    1  UNL1       -0.0029
     28 C          -1.7494    3.6279   23.4112 C.ar    1  UNL1        0.0196
     29 C          -2.4194    3.3017   24.7129 C.ar    1  UNL1        0.1222
     30 C          -3.9130    3.3775   24.8273 C.ar    1  UNL1        0.0196
     31 C          -4.7367    3.7797   23.6400 C.ar    1  UNL1       -0.0029
@<TRIPOS>BOND
     1    25    26    1
     2    26    27   ar
     3    27    28   ar
     4    28    29   ar
     5    29    22    1
     6    22    23    2
     7    22    24    2
     8    22     1    1
     9     1     2    1
    10     2     3    1
    11     3     4    1
    12     4     8    1
    13     8     9   ar
    14     9    10   ar
    15    10    16    1
    16    16    17   ar
    17    17    18   ar
    18    18    19   ar
    19    19    20   ar
    20    20    21   ar
    21    10    11   ar
    22    11    12   ar
    23    12    13    2
    24    12    14   ar
    25    14    15    1
    26     4     5    1
    27     5     6    1
    28     5     7    1
    29    29    30   ar
    30    30    31   ar
    31    31    26   ar
    32     7     1    1
    33    14     8   ar
    34    21    16   ar
