@<TRIPOS>MOLECULE
*****
 36 39 0 0 0
SMALL
GASTEIGER

@<TRIPOS>ATOM
      1 CA          4.2117    1.8237   19.2954 C.3     2  LEU2        0.1523
      2 C           3.4129    2.9443   18.6987 C.2     2  LEU2        0.2409
      3 O           3.9715    3.7371   17.5544 O.2     2  LEU2       -0.2733
      4 N           2.0555    3.2721   19.2463 N.am    1  UNK1       -0.2970
      5 C           1.4968    2.4793   20.3906 C.3     1  UNK1        0.1494
      6 C           2.2957    1.3587   20.9873 C.2     1  UNK1        0.2444
      7 O           1.7370    0.5658   22.1316 O.2     1  UNK1       -0.2731
      8 N           3.6531    1.0309   20.4397 N.am    2  LEU2       -0.2615
      9 H           1.5312    4.0076   18.8547 H       1  UNK1        0.1499
     10 C           0.1394    2.8071   20.9382 C.3     1  UNK1        0.0356
     11 C          -1.1474    2.8009   20.1674 C.3     1  UNK1        0.0285
     12 C          -2.2517    3.1887   21.1055 C.ar    1  UNK1       -0.0261
     13 C          -3.7293    3.3497   20.9044 C.ar    1  UNK1       -0.0046
     14 C          -4.6028    3.7565   22.0540 C.ar    1  UNK1       -0.0003
     15 C          -3.9985    4.0024   23.4047 C.ar    1  UNK1       -0.0003
     16 C          -2.5208    3.8414   23.6058 C.ar    1  UNK1       -0.0046
     17 C          -1.6474    3.4346   22.4562 C.ar    1  UNK1       -0.0261
     18 C          -0.1697    3.1988   22.3528 C.3     1  UNK1        0.0285
     19 CB          5.5692    1.4958   18.7478 C.3     2  LEU2        0.0292
     20 CD1         4.5809   -0.1777   17.0237 C.3     2  LEU2        0.0001
     21 CG          5.6952    0.7224   17.4688 C.3     2  LEU2        0.0021
     22 CD2         6.9356    0.8490   16.6348 C.3     2  LEU2        0.0001
     23 C           4.4519   -0.0898   21.0364 C.3     0  UNK0        0.1775
     24 C           4.5225   -1.4153   20.3378 C.ar    0  UNK0        0.0321
     25 C           5.8554   -2.0287   20.0258 C.ar    0  UNK0        0.0023
     26 C           5.9259   -3.3542   19.3272 C.ar    0  UNK0        0.0295
     27 C           4.6635   -4.0664   18.9407 C.ar    0  UNK0        0.1424
     28 F           4.7341   -5.3919   18.2421 F       0  UNK0       -0.2041
     29 C           3.3307   -3.4530   19.2527 C.ar    0  UNK0        0.0590
     30 C           3.2602   -2.1275   19.9513 C.ar    0  UNK0        0.1404
     31 F           2.2347   -1.7883   20.1213 F       0  UNK0       -0.2044
     32 C           5.1802    0.1151   22.3316 C.2     0  UNK0        0.2482
     33 O           6.2973    1.1127   22.4143 O.2     0  UNK0       -0.2727
     34 N           4.7913   -0.6777   23.5442 N.am    0  UNK0       -0.2744
     35 C           5.5196   -0.4728   24.8395 C.3     0  UNK0        0.1150
     36 C           4.0004   -1.4296   23.6130 C.3     0  UNK0        0.1150
@<TRIPOS>BOND
     1    20    21    1
     2    21    22    1
     3    21    19    1
     4     1    19    1
     5     1     2    1
     6     2     3    2
     7     2     4   am
     8     4     5    1
     9     5    10    1
    10    10    11    1
    11    11    12    1
    12    12    13   ar
    13    13    14   ar
    14    14    15   ar
    15    15    16   ar
    16    16    17   ar
    17    17    18    1
    18     5     6    1
    19     6     7    2
    20     6     8   am
    21    23     8    1
    22    23    32    1
    23    32    33    2
    24    32    34   am
    25    34    35    1
    26    34    36    1
    27    23    24    1
    28    24    25   ar
    29    25    26   ar
    30    26    27   ar
    31    27    28    1
    32    27    29   ar
    33    29    30   ar
    34    30    31    1
    35     8     1    1
    36    30    24   ar
    37    18    10    1
    38    17    12   ar
    39     4     9    1
@<TRIPOS>MOLECULE
*****
 36 39 0 0 0
SMALL
GASTEIGER

@<TRIPOS>ATOM
      1 CA          2.6545    1.8964   33.5939 C.3     2  LEU2        0.1523
      2 C           2.4910    1.0788   32.3470 C.2     2  LEU2        0.2409
      3 O           1.3338    1.3362   31.4278 O.2     2  LEU2       -0.2733
      4 N           3.4845    0.0039   32.0192 N.am    1  UNK1       -0.2970
      5 C           4.6415   -0.2535   32.9384 C.3     1  UNK1        0.1494
      6 C           4.8051    0.5640   34.1853 C.2     1  UNK1        0.2444
      7 O           5.9623    0.3067   35.1045 O.2     1  UNK1       -0.2731
      8 N           3.8116    1.6390   34.5130 N.am    2  LEU2       -0.2615
      9 H           3.3771   -0.5328   31.2008 H       1  UNK1        0.1499
     10 C           5.6351   -1.3285   32.6106 C.3     1  UNK1        0.0356
     11 C           5.3184   -2.7703   32.3443 C.3     1  UNK1        0.0285
     12 C           6.6073   -3.4833   32.0607 C.ar    1  UNK1       -0.0261
     13 C           6.9110   -4.9148   31.7314 C.ar    1  UNK1       -0.0046
     14 C           8.3281   -5.3451   31.4931 C.ar    1  UNK1       -0.0003
     15 C           9.4413   -4.3439   31.5841 C.ar    1  UNK1       -0.0003
     16 C           9.1376   -2.9124   31.9134 C.ar    1  UNK1       -0.0046
     17 C           7.7206   -2.4821   32.1517 C.ar    1  UNK1       -0.0261
     18 C           7.1197   -1.1504   32.4916 C.3     1  UNK1        0.0285
     19 CB          1.6610    2.9713   33.9216 C.3     2  LEU2        0.0292
     20 CD1         2.6685    4.5831   32.1505 C.3     2  LEU2        0.0001
     21 CG          1.8581    4.3612   33.3930 C.3     2  LEU2        0.0021
     22 CD2         1.2447    5.5291   34.1070 C.3     2  LEU2        0.0001
     23 C           3.9753    2.4566   35.7600 C.3     0  UNK0        0.1775
     24 C           3.1154    2.1786   36.9572 C.ar    0  UNK0        0.0321
     25 C           3.2228    0.8622   37.6683 C.ar    0  UNK0        0.0023
     26 C           2.3630    0.5842   38.8656 C.ar    0  UNK0        0.0295
     27 C           1.3958    1.6227   39.3518 C.ar    0  UNK0        0.1424
     28 F           0.5360    1.3447   40.5491 F       0  UNK0       -0.2041
     29 C           1.2885    2.9390   38.6407 C.ar    0  UNK0        0.0590
     30 C           2.1483    3.2170   37.4434 C.ar    0  UNK0        0.1404
     31 F           1.9769    4.2085   37.0153 F       0  UNK0       -0.2044
     32 C           4.9986    3.5521   35.8096 C.2     0  UNK0        0.2482
     33 O           4.8500    4.7577   34.9297 O.2     0  UNK0       -0.2727
     34 N           6.1708    3.4419   36.7392 N.am    0  UNK0       -0.2744
     35 C           7.1942    4.5374   36.7889 C.3     0  UNK0        0.1150
     36 C           6.3909    2.6201   37.4261 C.3     0  UNK0        0.1150
@<TRIPOS>BOND
     1    20    21    1
     2    21    22    1
     3    21    19    1
     4     1    19    1
     5     1     2    1
     6     2     3    2
     7     2     4   am
     8     4     5    1
     9     5    10    1
    10    10    11    1
    11    11    12    1
    12    12    13   ar
    13    13    14   ar
    14    14    15   ar
    15    15    16   ar
    16    16    17   ar
    17    17    18    1
    18     5     6    1
    19     6     7    2
    20     6     8   am
    21    23     8    1
    22    23    32    1
    23    32    33    2
    24    32    34   am
    25    34    35    1
    26    34    36    1
    27    23    24    1
    28    24    25   ar
    29    25    26   ar
    30    26    27   ar
    31    27    28    1
    32    27    29   ar
    33    29    30   ar
    34    30    31    1
    35     8     1    1
    36    30    24   ar
    37    18    10    1
    38    17    12   ar
    39     4     9    1
@<TRIPOS>MOLECULE
*****
 36 39 0 0 0
SMALL
GASTEIGER

@<TRIPOS>ATOM
      1 CA         -1.6382    3.8206   22.8999 C.3     2  LEU2        0.1523
      2 C          -2.0918    3.2110   21.6067 C.2     2  LEU2        0.2409
      3 O          -3.4679    3.4990   21.0836 O.2     2  LEU2       -0.2733
      4 N          -1.1694    2.3133   20.8364 N.am    1  UNK1       -0.2970
      5 C           0.2067    2.0253   21.3594 C.3     1  UNK1        0.1494
      6 C           0.6602    2.6349   22.6526 C.2     1  UNK1        0.2444
      7 O           2.0363    2.3469   23.1757 O.2     1  UNK1       -0.2731
      8 N          -0.2622    3.5325   23.4229 N.am    2  LEU2       -0.2615
      9 H          -1.4671    1.9132   19.9875 H       1  UNK1        0.1499
     10 C           1.1291    1.1277   20.5891 C.3     1  UNK1        0.0356
     11 C           1.5205   -0.2696   20.9691 C.3     1  UNK1        0.0285
     12 C           2.4554   -0.7911   19.9184 C.ar    1  UNK1       -0.0261
     13 C           3.1610   -2.1060   19.7660 C.ar    1  UNK1       -0.0046
     14 C           4.0531   -2.3458   18.5843 C.ar    1  UNK1       -0.0003
     15 C           4.2396   -1.2709   17.5549 C.ar    1  UNK1       -0.0003
     16 C           3.5339    0.0440   17.7072 C.ar    1  UNK1       -0.0046
     17 C           2.6419    0.2838   18.8890 C.ar    1  UNK1       -0.0261
     18 C           1.8222    1.4697   19.3035 C.3     1  UNK1        0.0285
     19 CB         -2.5607    4.7182   23.6702 C.3     2  LEU2        0.0292
     20 CD1        -3.3006    4.4812   26.1494 C.3     2  LEU2        0.0001
     21 CG         -3.4839    4.1386   24.7006 C.3     2  LEU2        0.0021
     22 CD2        -4.5904    3.2163   24.2822 C.3     2  LEU2        0.0001
     23 C           0.1914    4.1421   24.7163 C.3     0  UNK0        0.1775
     24 C           0.1198    3.3468   25.9861 C.ar    0  UNK0        0.0321
     25 C           0.6856    3.9094   27.2563 C.ar    0  UNK0        0.0023
     26 C           0.6140    3.1141   28.5261 C.ar    0  UNK0        0.0295
     27 C          -0.0234    1.7563   28.5257 C.ar    0  UNK0        0.1424
     28 F          -0.0950    0.9610   29.7955 F       0  UNK0       -0.2041
     29 C          -0.5892    1.1937   27.2555 C.ar    0  UNK0        0.0590
     30 C          -0.5176    1.9890   25.9857 C.ar    0  UNK0        0.1404
     31 F          -0.9634    1.4715   25.1318 F       0  UNK0       -0.2044
     32 C           0.7166    5.5470   24.7398 C.2     0  UNK0        0.2482
     33 O          -0.2271    6.6974   24.9293 O.2     0  UNK0       -0.2727
     34 N           2.1856    5.8014   24.5738 N.am    0  UNK0       -0.2744
     35 C           2.7107    7.2062   24.5973 C.3     0  UNK0        0.1150
     36 C           2.9706    5.0541   24.4294 C.3     0  UNK0        0.1150
@<TRIPOS>BOND
     1    20    21    1
     2    21    22    1
     3    21    19    1
     4     1    19    1
     5     1     2    1
     6     2     3    2
     7     2     4   am
     8     4     5    1
     9     5    10    1
    10    10    11    1
    11    11    12    1
    12    12    13   ar
    13    13    14   ar
    14    14    15   ar
    15    15    16   ar
    16    16    17   ar
    17    17    18    1
    18     5     6    1
    19     6     7    2
    20     6     8   am
    21    23     8    1
    22    23    32    1
    23    32    33    2
    24    32    34   am
    25    34    35    1
    26    34    36    1
    27    23    24    1
    28    24    25   ar
    29    25    26   ar
    30    26    27   ar
    31    27    28    1
    32    27    29   ar
    33    29    30   ar
    34    30    31    1
    35     8     1    1
    36    30    24   ar
    37    18    10    1
    38    17    12   ar
    39     4     9    1
@<TRIPOS>MOLECULE
*****
 36 39 0 0 0
SMALL
GASTEIGER

@<TRIPOS>ATOM
      1 CA          3.1475    1.6038   20.7107 C.3     2  LEU2        0.1523
      2 C           1.9216    2.3660   21.1182 C.2     2  LEU2        0.2409
      3 O           1.1810    3.1911   20.1078 O.2     2  LEU2       -0.2733
      4 N           1.4361    2.3031   22.5361 N.am    1  UNK1       -0.2970
      5 C           2.1766    1.4780   23.5465 C.3     1  UNK1        0.1494
      6 C           3.4025    0.7158   23.1390 C.2     1  UNK1        0.2444
      7 O           4.1431   -0.1093   24.1494 O.2     1  UNK1       -0.2731
      8 N           3.8880    0.7787   21.7211 N.am    2  LEU2       -0.2615
      9 H           0.6315    2.8034   22.8036 H       1  UNK1        0.1499
     10 C           1.6911    1.4151   24.9644 C.3     1  UNK1        0.0356
     11 C           2.5105    1.6920   26.1899 C.3     1  UNK1        0.0285
     12 C           1.6268    1.5123   27.3887 C.ar    1  UNK1       -0.0261
     13 C           1.8892    1.6519   28.8589 C.ar    1  UNK1       -0.0046
     14 C           0.7860    1.4034   29.8444 C.ar    1  UNK1       -0.0003
     15 C          -0.5795    1.0155   29.3597 C.ar    1  UNK1       -0.0003
     16 C          -0.8418    0.8760   27.8895 C.ar    1  UNK1       -0.0046
     17 C           0.2613    1.1244   26.9039 C.ar    1  UNK1       -0.0261
     18 C           0.3011    1.0643   25.4057 C.3     1  UNK1        0.0285
     19 CB          3.6330    1.6667   19.2929 C.3     2  LEU2        0.0292
     20 CD1         4.0388    0.0362   17.3112 C.3     2  LEU2        0.0001
     21 CG          3.1015    0.7019   18.2747 C.3     2  LEU2        0.0021
     22 CD2         1.6325    0.4029   18.2198 C.3     2  LEU2        0.0001
     23 C           5.1140    0.0165   21.3136 C.3     0  UNK0        0.1775
     24 C           4.9797   -1.2634   20.5429 C.ar    0  UNK0        0.0321
     25 C           6.1604   -1.8221   19.8053 C.ar    0  UNK0        0.0023
     26 C           6.0261   -3.1019   19.0346 C.ar    0  UNK0        0.0295
     27 C           4.7112   -3.8230   19.0015 C.ar    0  UNK0        0.1424
     28 F           4.5769   -5.1028   18.2307 F       0  UNK0       -0.2041
     29 C           3.5306   -3.2643   19.7390 C.ar    0  UNK0        0.0590
     30 C           3.6649   -1.9845   20.5097 C.ar    0  UNK0        0.1404
     31 F           2.7363   -1.6829   21.0021 F       0  UNK0       -0.2044
     32 C           6.4742    0.5341   21.6769 C.2     0  UNK0        0.2482
     33 O           7.1220    0.1048   22.9599 O.2     0  UNK0       -0.2727
     34 N           7.1866    1.4810   20.7571 N.am    0  UNK0       -0.2744
     35 C           8.5467    1.9986   21.1204 C.3     0  UNK0        0.1150
     36 C           6.8241    1.8667   19.8003 C.3     0  UNK0        0.1150
@<TRIPOS>BOND
     1    20    21    1
     2    21    22    1
     3    21    19    1
     4     1    19    1
     5     1     2    1
     6     2     3    2
     7     2     4   am
     8     4     5    1
     9     5    10    1
    10    10    11    1
    11    11    12    1
    12    12    13   ar
    13    13    14   ar
    14    14    15   ar
    15    15    16   ar
    16    16    17   ar
    17    17    18    1
    18     5     6    1
    19     6     7    2
    20     6     8   am
    21    23     8    1
    22    23    32    1
    23    32    33    2
    24    32    34   am
    25    34    35    1
    26    34    36    1
    27    23    24    1
    28    24    25   ar
    29    25    26   ar
    30    26    27   ar
    31    27    28    1
    32    27    29   ar
    33    29    30   ar
    34    30    31    1
    35     8     1    1
    36    30    24   ar
    37    18    10    1
    38    17    12   ar
    39     4     9    1
@<TRIPOS>MOLECULE
*****
 36 39 0 0 0
SMALL
GASTEIGER

@<TRIPOS>ATOM
      1 CA          6.8696   -0.4573   20.7571 C.3     2  LEU2        0.1523
      2 C           7.8907   -0.1090   21.7992 C.2     2  LEU2        0.2409
      3 O           8.9489    0.9115   21.5009 O.2     2  LEU2       -0.2733
      4 N           7.8538   -0.7812   23.1396 N.am    1  UNK1       -0.2970
      5 C           6.7958   -1.8017   23.4380 C.3     1  UNK1        0.1494
      6 C           5.7747   -2.1500   22.3959 C.2     1  UNK1        0.2444
      7 O           4.7165   -3.1706   22.6942 O.2     1  UNK1       -0.2731
      8 N           5.8116   -1.4778   21.0555 N.am    2  LEU2       -0.2615
      9 H           8.5240   -0.5526   23.8236 H       1  UNK1        0.1499
     10 C           6.7588   -2.4740   24.7784 C.3     1  UNK1        0.0356
     11 C           6.6107   -1.7888   26.1046 C.3     1  UNK1        0.0285
     12 C           6.6239   -2.8408   27.1738 C.ar    1  UNK1       -0.0261
     13 C           6.5137   -2.7553   28.6673 C.ar    1  UNK1       -0.0046
     14 C           6.5599   -4.0050   29.4955 C.ar    1  UNK1       -0.0003
     15 C           6.7162   -5.3403   28.8302 C.ar    1  UNK1       -0.0003
     16 C           6.8263   -5.4258   27.3367 C.ar    1  UNK1       -0.0046
     17 C           6.7801   -4.1760   26.5085 C.ar    1  UNK1       -0.0261
     18 C           6.8636   -3.9493   25.0281 C.3     1  UNK1        0.0285
     19 CB          6.9066    0.2149   19.4167 C.3     2  LEU2        0.0292
     20 CD1         5.4662    2.1639   20.3531 C.3     2  LEU2        0.0001
     21 CG          6.1805    1.5106   19.2072 C.3     2  LEU2        0.0021
     22 CD2         6.1687    2.1531   17.8517 C.3     2  LEU2        0.0001
     23 C           4.7904   -1.8262   20.0134 C.3     0  UNK0        0.1775
     24 C           3.5356   -1.0134   19.8918 C.ar    0  UNK0        0.0321
     25 C           2.6064   -0.8888   21.0628 C.ar    0  UNK0        0.0023
     26 C           1.3515   -0.0760   20.9413 C.ar    0  UNK0        0.0295
     27 C           1.0258    0.6120   19.6487 C.ar    0  UNK0        0.1424
     28 F          -0.2290    1.4248   19.5272 F       0  UNK0       -0.2041
     29 C           1.9550    0.4873   18.4778 C.ar    0  UNK0        0.0590
     30 C           3.2099   -0.3254   18.5994 C.ar    0  UNK0        0.1404
     31 F           3.8011   -0.3386   17.6796 F       0  UNK0       -0.2044
     32 C           5.0241   -2.9872   19.0929 C.2     0  UNK0        0.2482
     33 O           5.8526   -2.8082   17.8553 O.2     0  UNK0       -0.2727
     34 N           4.4294   -4.3273   19.4100 N.am    0  UNK0       -0.2744
     35 C           4.6631   -5.4883   18.4895 C.3     0  UNK0        0.1150
     36 C           3.8114   -4.5850   20.2745 C.3     0  UNK0        0.1150
@<TRIPOS>BOND
     1    20    21    1
     2    21    22    1
     3    21    19    1
     4     1    19    1
     5     1     2    1
     6     2     3    2
     7     2     4   am
     8     4     5    1
     9     5    10    1
    10    10    11    1
    11    11    12    1
    12    12    13   ar
    13    13    14   ar
    14    14    15   ar
    15    15    16   ar
    16    16    17   ar
    17    17    18    1
    18     5     6    1
    19     6     7    2
    20     6     8   am
    21    23     8    1
    22    23    32    1
    23    32    33    2
    24    32    34   am
    25    34    35    1
    26    34    36    1
    27    23    24    1
    28    24    25   ar
    29    25    26   ar
    30    26    27   ar
    31    27    28    1
    32    27    29   ar
    33    29    30   ar
    34    30    31    1
    35     8     1    1
    36    30    24   ar
    37    18    10    1
    38    17    12   ar
    39     4     9    1
@<TRIPOS>MOLECULE
*****
 36 39 0 0 0
SMALL
GASTEIGER

@<TRIPOS>ATOM
      1 CA          6.2275   -2.5980   22.1166 C.3     2  LEU2        0.1523
      2 C           6.2696   -3.6559   23.1791 C.2     2  LEU2        0.2409
      3 O           6.7490   -5.0371   22.8437 O.2     2  LEU2       -0.2733
      4 N           5.8322   -3.3327   24.5770 N.am    1  UNK1       -0.2970
      5 C           5.3527   -1.9515   24.9124 C.3     1  UNK1        0.1494
      6 C           5.3106   -0.8936   23.8499 C.2     1  UNK1        0.2444
      7 O           4.8312    0.4876   24.1853 O.2     1  UNK1       -0.2731
      8 N           5.7480   -1.2168   22.4520 N.am    2  LEU2       -0.2615
      9 H           5.8598   -4.0270   25.2744 H       1  UNK1        0.1499
     10 C           4.9153   -1.6283   26.3104 C.3     1  UNK1        0.0356
     11 C           3.5335   -1.2231   26.7304 C.3     1  UNK1        0.0285
     12 C           3.5471   -0.9979   28.2133 C.ar    1  UNK1       -0.0261
     13 C           2.4732   -0.5849   29.1757 C.ar    1  UNK1       -0.0046
     14 C           2.7895   -0.4381   30.6346 C.ar    1  UNK1       -0.0003
     15 C           4.1798   -0.7042   31.1311 C.ar    1  UNK1       -0.0003
     16 C           5.2536   -1.1171   30.1687 C.ar    1  UNK1       -0.0046
     17 C           4.9373   -1.2640   28.7098 C.ar    1  UNK1       -0.0261
     18 C           5.7829   -1.6536   27.5337 C.3     1  UNK1        0.0285
     19 CB          6.6649   -2.9212   20.7186 C.3     2  LEU2        0.0292
     20 CD1         5.7880   -2.7350   18.2801 C.3     2  LEU2        0.0001
     21 CG          5.6449   -3.2680   19.6749 C.3     2  LEU2        0.0021
     22 CD2         4.4818   -4.1478   20.0260 C.3     2  LEU2        0.0001
     23 C           5.7060   -0.1588   21.3894 C.3     0  UNK0        0.1775
     24 C           4.4853   -0.0061   20.5311 C.ar    0  UNK0        0.0321
     25 C           4.5323    0.8611   19.3080 C.ar    0  UNK0        0.0023
     26 C           3.3116    1.0138   18.4496 C.ar    0  UNK0        0.0295
     27 C           2.0441    0.2994   18.8144 C.ar    0  UNK0        0.1424
     28 F           0.8234    0.4522   17.9561 F       0  UNK0       -0.2041
     29 C           1.9972   -0.5676   20.0375 C.ar    0  UNK0        0.0590
     30 C           3.2178   -0.7204   20.8958 C.ar    0  UNK0        0.1404
     31 F           3.0561   -1.3766   21.7555 F       0  UNK0       -0.2044
     32 C           6.8845    0.7464   21.1853 C.2     0  UNK0        0.2482
     33 O           8.1045    0.2404   20.4743 O.2     0  UNK0       -0.2727
     34 N           6.8429    2.1576   21.6921 N.am    0  UNK0       -0.2744
     35 C           8.0214    3.0628   21.4879 C.3     0  UNK0        0.1150
     36 C           6.0185    2.6424   22.2220 C.3     0  UNK0        0.1150
@<TRIPOS>BOND
     1    20    21    1
     2    21    22    1
     3    21    19    1
     4     1    19    1
     5     1     2    1
     6     2     3    2
     7     2     4   am
     8     4     5    1
     9     5    10    1
    10    10    11    1
    11    11    12    1
    12    12    13   ar
    13    13    14   ar
    14    14    15   ar
    15    15    16   ar
    16    16    17   ar
    17    17    18    1
    18     5     6    1
    19     6     7    2
    20     6     8   am
    21    23     8    1
    22    23    32    1
    23    32    33    2
    24    32    34   am
    25    34    35    1
    26    34    36    1
    27    23    24    1
    28    24    25   ar
    29    25    26   ar
    30    26    27   ar
    31    27    28    1
    32    27    29   ar
    33    29    30   ar
    34    30    31    1
    35     8     1    1
    36    30    24   ar
    37    18    10    1
    38    17    12   ar
    39     4     9    1
@<TRIPOS>MOLECULE
*****
 36 39 0 0 0
SMALL
GASTEIGER

@<TRIPOS>ATOM
      1 CA          2.2252    1.3361   27.2002 C.3     2  LEU2        0.1523
      2 C           2.7874   -0.0511   27.2981 C.2     2  LEU2        0.2409
      3 O           3.0004   -0.6809   28.6428 O.2     2  LEU2       -0.2733
      4 N           3.1365   -0.8086   26.0514 N.am    1  UNK1       -0.2970
      5 C           2.9235   -0.1789   24.7068 C.3     1  UNK1        0.1494
      6 C           2.3614    1.2084   24.6089 C.2     1  UNK1        0.2444
      7 O           2.1484    1.8382   23.2642 O.2     1  UNK1       -0.2731
      8 N           2.0123    1.9658   25.8556 N.am    2  LEU2       -0.2615
      9 H           3.5054   -1.7191   26.1156 H       1  UNK1        0.1499
     10 C           3.2727   -0.9363   23.4600 C.3     1  UNK1        0.0356
     11 C           2.7005   -0.6978   22.0941 C.3     1  UNK1        0.0285
     12 C           3.3295   -1.6794   21.1502 C.ar    1  UNK1       -0.0261
     13 C           3.1514   -1.9128   19.6792 C.ar    1  UNK1       -0.0046
     14 C           3.9342   -2.9913   18.9908 C.ar    1  UNK1       -0.0003
     15 C           4.8951   -3.8365   19.7734 C.ar    1  UNK1       -0.0003
     16 C           5.0732   -3.6031   21.2444 C.ar    1  UNK1       -0.0046
     17 C           4.2904   -2.5245   21.9328 C.ar    1  UNK1       -0.0261
     18 C           4.2552   -2.0653   23.3603 C.3     1  UNK1        0.0285
     19 CB          1.8761    2.0936   28.4470 C.3     2  LEU2        0.0292
     20 CD1         0.5244    2.0965   30.6657 C.3     2  LEU2        0.0001
     21 CG          0.6320    1.7485   29.2106 C.3     2  LEU2        0.0021
     22 CD2        -0.5044    1.0553   28.5191 C.3     2  LEU2        0.0001
     23 C           1.4501    3.3531   25.7577 C.3     0  UNK0        0.1775
     24 C          -0.0346    3.5645   25.7866 C.ar    0  UNK0        0.0321
     25 C          -0.8927    3.0090   24.6888 C.ar    0  UNK0        0.0023
     26 C          -2.3775    3.2203   24.7176 C.ar    0  UNK0        0.0295
     27 C          -3.0041    3.9871   25.8444 C.ar    0  UNK0        0.1424
     28 F          -4.4889    4.1985   25.8732 F       0  UNK0       -0.2041
     29 C          -2.1460    4.5426   26.9421 C.ar    0  UNK0        0.0590
     30 C          -0.6613    4.3312   26.9132 C.ar    0  UNK0        0.1404
     31 F          -0.1487    4.7833   27.7668 F       0  UNK0       -0.2044
     32 C           2.3727    4.5290   25.6309 C.2     0  UNK0        0.2482
     33 O           3.2213    4.9456   26.7956 O.2     0  UNK0       -0.2727
     34 N           2.4469    5.2883   24.3394 N.am    0  UNK0       -0.2744
     35 C           3.3695    6.4642   24.2125 C.3     0  UNK0        0.1150
     36 C           1.8840    5.0861   23.4240 C.3     0  UNK0        0.1150
@<TRIPOS>BOND
     1    20    21    1
     2    21    22    1
     3    21    19    1
     4     1    19    1
     5     1     2    1
     6     2     3    2
     7     2     4   am
     8     4     5    1
     9     5    10    1
    10    10    11    1
    11    11    12    1
    12    12    13   ar
    13    13    14   ar
    14    14    15   ar
    15    15    16   ar
    16    16    17   ar
    17    17    18    1
    18     5     6    1
    19     6     7    2
    20     6     8   am
    21    23     8    1
    22    23    32    1
    23    32    33    2
    24    32    34   am
    25    34    35    1
    26    34    36    1
    27    23    24    1
    28    24    25   ar
    29    25    26   ar
    30    26    27   ar
    31    27    28    1
    32    27    29   ar
    33    29    30   ar
    34    30    31    1
    35     8     1    1
    36    30    24   ar
    37    18    10    1
    38    17    12   ar
    39     4     9    1
@<TRIPOS>MOLECULE
*****
 36 39 0 0 0
SMALL
GASTEIGER

@<TRIPOS>ATOM
      1 CA          4.8868   -0.5029   23.4863 C.3     2  LEU2        0.1523
      2 C           4.3913   -0.3851   24.8971 C.2     2  LEU2        0.2409
      3 O           5.1959   -0.9599   26.0252 O.2     2  LEU2       -0.2733
      4 N           3.0911    0.3074   25.1800 N.am    1  UNK1       -0.2970
      5 C           2.2866    0.8822   24.0521 C.3     1  UNK1        0.1494
      6 C           2.7821    0.7643   22.6413 C.2     1  UNK1        0.2444
      7 O           1.9775    1.3391   21.5132 O.2     1  UNK1       -0.2731
      8 N           4.0823    0.0718   22.3584 N.am    2  LEU2       -0.2615
      9 H           2.7659    0.3848   26.1060 H       1  UNK1        0.1499
     10 C           0.9864    1.5747   24.3350 C.3     1  UNK1        0.0356
     11 C           0.3046    1.6598   25.6684 C.3     1  UNK1        0.0285
     12 C          -0.9634    2.4414   25.4916 C.ar    1  UNK1       -0.0261
     13 C          -2.0383    2.8422   26.4579 C.ar    1  UNK1       -0.0046
     14 C          -3.2152    3.6409   25.9816 C.ar    1  UNK1       -0.0003
     15 C          -3.3171    4.0390   24.5390 C.ar    1  UNK1       -0.0003
     16 C          -2.2421    3.6382   23.5727 C.ar    1  UNK1       -0.0046
     17 C          -1.0652    2.8395   24.0490 C.ar    1  UNK1       -0.0261
     18 C           0.1398    2.3038   23.3342 C.3     1  UNK1        0.0285
     19 CB          6.1870   -1.1955   23.2034 C.3     2  LEU2        0.0292
     20 CD1         5.0661   -3.5371   23.1013 C.3     2  LEU2        0.0001
     21 CG          6.2829   -2.6878   23.3207 C.3     2  LEU2        0.0021
     22 CD2         7.5956   -3.3308   23.6574 C.3     2  LEU2        0.0001
     23 C           4.5778   -0.0460   20.9474 C.3     0  UNK0        0.1775
     24 C           4.5990   -1.3838   20.2692 C.ar    0  UNK0        0.0321
     25 C           5.9006   -1.9716   19.8105 C.ar    0  UNK0        0.0023
     26 C           5.9218   -3.3093   19.1323 C.ar    0  UNK0        0.0295
     27 C           4.6413   -4.0593   18.9128 C.ar    0  UNK0        0.1424
     28 F           4.6625   -5.3970   18.2346 F       0  UNK0       -0.2041
     29 C           3.3398   -3.4714   19.3715 C.ar    0  UNK0        0.0590
     30 C           3.3186   -2.1337   20.0497 C.ar    0  UNK0        0.1404
     31 F           2.3122   -1.8155   20.3355 F       0  UNK0       -0.2044
     32 C           5.0522    1.1739   20.2148 C.2     0  UNK0        0.2482
     33 O           6.2320    1.9453   20.7276 O.2     0  UNK0       -0.2727
     34 N           4.3466    1.6225   18.9694 N.am    0  UNK0       -0.2744
     35 C           4.8210    2.8424   18.2367 C.3     0  UNK0        0.1150
     36 C           3.4811    1.1499   18.4970 C.3     0  UNK0        0.1150
@<TRIPOS>BOND
     1    20    21    1
     2    21    22    1
     3    21    19    1
     4     1    19    1
     5     1     2    1
     6     2     3    2
     7     2     4   am
     8     4     5    1
     9     5    10    1
    10    10    11    1
    11    11    12    1
    12    12    13   ar
    13    13    14   ar
    14    14    15   ar
    15    15    16   ar
    16    16    17   ar
    17    17    18    1
    18     5     6    1
    19     6     7    2
    20     6     8   am
    21    23     8    1
    22    23    32    1
    23    32    33    2
    24    32    34   am
    25    34    35    1
    26    34    36    1
    27    23    24    1
    28    24    25   ar
    29    25    26   ar
    30    26    27   ar
    31    27    28    1
    32    27    29   ar
    33    29    30   ar
    34    30    31    1
    35     8     1    1
    36    30    24   ar
    37    18    10    1
    38    17    12   ar
    39     4     9    1
@<TRIPOS>MOLECULE
*****
 36 39 0 0 0
SMALL
GASTEIGER

@<TRIPOS>ATOM
      1 CA          4.2615    0.7185   22.0154 C.3     2  LEU2        0.1523
      2 C           3.3480    1.5077   22.9056 C.2     2  LEU2        0.2409
      3 O           3.6701    1.6628   24.3624 O.2     2  LEU2       -0.2733
      4 N           2.1123    2.1420   22.3391 N.am    1  UNK1       -0.2970
      5 C           1.7902    1.9870   20.8824 C.3     1  UNK1        0.1494
      6 C           2.7037    1.1977   19.9921 C.2     1  UNK1        0.2444
      7 O           2.3816    1.0427   18.5353 O.2     1  UNK1       -0.2731
      8 N           3.9393    0.5635   20.5586 N.am    2  LEU2       -0.2615
      9 H           1.5128    2.6600   22.9234 H       1  UNK1        0.1499
     10 C           0.5546    2.6213   20.3158 C.3     1  UNK1        0.0356
     11 C          -0.8333    2.4989   20.8715 C.3     1  UNK1        0.0285
     12 C          -1.7558    3.2913   19.9933 C.ar    1  UNK1       -0.0261
     13 C          -3.2347    3.5345   20.0519 C.ar    1  UNK1       -0.0046
     14 C          -3.8959    4.3898   19.0121 C.ar    1  UNK1       -0.0003
     15 C          -3.0781    5.0019   17.9136 C.ar    1  UNK1       -0.0003
     16 C          -1.5992    4.7586   17.8550 C.ar    1  UNK1       -0.0046
     17 C          -0.9380    3.9033   18.8948 C.ar    1  UNK1       -0.0261
     18 C           0.4899    3.4892   19.0942 C.3     1  UNK1        0.0285
     19 CB          5.4971    0.0842   22.5819 C.3     2  LEU2        0.0292
     20 CD1         6.5705   -1.7515   24.0746 C.3     2  LEU2        0.0001
     21 CG          5.4091   -1.2447   23.2719 C.3     2  LEU2        0.0021
     22 CD2         4.1595   -2.0670   23.1591 C.3     2  LEU2        0.0001
     23 C           4.8528   -0.2258   19.6683 C.3     0  UNK0        0.1775
     24 C           4.7075   -1.7160   19.5767 C.ar    0  UNK0        0.0321
     25 C           3.3970   -2.3177   19.1638 C.ar    0  UNK0        0.0023
     26 C           3.2516   -3.8079   19.0721 C.ar    0  UNK0        0.0295
     27 C           4.4169   -4.6962   19.3934 C.ar    0  UNK0        0.1424
     28 F           4.2716   -6.1864   19.3018 F       0  UNK0       -0.2041
     29 C           5.7273   -4.0944   19.8063 C.ar    0  UNK0        0.0590
     30 C           5.8726   -2.6043   19.8979 C.ar    0  UNK0        0.1404
     31 F           6.8732   -2.2909   20.2085 F       0  UNK0       -0.2044
     32 C           5.9116    0.4750   18.8697 C.2     0  UNK0        0.2482
     33 O           7.0289    1.1900   19.5698 O.2     0  UNK0       -0.2727
     34 N           5.8530    0.4608   17.3709 N.am    0  UNK0       -0.2744
     35 C           6.9117    1.1616   16.5722 C.3     0  UNK0        0.1150
     36 C           5.0958   -0.0213   16.7465 C.3     0  UNK0        0.1150
@<TRIPOS>BOND
     1    20    21    1
     2    21    22    1
     3    21    19    1
     4     1    19    1
     5     1     2    1
     6     2     3    2
     7     2     4   am
     8     4     5    1
     9     5    10    1
    10    10    11    1
    11    11    12    1
    12    12    13   ar
    13    13    14   ar
    14    14    15   ar
    15    15    16   ar
    16    16    17   ar
    17    17    18    1
    18     5     6    1
    19     6     7    2
    20     6     8   am
    21    23     8    1
    22    23    32    1
    23    32    33    2
    24    32    34   am
    25    34    35    1
    26    34    36    1
    27    23    24    1
    28    24    25   ar
    29    25    26   ar
    30    26    27   ar
    31    27    28    1
    32    27    29   ar
    33    29    30   ar
    34    30    31    1
    35     8     1    1
    36    30    24   ar
    37    18    10    1
    38    17    12   ar
    39     4     9    1
