@<TRIPOS>MOLECULE
*****
 31 34 0 0 0
SMALL
GASTEIGER

@<TRIPOS>ATOM
      1 C           8.3660   -5.7452   24.5803 C.ar    1  UNL1        0.1104
      2 C           9.3427   -6.8765   24.4526 C.ar    1  UNL1        0.0185
      3 C           9.2710   -8.0395   25.3972 C.ar    1  UNL1       -0.0013
      4 C           8.2227   -8.0712   26.4696 C.ar    1  UNL1       -0.0025
      5 C           7.2461   -6.9399   26.5974 C.ar    1  UNL1       -0.0013
      6 C           7.3177   -5.7769   25.6527 C.ar    1  UNL1        0.0185
      7 S           8.4377   -4.5822   23.6357 S.O2    1  UNL1        0.0305
      8 O           7.6737   -5.3674   22.6111 O.2     1  UNL1       -0.1641
      9 O           9.2017   -3.7971   24.6603 O.2     1  UNL1       -0.1641
     10 N           8.0881   -1.9431   20.8111 N.ar    1  UNL1       -0.2500
     11 C           7.6915   -3.2429   21.4461 C.ar    1  UNL1        0.1153
     12 C           8.5094   -3.4193   22.6911 C.ar    1  UNL1        0.1497
     13 C           9.4116   -2.2285   22.8255 C.ar    1  UNL1        0.1404
     14 N           9.1513   -1.3162   21.6637 N.ar    1  UNL1       -0.1663
     15 C           7.3981    0.1154   19.3841 C.3     1  UNL1        0.0263
     16 C           7.5213   -1.3708   19.5458 C.3     1  UNL1        0.1054
     17 C           7.0776   -2.2845   18.4422 C.3     1  UNL1        0.0263
     18 C           8.1511   -9.2342   27.4143 C.3     1  UNL1        0.1167
     19 N           6.8612   -9.9795   27.5897 N.am    1  UNL1       -0.2944
     20 C           6.8794  -11.4420   27.9224 C.2     1  UNL1        0.2808
     21 O           8.1874  -12.1592   28.0796 O.2     1  UNL1       -0.2668
     22 H           6.0028   -9.5088   27.4866 H       1  UNL1        0.1501
     23 C           5.5895  -12.1873   28.0979 C.ar    1  UNL1        0.1984
     24 C           4.4885  -11.8317   29.0525 C.ar    1  UNL1        0.0453
     25 C           3.3927  -12.8437   28.8942 C.ar    1  UNL1        0.0409
     26 C           2.0639  -12.9986   29.5724 C.ar    1  UNL1        0.0238
     27 C           1.1587  -14.1346   29.1981 C.ar    1  UNL1        0.0991
     28 N           1.5825  -15.1157   28.1456 N.ar    1  UNL1       -0.2391
     29 C           2.9114  -14.9609   27.4674 C.ar    1  UNL1        0.1362
     30 C           3.8165  -13.8249   27.8417 C.ar    1  UNL1        0.1646
     31 O           5.1742  -13.4192   27.3495 O.2     1  UNL1       -0.4473
@<TRIPOS>BOND
     1    15    16    1
     2    16    17    1
     3    16    10    1
     4    10    11   ar
     5    11    12   ar
     6    12     7    1
     7     7     8    2
     8     7     9    2
     9     7     1    1
    10     1     2   ar
    11     2     3   ar
    12     3     4   ar
    13     4    18    1
    14    18    19    1
    15    19    20   am
    16    20    21    2
    17    20    23    1
    18    23    24   ar
    19    24    25   ar
    20    25    26   ar
    21    26    27   ar
    22    27    28   ar
    23    28    29   ar
    24    29    30   ar
    25    30    31   ar
    26     4     5   ar
    27     5     6   ar
    28    12    13   ar
    29    13    14   ar
    30    14    10   ar
    31     6     1   ar
    32    31    23   ar
    33    30    25   ar
    34    19    22    1
@<TRIPOS>MOLECULE
*****
 31 34 0 0 0
SMALL
GASTEIGER

@<TRIPOS>ATOM
      1 C           8.4785   -5.8442   26.9211 C.ar    1  UNL1        0.1104
      2 C           7.6930   -6.7084   25.9796 C.ar    1  UNL1        0.0185
      3 C           7.4979   -8.1642   26.2837 C.ar    1  UNL1       -0.0013
      4 C           8.0882   -8.7559   27.5293 C.ar    1  UNL1       -0.0025
      5 C           8.8737   -7.8918   28.4707 C.ar    1  UNL1       -0.0013
      6 C           9.0689   -6.4359   28.1667 C.ar    1  UNL1        0.0185
      7 S           8.6737   -4.3884   26.6170 S.O2    1  UNL1        0.0305
      8 O           7.8117   -4.5276   25.3973 O.2     1  UNL1       -0.1641
      9 O           9.5356   -4.2492   27.8367 O.2     1  UNL1       -0.1641
     10 N           8.9664   -0.5187   26.5459 N.ar    1  UNL1       -0.2500
     11 C           8.6555   -1.7960   27.2683 C.ar    1  UNL1        0.1153
     12 C           8.8688   -2.9326   26.3129 C.ar    1  UNL1        0.1497
     13 C           9.3114   -2.3578   25.0001 C.ar    1  UNL1        0.1404
     14 N           9.3718   -0.8659   25.1440 N.ar    1  UNL1       -0.1663
     15 C           8.2956    1.0729   28.4868 C.3     1  UNL1        0.0263
     16 C           8.8860    0.8631   27.1239 C.3     1  UNL1        0.1054
     17 C           9.3958    2.0352   26.3390 C.3     1  UNL1        0.0263
     18 C           7.8931  -10.2118   27.8333 C.3     1  UNL1        0.1167
     19 N           6.5115  -10.7957   27.8503 N.am    1  UNL1       -0.2944
     20 C           6.2956  -12.1972   28.3394 C.2     1  UNL1        0.2808
     21 O           7.4613  -13.0147   28.8114 O.2     1  UNL1       -0.2668
     22 H           5.7464  -10.2592   27.5405 H       1  UNL1        0.1501
     23 C           4.9141  -12.7812   28.3564 C.ar    1  UNL1        0.1984
     24 C           3.6449  -12.0350   28.6436 C.ar    1  UNL1        0.0453
     25 C           2.5055  -13.0065   28.5539 C.ar    1  UNL1        0.0409
     26 C           1.0266  -12.8389   28.7399 C.ar    1  UNL1        0.0238
     27 C           0.1127  -14.0180   28.5834 C.ar    1  UNL1        0.0991
     28 N           0.6777  -15.3646   28.2407 N.ar    1  UNL1       -0.2391
     29 C           2.1566  -15.5322   28.0547 C.ar    1  UNL1        0.1362
     30 C           3.0705  -14.3532   28.2113 C.ar    1  UNL1        0.1646
     31 O           4.5591  -14.2139   28.0892 O.2     1  UNL1       -0.4473
@<TRIPOS>BOND
     1    15    16    1
     2    16    17    1
     3    16    10    1
     4    10    11   ar
     5    11    12   ar
     6    12     7    1
     7     7     8    2
     8     7     9    2
     9     7     1    1
    10     1     2   ar
    11     2     3   ar
    12     3     4   ar
    13     4    18    1
    14    18    19    1
    15    19    20   am
    16    20    21    2
    17    20    23    1
    18    23    24   ar
    19    24    25   ar
    20    25    26   ar
    21    26    27   ar
    22    27    28   ar
    23    28    29   ar
    24    29    30   ar
    25    30    31   ar
    26     4     5   ar
    27     5     6   ar
    28    12    13   ar
    29    13    14   ar
    30    14    10   ar
    31     6     1   ar
    32    31    23   ar
    33    30    25   ar
    34    19    22    1
@<TRIPOS>MOLECULE
*****
 31 34 0 0 0
SMALL
GASTEIGER

@<TRIPOS>ATOM
      1 C           2.2819   -0.0571   19.0543 C.ar    1  UNL1        0.1104
      2 C           2.4537   -1.1382   20.0799 C.ar    1  UNL1        0.0185
      3 C           3.5144   -2.1830   19.8978 C.ar    1  UNL1       -0.0013
      4 C           4.4034   -2.1468   18.6902 C.ar    1  UNL1       -0.0025
      5 C           4.2317   -1.0657   17.6646 C.ar    1  UNL1       -0.0013
      6 C           3.1709   -0.0208   17.8467 C.ar    1  UNL1        0.0185
      7 S           1.2212    0.9877   19.2364 S.O2    1  UNL1        0.0305
      8 O           1.9655    1.9045   18.3115 O.2     1  UNL1       -0.1641
      9 O           0.4769    0.0709   20.1613 O.2     1  UNL1       -0.1641
     10 N          -1.6872    3.3105   20.3369 N.ar    1  UNL1       -0.2500
     11 C          -0.8115    2.1130   20.5582 C.ar    1  UNL1        0.1153
     12 C           0.1605    2.0325   19.4185 C.ar    1  UNL1        0.1497
     13 C          -0.1145    3.1804   18.4929 C.ar    1  UNL1        0.1404
     14 N          -1.2565    3.9702   19.0604 N.ar    1  UNL1       -0.1663
     15 C          -4.1997    3.2878   20.9978 C.3     1  UNL1        0.0263
     16 C          -2.7985    3.7680   21.2345 C.3     1  UNL1        0.1054
     17 C          -2.5087    4.7057   22.3687 C.3     1  UNL1        0.0263
     18 C           5.4642   -3.1917   18.5081 C.3     1  UNL1        0.1167
     19 N           5.8823   -4.0460   19.6680 N.am    1  UNL1       -0.2944
     20 C           7.0453   -3.6350   20.5215 C.2     1  UNL1        0.2808
     21 O           7.7902   -2.3697   20.2150 O.2     1  UNL1       -0.2668
     22 H           5.3933   -4.8765   19.8692 H       1  UNL1        0.1501
     23 C           7.4634   -4.4893   21.6813 C.ar    1  UNL1        0.1984
     24 C           7.0622   -4.2901   23.1129 C.ar    1  UNL1        0.0453
     25 C           7.7069   -5.3705   23.9297 C.ar    1  UNL1        0.0409
     26 C           7.6692   -5.6768   25.3975 C.ar    1  UNL1        0.0238
     27 C           8.4311   -6.8502   25.9386 C.ar    1  UNL1        0.0991
     28 N           9.2307   -7.7172   25.0118 N.ar    1  UNL1       -0.2391
     29 C           9.2684   -7.4108   23.5439 C.ar    1  UNL1        0.1362
     30 C           8.5065   -6.2375   23.0029 C.ar    1  UNL1        0.1646
     31 O           8.3560   -5.6929   21.6133 O.2     1  UNL1       -0.4473
@<TRIPOS>BOND
     1    15    16    1
     2    16    17    1
     3    16    10    1
     4    10    11   ar
     5    11    12   ar
     6    12     7    1
     7     7     8    2
     8     7     9    2
     9     7     1    1
    10     1     2   ar
    11     2     3   ar
    12     3     4   ar
    13     4    18    1
    14    18    19    1
    15    19    20   am
    16    20    21    2
    17    20    23    1
    18    23    24   ar
    19    24    25   ar
    20    25    26   ar
    21    26    27   ar
    22    27    28   ar
    23    28    29   ar
    24    29    30   ar
    25    30    31   ar
    26     4     5   ar
    27     5     6   ar
    28    12    13   ar
    29    13    14   ar
    30    14    10   ar
    31     6     1   ar
    32    31    23   ar
    33    30    25   ar
    34    19    22    1
@<TRIPOS>MOLECULE
*****
 31 34 0 0 0
SMALL
GASTEIGER

@<TRIPOS>ATOM
      1 C           1.0942    1.1202   28.4166 C.ar    1  UNL1        0.1104
      2 C           1.3261    2.4540   27.7707 C.ar    1  UNL1        0.0185
      3 C           0.1757    3.2076   27.1720 C.ar    1  UNL1       -0.0013
      4 C          -1.2068    2.6275   27.2192 C.ar    1  UNL1       -0.0025
      5 C          -1.4388    1.2937   27.8651 C.ar    1  UNL1       -0.0013
      6 C          -0.2883    0.5400   28.4638 C.ar    1  UNL1        0.0185
      7 S           2.2447    0.3666   29.0153 S.O2    1  UNL1        0.0305
      8 O           3.1214    0.8023   27.8788 O.2     1  UNL1       -0.1641
      9 O           1.3679   -0.0691   30.1517 O.2     1  UNL1       -0.1641
     10 N           4.8089   -1.5674   31.1946 N.ar    1  UNL1       -0.2500
     11 C           3.4942   -0.8635   31.0328 C.ar    1  UNL1        0.1153
     12 C           3.3951   -0.3870   29.6139 C.ar    1  UNL1        0.1497
     13 C           4.6485   -0.7964   28.8989 C.ar    1  UNL1        0.1404
     14 N           5.5223   -1.5259   29.8757 N.ar    1  UNL1       -0.1663
     15 C           6.7075   -2.7707   32.4975 C.3     1  UNL1        0.0263
     16 C           5.3203   -2.2015   32.4541 C.3     1  UNL1        0.1054
     17 C           4.4447   -2.2664   33.6702 C.3     1  UNL1        0.0263
     18 C          -2.3573    3.3812   26.6205 C.3     1  UNL1        0.1167
     19 N          -2.5182    3.4445   25.1305 N.am    1  UNL1       -0.2944
     20 C          -3.8902    3.4583   24.5242 C.2     1  UNL1        0.2808
     21 O          -5.1011    3.4087   25.4080 O.2     1  UNL1       -0.2668
     22 H          -1.7234    3.4771   24.5505 H       1  UNL1        0.1501
     23 C          -4.0511    3.5217   23.0342 C.ar    1  UNL1        0.1984
     24 C          -5.3458    3.4285   22.2825 C.ar    1  UNL1        0.0453
     25 C          -5.0405    3.5386   20.8180 C.ar    1  UNL1        0.0409
     26 C          -5.9216    3.5129   19.6044 C.ar    1  UNL1        0.0238
     27 C          -5.3192    3.6483   18.2374 C.ar    1  UNL1        0.0991
     28 N          -3.8358    3.8095   18.0840 N.ar    1  UNL1       -0.2391
     29 C          -2.9547    3.8352   19.2976 C.ar    1  UNL1        0.1362
     30 C          -3.5571    3.6997   20.6647 C.ar    1  UNL1        0.1646
     31 O          -2.9456    3.6893   22.0343 O.2     1  UNL1       -0.4473
@<TRIPOS>BOND
     1    15    16    1
     2    16    17    1
     3    16    10    1
     4    10    11   ar
     5    11    12   ar
     6    12     7    1
     7     7     8    2
     8     7     9    2
     9     7     1    1
    10     1     2   ar
    11     2     3   ar
    12     3     4   ar
    13     4    18    1
    14    18    19    1
    15    19    20   am
    16    20    21    2
    17    20    23    1
    18    23    24   ar
    19    24    25   ar
    20    25    26   ar
    21    26    27   ar
    22    27    28   ar
    23    28    29   ar
    24    29    30   ar
    25    30    31   ar
    26     4     5   ar
    27     5     6   ar
    28    12    13   ar
    29    13    14   ar
    30    14    10   ar
    31     6     1   ar
    32    31    23   ar
    33    30    25   ar
    34    19    22    1
@<TRIPOS>MOLECULE
*****
 31 34 0 0 0
SMALL
GASTEIGER

@<TRIPOS>ATOM
      1 C           2.6491   -0.3573   19.6537 C.ar    1  UNL1        0.1104
      2 C           2.9289    0.8085   18.7523 C.ar    1  UNL1        0.0185
      3 C           1.9025    1.8892   18.5832 C.ar    1  UNL1       -0.0013
      4 C           0.5962    1.8040   19.3156 C.ar    1  UNL1       -0.0025
      5 C           0.3163    0.6383   20.2170 C.ar    1  UNL1       -0.0013
      6 C           1.3428   -0.4424   20.3861 C.ar    1  UNL1        0.0185
      7 S           3.6755   -1.4379   19.8228 S.O2    1  UNL1        0.0305
      8 O           3.2282   -1.6411   21.2400 O.2     1  UNL1       -0.1641
      9 O           4.1228   -1.2348   18.4056 O.2     1  UNL1       -0.1641
     10 N           6.8155   -3.6614   20.3349 N.ar    1  UNL1       -0.2500
     11 C           6.1693   -2.3122   20.2253 C.ar    1  UNL1        0.1153
     12 C           4.7020   -2.5186   19.9919 C.ar    1  UNL1        0.1497
     13 C           4.4413   -3.9953   19.9572 C.ar    1  UNL1        0.1404
     14 N           5.7475   -4.7016   20.1692 N.ar    1  UNL1       -0.1663
     15 C           9.2949   -2.9060   20.1566 C.3     1  UNL1        0.0263
     16 C           8.2736   -3.9242   20.5690 C.3     1  UNL1        0.1054
     17 C           8.7104   -5.2052   21.2156 C.3     1  UNL1        0.0263
     18 C          -0.4303    2.8848   19.1465 C.3     1  UNL1        0.1167
     19 N          -1.4060    3.1715   20.2491 N.am    1  UNL1       -0.2944
     20 C          -2.8034    3.6058   19.9198 C.2     1  UNL1        0.2808
     21 O          -3.2251    3.7534   18.4879 O.2     1  UNL1       -0.2668
     22 H          -1.1292    3.0747   21.1889 H       1  UNL1        0.1501
     23 C          -3.7792    3.8926   21.0224 C.ar    1  UNL1        0.1984
     24 C          -5.2731    3.9244   20.8915 C.ar    1  UNL1        0.0453
     25 C          -5.8495    4.2494   22.2377 C.ar    1  UNL1        0.0409
     26 C          -7.2634    4.4132   22.7111 C.ar    1  UNL1        0.0238
     27 C          -7.5395    4.7460   24.1474 C.ar    1  UNL1        0.0991
     28 N          -6.4018    4.9150   25.1102 N.ar    1  UNL1       -0.2391
     29 C          -4.9880    4.7511   24.6368 C.ar    1  UNL1        0.1362
     30 C          -4.7118    4.4183   23.2005 C.ar    1  UNL1        0.1646
     31 O          -3.4323    4.1978   22.4494 O.2     1  UNL1       -0.4473
@<TRIPOS>BOND
     1    15    16    1
     2    16    17    1
     3    16    10    1
     4    10    11   ar
     5    11    12   ar
     6    12     7    1
     7     7     8    2
     8     7     9    2
     9     7     1    1
    10     1     2   ar
    11     2     3   ar
    12     3     4   ar
    13     4    18    1
    14    18    19    1
    15    19    20   am
    16    20    21    2
    17    20    23    1
    18    23    24   ar
    19    24    25   ar
    20    25    26   ar
    21    26    27   ar
    22    27    28   ar
    23    28    29   ar
    24    29    30   ar
    25    30    31   ar
    26     4     5   ar
    27     5     6   ar
    28    12    13   ar
    29    13    14   ar
    30    14    10   ar
    31     6     1   ar
    32    31    23   ar
    33    30    25   ar
    34    19    22    1
@<TRIPOS>MOLECULE
*****
 31 34 0 0 0
SMALL
GASTEIGER

@<TRIPOS>ATOM
      1 C           0.5107    1.7515   19.2973 C.ar    1  UNL1        0.1104
      2 C           0.2533    2.7335   18.1929 C.ar    1  UNL1        0.0185
      3 C          -0.7656    3.8189   18.3768 C.ar    1  UNL1       -0.0013
      4 C          -1.5271    3.9223   19.6649 C.ar    1  UNL1       -0.0025
      5 C          -1.2697    2.9405   20.7693 C.ar    1  UNL1       -0.0013
      6 C          -0.2508    1.8550   20.5855 C.ar    1  UNL1        0.0185
      7 S           1.5296    0.6662   19.1134 S.O2    1  UNL1        0.0305
      8 O           2.3382    1.5741   18.2350 O.2     1  UNL1       -0.1641
      9 O           0.7209   -0.2418   19.9918 O.2     1  UNL1       -0.1641
     10 N           3.8395   -2.4504   19.2430 N.ar    1  UNL1       -0.2500
     11 C           2.6993   -1.6412   19.7863 C.ar    1  UNL1        0.1153
     12 C           2.5484   -0.4192   18.9296 C.ar    1  UNL1        0.1497
     13 C           3.5953   -0.4731   17.8567 C.ar    1  UNL1        0.1404
     14 N           4.3932   -1.7284   18.0504 N.ar    1  UNL1       -0.1663
     15 C           4.6087   -3.8901   21.2642 C.3     1  UNL1        0.0263
     16 C           4.3383   -3.7527   19.7952 C.3     1  UNL1        0.1054
     17 C           4.5667   -4.9178   18.8785 C.3     1  UNL1        0.0263
     18 C          -2.5460    5.0078   19.8487 C.3     1  UNL1        0.1167
     19 N          -3.0714    5.3190   21.2188 N.am    1  UNL1       -0.2944
     20 C          -4.3657    4.7176   21.6803 C.2     1  UNL1        0.2808
     21 O          -5.1347    3.8049   20.7716 O.2     1  UNL1       -0.2668
     22 H          -2.5667    5.9181   21.8152 H       1  UNL1        0.1501
     23 C          -4.8911    5.0289   23.0503 C.ar    1  UNL1        0.1984
     24 C          -6.2157    5.6585   23.3647 C.ar    1  UNL1        0.0453
     25 C          -6.3274    5.7839   24.8552 C.ar    1  UNL1        0.0409
     26 C          -7.4102    6.3295   25.7382 C.ar    1  UNL1        0.0238
     27 C          -7.2373    6.3230   27.2282 C.ar    1  UNL1        0.0991
     28 N          -5.9816    5.7709   27.8351 N.ar    1  UNL1       -0.2391
     29 C          -4.8988    5.2253   26.9521 C.ar    1  UNL1        0.1362
     30 C          -5.0717    5.2318   25.4622 C.ar    1  UNL1        0.1646
     31 O          -4.1840    4.7652   24.3467 O.2     1  UNL1       -0.4473
@<TRIPOS>BOND
     1    15    16    1
     2    16    17    1
     3    16    10    1
     4    10    11   ar
     5    11    12   ar
     6    12     7    1
     7     7     8    2
     8     7     9    2
     9     7     1    1
    10     1     2   ar
    11     2     3   ar
    12     3     4   ar
    13     4    18    1
    14    18    19    1
    15    19    20   am
    16    20    21    2
    17    20    23    1
    18    23    24   ar
    19    24    25   ar
    20    25    26   ar
    21    26    27   ar
    22    27    28   ar
    23    28    29   ar
    24    29    30   ar
    25    30    31   ar
    26     4     5   ar
    27     5     6   ar
    28    12    13   ar
    29    13    14   ar
    30    14    10   ar
    31     6     1   ar
    32    31    23   ar
    33    30    25   ar
    34    19    22    1
@<TRIPOS>MOLECULE
*****
 31 34 0 0 0
SMALL
GASTEIGER

@<TRIPOS>ATOM
      1 C           1.3057    1.5969   28.7412 C.ar    1  UNL1        0.1104
      2 C          -0.1259    1.3997   28.3391 C.ar    1  UNL1        0.0185
      3 C          -0.5035    1.3959   26.8874 C.ar    1  UNL1       -0.0013
      4 C           0.5505    1.5892   25.8378 C.ar    1  UNL1       -0.0025
      5 C           1.9821    1.7864   26.2399 C.ar    1  UNL1       -0.0013
      6 C           2.3597    1.7902   27.6916 C.ar    1  UNL1        0.0185
      7 S           1.6833    1.6007   30.1929 S.O2    1  UNL1        0.0305
      8 O           1.3233    0.1478   30.2903 O.2     1  UNL1       -0.1641
      9 O           2.0432    3.0535   30.0955 O.2     1  UNL1       -0.1641
     10 N           3.2227    1.1601   33.7286 N.ar    1  UNL1       -0.2500
     11 C           3.2225    0.8782   32.2554 C.ar    1  UNL1        0.1153
     12 C           2.0608    1.6045   31.6446 C.ar    1  UNL1        0.1497
     13 C           1.3430    2.3352   32.7403 C.ar    1  UNL1        0.1404
     14 N           2.0610    2.0606   34.0284 N.ar    1  UNL1       -0.1663
     15 C           4.8063    1.5552   35.7500 C.3     1  UNL1        0.0263
     16 C           4.2109    0.6339   34.7269 C.3     1  UNL1        0.1054
     17 C           4.6037   -0.8135   34.7021 C.3     1  UNL1        0.0263
     18 C           0.1729    1.5854   24.3861 C.3     1  UNL1        0.1167
     19 N           1.0588    0.9087   23.3825 N.am    1  UNL1       -0.2944
     20 C           0.7580    1.0250   21.9176 C.2     1  UNL1        0.2808
     21 O          -0.4287    1.8180   21.4563 O.2     1  UNL1       -0.2668
     22 H           1.8377    0.3883   23.6853 H       1  UNL1        0.1501
     23 C           1.6439    0.3483   20.9140 C.ar    1  UNL1        0.1984
     24 C           2.4447   -0.8990   21.1441 C.ar    1  UNL1        0.0453
     25 C           3.1803   -1.2181   19.8764 C.ar    1  UNL1        0.0409
     26 C           4.1206   -2.3291   19.5141 C.ar    1  UNL1        0.0238
     27 C           4.7147   -2.3901   18.1381 C.ar    1  UNL1        0.0991
     28 N           4.3686   -1.3400   17.1245 N.ar    1  UNL1       -0.2391
     29 C           3.4283   -0.2289   17.4868 C.ar    1  UNL1        0.1362
     30 C           2.8341   -0.1680   18.8628 C.ar    1  UNL1        0.1646
     31 O           1.8846    0.8001   19.5040 O.2     1  UNL1       -0.4473
@<TRIPOS>BOND
     1    15    16    1
     2    16    17    1
     3    16    10    1
     4    10    11   ar
     5    11    12   ar
     6    12     7    1
     7     7     8    2
     8     7     9    2
     9     7     1    1
    10     1     2   ar
    11     2     3   ar
    12     3     4   ar
    13     4    18    1
    14    18    19    1
    15    19    20   am
    16    20    21    2
    17    20    23    1
    18    23    24   ar
    19    24    25   ar
    20    25    26   ar
    21    26    27   ar
    22    27    28   ar
    23    28    29   ar
    24    29    30   ar
    25    30    31   ar
    26     4     5   ar
    27     5     6   ar
    28    12    13   ar
    29    13    14   ar
    30    14    10   ar
    31     6     1   ar
    32    31    23   ar
    33    30    25   ar
    34    19    22    1
@<TRIPOS>MOLECULE
*****
 31 34 0 0 0
SMALL
GASTEIGER

@<TRIPOS>ATOM
      1 C           3.5734   -0.7993   24.9911 C.ar    1  UNL1        0.1104
      2 C           2.5054    0.2078   24.6820 C.ar    1  UNL1        0.0185
      3 C           1.9702    1.0912   25.7697 C.ar    1  UNL1       -0.0013
      4 C           2.5028    0.9676   27.1665 C.ar    1  UNL1       -0.0025
      5 C           3.5706   -0.0394   27.4756 C.ar    1  UNL1       -0.0013
      6 C           4.1060   -0.9228   26.3879 C.ar    1  UNL1        0.0185
      7 S           4.1086   -1.6827   23.9035 S.O2    1  UNL1        0.0305
      8 O           5.1443   -2.2175   24.8475 O.2     1  UNL1       -0.1641
      9 O           3.0730   -1.1478   22.9594 O.2     1  UNL1       -0.1641
     10 N           5.0380   -3.5691   20.6411 N.ar    1  UNL1       -0.2500
     11 C           4.2635   -2.5086   21.3660 C.ar    1  UNL1        0.1153
     12 C           4.6439   -2.5661   22.8158 C.ar    1  UNL1        0.1497
     13 C           5.6536   -3.6620   22.9870 C.ar    1  UNL1        0.1404
     14 N           5.8972   -4.2820   21.6430 N.ar    1  UNL1       -0.1663
     15 C           5.2823   -2.7902   18.1746 C.3     1  UNL1        0.0263
     16 C           4.9661   -3.8647   19.1723 C.3     1  UNL1        0.1054
     17 C           4.5780   -5.2349   18.7012 C.3     1  UNL1        0.0263
     18 C           1.9674    1.8511   28.2542 C.3     1  UNL1        0.1167
     19 N           2.5806    1.8113   29.6225 N.am    1  UNL1       -0.2944
     20 C           2.2266    0.7047   30.5711 C.2     1  UNL1        0.2808
     21 O           1.2595   -0.3623   30.1514 O.2     1  UNL1       -0.2668
     22 H           3.2154    2.5116   29.8980 H       1  UNL1        0.1501
     23 C           2.8398    0.6649   31.9395 C.ar    1  UNL1        0.1984
     24 C           3.6481   -0.4620   32.5111 C.ar    1  UNL1        0.0453
     25 C           4.0602   -0.0783   33.9014 C.ar    1  UNL1        0.0409
     26 C           4.8681   -0.7947   34.9426 C.ar    1  UNL1        0.0238
     27 C           5.1222   -0.1471   36.2714 C.ar    1  UNL1        0.0991
     28 N           4.5686    1.2169   36.5591 N.ar    1  UNL1       -0.2391
     29 C           3.7607    1.9334   35.5180 C.ar    1  UNL1        0.1362
     30 C           3.5066    1.2858   34.1891 C.ar    1  UNL1        0.1646
     31 O           2.7523    1.7451   32.9766 O.2     1  UNL1       -0.4473
@<TRIPOS>BOND
     1    15    16    1
     2    16    17    1
     3    16    10    1
     4    10    11   ar
     5    11    12   ar
     6    12     7    1
     7     7     8    2
     8     7     9    2
     9     7     1    1
    10     1     2   ar
    11     2     3   ar
    12     3     4   ar
    13     4    18    1
    14    18    19    1
    15    19    20   am
    16    20    21    2
    17    20    23    1
    18    23    24   ar
    19    24    25   ar
    20    25    26   ar
    21    26    27   ar
    22    27    28   ar
    23    28    29   ar
    24    29    30   ar
    25    30    31   ar
    26     4     5   ar
    27     5     6   ar
    28    12    13   ar
    29    13    14   ar
    30    14    10   ar
    31     6     1   ar
    32    31    23   ar
    33    30    25   ar
    34    19    22    1
@<TRIPOS>MOLECULE
*****
 31 34 0 0 0
SMALL
GASTEIGER

@<TRIPOS>ATOM
      1 C           1.9438    1.5281   29.9445 C.ar    1  UNL1        0.1104
      2 C           0.6039    1.0446   29.4743 C.ar    1  UNL1        0.0185
      3 C           0.3054    0.9727   28.0061 C.ar    1  UNL1       -0.0013
      4 C           1.3468    1.3843   27.0080 C.ar    1  UNL1       -0.0025
      5 C           2.6866    1.8679   27.4781 C.ar    1  UNL1       -0.0013
      6 C           2.9851    1.9398   28.9464 C.ar    1  UNL1        0.0185
      7 S           2.2423    1.6000   31.4127 S.O2    1  UNL1        0.0305
      8 O           3.7119    1.6164   31.1131 O.2     1  UNL1       -0.1641
      9 O           0.7726    1.5837   31.7123 O.2     1  UNL1       -0.1641
     10 N           3.5278    1.2559   35.0589 N.ar    1  UNL1       -0.2500
     11 C           3.5700    0.8620   33.6121 C.ar    1  UNL1        0.1153
     12 C           2.5408    1.6720   32.8809 C.ar    1  UNL1        0.1497
     13 C           1.8625    2.5665   33.8757 C.ar    1  UNL1        0.1404
     14 N           2.4724    2.3094   35.2218 N.ar    1  UNL1       -0.1663
     15 C           5.3775   -0.3912   35.8435 C.3     1  UNL1        0.0263
     16 C           4.3896    0.6949   36.1509 C.3     1  UNL1        0.1054
     17 C           4.2634    1.2198   37.5503 C.3     1  UNL1        0.0263
     18 C           1.0482    1.3124   25.5397 C.3     1  UNL1        0.1167
     19 N           1.6427    0.2160   24.7064 N.am    1  UNL1       -0.2944
     20 C           2.2899    0.5395   23.3924 C.2     1  UNL1        0.2808
     21 O           2.3425    1.9595   22.9119 O.2     1  UNL1       -0.2668
     22 H           1.6081   -0.7160   25.0218 H       1  UNL1        0.1501
     23 C           2.8844   -0.5568   22.5591 C.ar    1  UNL1        0.1984
     24 C           2.6708   -0.7611   21.0885 C.ar    1  UNL1        0.0453
     25 C           3.4513   -1.9720   20.6705 C.ar    1  UNL1        0.0409
     26 C           3.6182   -2.6494   19.3426 C.ar    1  UNL1        0.0238
     27 C           4.4809   -3.8709   19.2271 C.ar    1  UNL1        0.0991
     28 N           5.1768   -4.4150   20.4394 N.ar    1  UNL1       -0.2391
     29 C           5.0100   -3.7376   21.7672 C.ar    1  UNL1        0.1362
     30 C           4.1472   -2.5161   21.8828 C.ar    1  UNL1        0.1646
     31 O           3.7968   -1.6415   23.0499 O.2     1  UNL1       -0.4473
@<TRIPOS>BOND
     1    15    16    1
     2    16    17    1
     3    16    10    1
     4    10    11   ar
     5    11    12   ar
     6    12     7    1
     7     7     8    2
     8     7     9    2
     9     7     1    1
    10     1     2   ar
    11     2     3   ar
    12     3     4   ar
    13     4    18    1
    14    18    19    1
    15    19    20   am
    16    20    21    2
    17    20    23    1
    18    23    24   ar
    19    24    25   ar
    20    25    26   ar
    21    26    27   ar
    22    27    28   ar
    23    28    29   ar
    24    29    30   ar
    25    30    31   ar
    26     4     5   ar
    27     5     6   ar
    28    12    13   ar
    29    13    14   ar
    30    14    10   ar
    31     6     1   ar
    32    31    23   ar
    33    30    25   ar
    34    19    22    1
