@<TRIPOS>MOLECULE
*****
 39 43 0 0 0
SMALL
GASTEIGER

@<TRIPOS>ATOM
      1 C           7.9601   -4.3106   31.4088 C.3     1  UNL1        0.0972
      2 C           8.8661   -3.2299   31.9197 C.3     1  UNL1        0.0431
      3 C           8.0164   -2.1905   32.5888 C.3     1  UNL1        0.0968
      4 N           6.5852   -2.6288   32.4914 N.am    1  UNL1       -0.2623
      5 C           5.3974   -1.8871   33.0289 C.2     1  UNL1        0.3073
      6 O           4.0188   -2.4522   32.8552 O.2     1  UNL1       -0.2523
      7 N           5.5882   -0.5803   33.7401 N.am    1  UNL1       -0.2626
      8 C           6.8991    0.1053   33.9882 C.3     1  UNL1        0.0964
      9 C           6.6226    1.3797   34.7295 C.3     1  UNL1        0.0390
     10 C           5.1409    1.4817   34.9396 C.3     1  UNL1        0.0758
     11 C           4.5016    0.2704   34.3281 C.3     1  UNL1        0.1106
     12 C           6.5504   -3.9391   31.7622 C.3     1  UNL1        0.1147
     13 C           8.4371   -5.5476   29.1744 C.2     1  UNL1        0.2551
     14 O           8.8655   -6.7829   28.4393 O.2     1  UNL1       -0.2694
     15 N           8.3884   -5.5460   30.6737 N.am    1  UNL1       -0.2738
     16 C           8.7682   -6.7796   31.4377 C.3     1  UNL1        0.1152
     17 C           6.8066   -2.7200   27.0740 C.ar    1  UNL1        0.0296
     18 C           8.1393   -2.1110   27.3950 C.ar    1  UNL1        0.0071
     19 C           8.9123   -3.0961   28.2210 C.ar    1  UNL1        0.0115
     20 C           8.0574   -4.3139   28.4104 C.ar    1  UNL1        0.0830
     21 S           6.7560   -4.0815   27.7015 S.2     1  UNL1       -0.0824
     22 C           3.5350   -0.7999   24.6534 C.ar    1  UNL1       -0.0222
     23 C           4.5557   -1.6681   23.9794 C.ar    1  UNL1       -0.0043
     24 C           5.6463   -2.3081   24.7862 C.ar    1  UNL1        0.0002
     25 C           5.7161   -2.0800   26.2671 C.ar    1  UNL1        0.0060
     26 C           4.6954   -1.2118   26.9411 C.ar    1  UNL1        0.0002
     27 C           3.6048   -0.5717   26.1343 C.ar    1  UNL1       -0.0043
     28 C           2.5094   -0.1805   22.3481 C.3     1  UNL1        0.0050
     29 C           2.4444   -0.1598   23.8465 C.3     1  UNL1        0.0264
     30 N           4.4243    2.5989   35.6384 N.3     1  UNL1       -0.2982
     31 H           3.9150    3.1159   34.9217 H       1  UNL1        0.1232
     32 C           3.4434    2.2931   36.7312 C.3     1  UNL1        0.0540
     33 C           2.3417    3.2622   37.0429 C.3     1  UNL1        0.0157
     34 C           1.3607    2.9564   38.1357 C.3     1  UNL1        0.0014
     35 C           1.4815    1.6816   38.9168 C.3     1  UNL1        0.0001
     36 C           1.1836    0.6146   39.9281 C.3     1  UNL1        0.0000
     37 C           0.2763    2.2801   39.5797 C.3     1  UNL1        0.0000
     38 C           2.5831    0.7125   38.6051 C.3     1  UNL1        0.0014
     39 C           3.5641    1.0183   37.5123 C.3     1  UNL1        0.0157
@<TRIPOS>BOND
     1    28    29    1
     2    29    22    1
     3    22    23   ar
     4    23    24   ar
     5    24    25   ar
     6    25    17    1
     7    17    18   ar
     8    18    19   ar
     9    19    20   ar
    10    20    13    1
    11    13    14    2
    12    13    15   am
    13    15    16    1
    14     1    15    1
    15     1     2    1
    16     2     3    1
    17     3     4    1
    18     4     5   am
    19     5     6    2
    20     5     7   am
    21     7     8    1
    22     8     9    1
    23     9    10    1
    24    10    30    1
    25    30    32    1
    26    32    33    1
    27    33    34    1
    28    34    35    1
    29    35    36    1
    30    35    37    1
    31    35    38    1
    32    38    39    1
    33    10    11    1
    34     4    12    1
    35    20    21   ar
    36    25    26   ar
    37    26    27   ar
    38    27    22   ar
    39    21    17   ar
    40    12     1    1
    41    11     7    1
    42    39    32    1
    43    30    31    1
@<TRIPOS>MOLECULE
*****
 39 43 0 0 0
SMALL
GASTEIGER

@<TRIPOS>ATOM
      1 C           7.8865   -2.9965   21.0509 C.3     1  UNL1        0.0972
      2 C           7.1148   -4.1634   21.5918 C.3     1  UNL1        0.0431
      3 C           7.2031   -4.1239   23.0887 C.3     1  UNL1        0.0968
      4 N           8.0294   -2.9325   23.4730 N.am    1  UNL1       -0.2623
      5 C           8.3731   -2.5117   24.8711 C.2     1  UNL1        0.3073
      6 O           9.2133   -1.2906   25.1017 O.2     1  UNL1       -0.2523
      7 N           7.8766   -3.3119   26.0386 N.am    1  UNL1       -0.2626
      8 C           7.0318   -4.5491   25.9640 C.3     1  UNL1        0.0964
      9 C           6.7708   -5.0173   27.3650 C.3     1  UNL1        0.0390
     10 C           7.4542   -4.0694   28.3054 C.3     1  UNL1        0.0758
     11 C           8.1377   -3.0154   27.4856 C.3     1  UNL1        0.1106
     12 C           8.4518   -2.2357   22.2136 C.3     1  UNL1        0.1147
     13 C           6.8800   -2.2208   18.7848 C.2     1  UNL1        0.2551
     14 O           7.0556   -1.8753   17.3358 O.2     1  UNL1       -0.2694
     15 N           8.0621   -2.6509   19.6019 N.am    1  UNL1       -0.2738
     16 C           9.4197   -2.7355   18.9699 C.3     1  UNL1        0.1152
     17 C           3.6403   -1.3828   20.7514 C.ar    1  UNL1        0.0296
     18 C           3.2255   -2.6291   20.0272 C.ar    1  UNL1        0.0071
     19 C           4.3886   -3.0948   19.2023 C.ar    1  UNL1        0.0115
     20 C           5.5222   -2.1362   19.4168 C.ar    1  UNL1        0.0830
     21 S           5.0597   -1.0781   20.3742 S.2     1  UNL1       -0.0824
     22 C           1.0765    1.0204   23.5624 C.ar    1  UNL1       -0.0222
     23 C           2.1991    0.1839   24.1008 C.ar    1  UNL1       -0.0043
     24 C           3.0537   -0.6171   23.1638 C.ar    1  UNL1        0.0002
     25 C           2.7857   -0.5817   21.6884 C.ar    1  UNL1        0.0060
     26 C           1.6630    0.2547   21.1500 C.ar    1  UNL1        0.0002
     27 C           0.8084    1.0558   22.0870 C.ar    1  UNL1       -0.0043
     28 C          -0.0450    1.3181   25.8870 C.3     1  UNL1        0.0050
     29 C           0.2218    1.8215   24.4994 C.3     1  UNL1        0.0264
     30 N           7.4543   -4.1597   29.8027 N.3     1  UNL1       -0.2982
     31 H           8.4087   -3.9711   30.1090 H       1  UNL1        0.1232
     32 C           6.5568   -3.2674   30.6078 C.3     1  UNL1        0.0540
     33 C           6.3318   -3.5471   32.0643 C.3     1  UNL1        0.0157
     34 C           5.4343   -2.6548   32.8694 C.3     1  UNL1        0.0014
     35 C           4.7618   -1.4828   32.2181 C.3     1  UNL1        0.0001
     36 C           3.9082   -0.2605   32.0528 C.3     1  UNL1        0.0000
     37 C           4.2404   -1.3380   33.6172 C.3     1  UNL1        0.0000
     38 C           4.9867   -1.2031   30.7618 C.3     1  UNL1        0.0014
     39 C           5.8842   -2.0954   29.9565 C.3     1  UNL1        0.0157
@<TRIPOS>BOND
     1    28    29    1
     2    29    22    1
     3    22    23   ar
     4    23    24   ar
     5    24    25   ar
     6    25    17    1
     7    17    18   ar
     8    18    19   ar
     9    19    20   ar
    10    20    13    1
    11    13    14    2
    12    13    15   am
    13    15    16    1
    14     1    15    1
    15     1     2    1
    16     2     3    1
    17     3     4    1
    18     4     5   am
    19     5     6    2
    20     5     7   am
    21     7     8    1
    22     8     9    1
    23     9    10    1
    24    10    30    1
    25    30    32    1
    26    32    33    1
    27    33    34    1
    28    34    35    1
    29    35    36    1
    30    35    37    1
    31    35    38    1
    32    38    39    1
    33    10    11    1
    34     4    12    1
    35    20    21   ar
    36    25    26   ar
    37    26    27   ar
    38    27    22   ar
    39    21    17   ar
    40    12     1    1
    41    11     7    1
    42    39    32    1
    43    30    31    1
@<TRIPOS>MOLECULE
*****
 39 43 0 0 0
SMALL
GASTEIGER

@<TRIPOS>ATOM
      1 C          -0.4529    2.8719   25.3030 C.3     1  UNL1        0.0972
      2 C           0.9060    3.4081   25.6437 C.3     1  UNL1        0.0431
      3 C           1.4510    2.5995   26.7835 C.3     1  UNL1        0.0968
      4 N           0.4290    1.5636   27.1474 N.am    1  UNL1       -0.2623
      5 C           0.5605    0.5392   28.2352 C.2     1  UNL1        0.3073
      6 O          -0.5506   -0.4373   28.4840 O.2     1  UNL1       -0.2523
      7 N           1.8030    0.4914   29.0741 N.am    1  UNL1       -0.2626
      8 C           2.9908    1.3979   28.9428 C.3     1  UNL1        0.0964
      9 C           3.9978    0.9954   29.9792 C.3     1  UNL1        0.0390
     10 C           3.4323   -0.1599   30.7509 C.3     1  UNL1        0.0758
     11 C           2.0758   -0.4714   30.1915 C.3     1  UNL1        0.1106
     12 C          -0.7477    1.7319   26.2324 C.3     1  UNL1        0.1147
     13 C          -0.9557    3.2573   22.7834 C.2     1  UNL1        0.2551
     14 O          -1.8608    3.7708   21.7031 O.2     1  UNL1       -0.2694
     15 N          -1.3580    3.3855   24.2228 N.am    1  UNL1       -0.2738
     16 C          -2.6653    4.0272   24.5818 C.3     1  UNL1        0.1152
     17 C           2.0183    0.9662   21.7975 C.ar    1  UNL1        0.0296
     18 C           2.7086    2.2897   21.9458 C.ar    1  UNL1        0.0071
     19 C           1.6786    3.3090   22.3331 C.ar    1  UNL1        0.0115
     20 C           0.3517    2.6155   22.4243 C.ar    1  UNL1        0.0830
     21 S           0.5616    1.1677   22.0932 S.2     1  UNL1       -0.0824
     22 C           3.9739   -2.9250   20.6645 C.ar    1  UNL1       -0.0222
     23 C           4.1144   -2.3934   22.0600 C.ar    1  UNL1       -0.0043
     24 C           3.4626   -1.0963   22.4377 C.ar    1  UNL1        0.0002
     25 C           2.6702   -0.3308   21.4198 C.ar    1  UNL1        0.0060
     26 C           2.5297   -0.8624   20.0243 C.ar    1  UNL1        0.0002
     27 C           3.1816   -2.1595   19.6466 C.ar    1  UNL1       -0.0043
     28 C           4.3512   -4.8372   18.9466 C.3     1  UNL1        0.0050
     29 C           4.6258   -4.2221   20.2868 C.3     1  UNL1        0.0264
     30 N           4.1052   -0.8776   31.8832 N.3     1  UNL1       -0.2982
     31 H           5.0809   -1.0033   31.6138 H       1  UNL1        0.1232
     32 C           4.1095   -0.2743   33.2565 C.3     1  UNL1        0.0540
     33 C           3.4406    1.0465   33.4976 C.3     1  UNL1        0.0157
     34 C           3.4450    1.6498   34.8709 C.3     1  UNL1        0.0014
     35 C           4.1182    0.9323   36.0032 C.3     1  UNL1        0.0001
     36 C           4.6196    0.6381   37.3859 C.3     1  UNL1        0.0000
     37 C           3.6234    2.1509   36.7244 C.3     1  UNL1        0.0000
     38 C           4.7871   -0.3884   35.7621 C.3     1  UNL1        0.0014
     39 C           4.7828   -0.9918   34.3887 C.3     1  UNL1        0.0157
@<TRIPOS>BOND
     1    28    29    1
     2    29    22    1
     3    22    23   ar
     4    23    24   ar
     5    24    25   ar
     6    25    17    1
     7    17    18   ar
     8    18    19   ar
     9    19    20   ar
    10    20    13    1
    11    13    14    2
    12    13    15   am
    13    15    16    1
    14     1    15    1
    15     1     2    1
    16     2     3    1
    17     3     4    1
    18     4     5   am
    19     5     6    2
    20     5     7   am
    21     7     8    1
    22     8     9    1
    23     9    10    1
    24    10    30    1
    25    30    32    1
    26    32    33    1
    27    33    34    1
    28    34    35    1
    29    35    36    1
    30    35    37    1
    31    35    38    1
    32    38    39    1
    33    10    11    1
    34     4    12    1
    35    20    21   ar
    36    25    26   ar
    37    26    27   ar
    38    27    22   ar
    39    21    17   ar
    40    12     1    1
    41    11     7    1
    42    39    32    1
    43    30    31    1
@<TRIPOS>MOLECULE
*****
 39 43 0 0 0
SMALL
GASTEIGER

@<TRIPOS>ATOM
      1 C          -0.4207    2.9483   25.6334 C.3     1  UNL1        0.0972
      2 C           0.9207    3.5668   25.8942 C.3     1  UNL1        0.0431
      3 C           1.6048    2.7592   26.9571 C.3     1  UNL1        0.0968
      4 N           0.6862    1.6416   27.3534 N.am    1  UNL1       -0.2623
      5 C           0.9696    0.5915   28.3863 C.2     1  UNL1        0.3073
      6 O          -0.0504   -0.4692   28.6770 O.2     1  UNL1       -0.2523
      7 N           2.2731    0.6022   29.1285 N.am    1  UNL1       -0.2626
      8 C           3.3832    1.5944   28.9465 C.3     1  UNL1        0.0964
      9 C           4.4914    1.2279   29.8887 C.3     1  UNL1        0.0390
     10 C           4.0662    0.0092   30.6529 C.3     1  UNL1        0.0758
     11 C           2.6952   -0.3775   30.1831 C.3     1  UNL1        0.1106
     12 C          -0.5656    1.7584   26.5353 C.3     1  UNL1        0.1147
     13 C          -1.1647    3.3293   23.1735 C.2     1  UNL1        0.2551
     14 O          -2.1824    3.8152   22.1846 O.2     1  UNL1       -0.2694
     15 N          -1.4385    3.4342   24.6445 N.am    1  UNL1       -0.2738
     16 C          -2.7301    4.0251   25.1266 C.3     1  UNL1        0.1152
     17 C           1.8028    1.1470   21.9497 C.ar    1  UNL1        0.0296
     18 C           2.4265    2.5111   21.9489 C.ar    1  UNL1        0.0071
     19 C           1.3908    3.4947   22.4072 C.ar    1  UNL1        0.0115
     20 C           0.1270    2.7384   22.6913 C.ar    1  UNL1        0.0830
     21 S           0.3816    1.2874   22.4086 S.2     1  UNL1       -0.0824
     22 C           3.8378   -2.6927   20.7810 C.ar    1  UNL1       -0.0222
     23 C           3.0228   -1.9386   19.7725 C.ar    1  UNL1       -0.0043
     24 C           2.3445   -0.6587   20.1620 C.ar    1  UNL1        0.0002
     25 C           2.4811   -0.1329   21.5602 C.ar    1  UNL1        0.0060
     26 C           3.2960   -0.8870   22.5687 C.ar    1  UNL1        0.0002
     27 C           3.9743   -2.1669   22.1792 C.ar    1  UNL1       -0.0043
     28 C           4.1365   -4.6644   19.1158 C.3     1  UNL1        0.0050
     29 C           4.5161   -3.9726   20.3915 C.3     1  UNL1        0.0264
     30 N           4.8708   -0.6985   31.7025 N.3     1  UNL1       -0.2982
     31 H           4.2351   -0.9011   32.4740 H       1  UNL1        0.1232
     32 C           5.5724   -1.9822   31.3710 C.3     1  UNL1        0.0540
     33 C           5.8362   -2.9925   32.4479 C.3     1  UNL1        0.0157
     34 C           6.5378   -4.2762   32.1164 C.3     1  UNL1        0.0014
     35 C           6.9756   -4.5495   30.7080 C.3     1  UNL1        0.0001
     36 C           7.5776   -5.2595   29.5318 C.3     1  UNL1        0.0000
     37 C           7.4484   -5.8064   31.3765 C.3     1  UNL1        0.0000
     38 C           6.7118   -3.5393   29.6312 C.3     1  UNL1        0.0014
     39 C           6.0102   -2.2555   29.9626 C.3     1  UNL1        0.0157
@<TRIPOS>BOND
     1    28    29    1
     2    29    22    1
     3    22    23   ar
     4    23    24   ar
     5    24    25   ar
     6    25    17    1
     7    17    18   ar
     8    18    19   ar
     9    19    20   ar
    10    20    13    1
    11    13    14    2
    12    13    15   am
    13    15    16    1
    14     1    15    1
    15     1     2    1
    16     2     3    1
    17     3     4    1
    18     4     5   am
    19     5     6    2
    20     5     7   am
    21     7     8    1
    22     8     9    1
    23     9    10    1
    24    10    30    1
    25    30    32    1
    26    32    33    1
    27    33    34    1
    28    34    35    1
    29    35    36    1
    30    35    37    1
    31    35    38    1
    32    38    39    1
    33    10    11    1
    34     4    12    1
    35    20    21   ar
    36    25    26   ar
    37    26    27   ar
    38    27    22   ar
    39    21    17   ar
    40    12     1    1
    41    11     7    1
    42    39    32    1
    43    30    31    1
@<TRIPOS>MOLECULE
*****
 39 43 0 0 0
SMALL
GASTEIGER

@<TRIPOS>ATOM
      1 C           5.1658   -0.8450   34.2029 C.3     1  UNL1        0.0972
      2 C           4.4209   -2.0110   33.6237 C.3     1  UNL1        0.0431
      3 C           5.3754   -2.7939   32.7717 C.3     1  UNL1        0.0968
      4 N           6.7103   -2.1119   32.8244 N.am    1  UNL1       -0.2623
      5 C           7.9560   -2.5563   32.1168 C.2     1  UNL1        0.3073
      6 O           9.2240   -1.7687   32.2646 O.2     1  UNL1       -0.2523
      7 N           7.9337   -3.7882   31.2613 N.am    1  UNL1       -0.2626
      8 C           6.7464   -4.6725   31.0200 C.3     1  UNL1        0.0964
      9 C           7.1737   -5.7830   30.1065 C.3     1  UNL1        0.0390
     10 C           8.6250   -5.5849   29.7833 C.3     1  UNL1        0.0758
     11 C           9.0947   -4.3521   30.4970 C.3     1  UNL1        0.1106
     12 C           6.5808   -0.9074   33.7089 C.3     1  UNL1        0.1147
     13 C           3.9863    1.4448   34.5428 C.2     1  UNL1        0.2551
     14 O           3.4164    2.4897   35.4557 O.2     1  UNL1       -0.2694
     15 N           4.5959    0.1998   35.1159 N.am    1  UNL1       -0.2738
     16 C           4.6357   -0.0002   36.6019 C.3     1  UNL1        0.1152
     17 C           3.1665    1.7388   30.7603 C.ar    1  UNL1        0.0296
     18 C           4.6040    2.1669   30.7795 C.ar    1  UNL1        0.0071
     19 C           5.0861    2.1089   32.1987 C.ar    1  UNL1        0.0115
     20 C           3.9465    1.6449   33.0567 C.ar    1  UNL1        0.0830
     21 S           2.7602    1.4162   32.1677 S.2     1  UNL1       -0.0824
     22 C           0.5351    1.4695   27.1198 C.ar    1  UNL1       -0.0222
     23 C          -0.0719    1.7312   28.4663 C.ar    1  UNL1       -0.0043
     24 C           0.8053    1.8210   29.6798 C.ar    1  UNL1        0.0002
     25 C           2.2894    1.6490   29.5468 C.ar    1  UNL1        0.0060
     26 C           2.8964    1.3874   28.2004 C.ar    1  UNL1        0.0002
     27 C           2.0193    1.2976   26.9869 C.ar    1  UNL1       -0.0043
     28 C          -1.2529    2.5180   25.5535 C.3     1  UNL1        0.0050
     29 C          -0.3420    1.3798   25.9063 C.3     1  UNL1        0.0264
     30 N           9.4599   -6.4651   28.9012 N.3     1  UNL1       -0.2982
     31 H           9.3334   -7.4208   29.2345 H       1  UNL1        0.1232
     32 C           9.2198   -6.4874   27.4208 C.3     1  UNL1        0.0540
     33 C           8.7031   -5.2624   26.7263 C.3     1  UNL1        0.0157
     34 C           8.4629   -5.2846   25.2458 C.3     1  UNL1        0.0014
     35 C           8.7395   -6.5319   24.4598 C.3     1  UNL1        0.0001
     36 C           8.8500   -7.4664   23.2917 C.3     1  UNL1        0.0000
     37 C           8.2612   -5.6314   23.3597 C.3     1  UNL1        0.0000
     38 C           9.2562   -7.7569   25.1542 C.3     1  UNL1        0.0014
     39 C           9.4964   -7.7347   26.6348 C.3     1  UNL1        0.0157
@<TRIPOS>BOND
     1    28    29    1
     2    29    22    1
     3    22    23   ar
     4    23    24   ar
     5    24    25   ar
     6    25    17    1
     7    17    18   ar
     8    18    19   ar
     9    19    20   ar
    10    20    13    1
    11    13    14    2
    12    13    15   am
    13    15    16    1
    14     1    15    1
    15     1     2    1
    16     2     3    1
    17     3     4    1
    18     4     5   am
    19     5     6    2
    20     5     7   am
    21     7     8    1
    22     8     9    1
    23     9    10    1
    24    10    30    1
    25    30    32    1
    26    32    33    1
    27    33    34    1
    28    34    35    1
    29    35    36    1
    30    35    37    1
    31    35    38    1
    32    38    39    1
    33    10    11    1
    34     4    12    1
    35    20    21   ar
    36    25    26   ar
    37    26    27   ar
    38    27    22   ar
    39    21    17   ar
    40    12     1    1
    41    11     7    1
    42    39    32    1
    43    30    31    1
@<TRIPOS>MOLECULE
*****
 39 43 0 0 0
SMALL
GASTEIGER

@<TRIPOS>ATOM
      1 C           1.3009    5.0942   21.3739 C.3     1  UNL1        0.0972
      2 C          -0.0497    4.7663   21.9379 C.3     1  UNL1        0.0431
      3 C           0.1490    3.8785   23.1306 C.3     1  UNL1        0.0968
      4 N           1.6225    3.6577   23.3036 N.am    1  UNL1       -0.2623
      5 C           2.2704    2.8308   24.3743 C.2     1  UNL1        0.3073
      6 O           3.7641    2.7012   24.4211 O.2     1  UNL1       -0.2523
      7 N           1.4246    2.1334   25.3981 N.am    1  UNL1       -0.2626
      8 C          -0.0728    2.1702   25.4779 C.3     1  UNL1        0.0964
      9 C          -0.4951    1.3363   26.6511 C.3     1  UNL1        0.0390
     10 C           0.7413    0.7840   27.2963 C.3     1  UNL1        0.0758
     11 C           1.9278    1.2767   26.5220 C.3     1  UNL1        0.1106
     12 C           2.3345    4.4090   22.2179 C.3     1  UNL1        0.1147
     13 C           1.6930    5.3337   18.8167 C.2     1  UNL1        0.2551
     14 O           1.9628    6.1954   17.6190 O.2     1  UNL1       -0.2694
     15 N           1.5707    5.9559   20.1761 N.am    1  UNL1       -0.2738
     16 C           1.7182    7.4398   20.3377 C.3     1  UNL1        0.1152
     17 C           2.0495    1.4779   18.5491 C.ar    1  UNL1        0.0296
     18 C           0.5876    1.6543   18.2636 C.ar    1  UNL1        0.0071
     19 C           0.2760    3.1202   18.3291 C.ar    1  UNL1        0.0115
     20 C           1.5455    3.8497   18.6551 C.ar    1  UNL1        0.0830
     21 S           2.6415    2.8347   18.7911 S.2     1  UNL1       -0.0824
     22 C           4.2696   -2.4348   18.6603 C.ar    1  UNL1       -0.0222
     23 C           3.2397   -2.1268   19.7064 C.ar    1  UNL1       -0.0043
     24 C           2.4997   -0.8226   19.6694 C.ar    1  UNL1        0.0002
     25 C           2.7896    0.1737   18.5862 C.ar    1  UNL1        0.0060
     26 C           3.8195   -0.1342   17.5400 C.ar    1  UNL1        0.0002
     27 C           4.5595   -1.4385   17.5771 C.ar    1  UNL1       -0.0043
     28 C           4.2653   -5.0167   18.9491 C.3     1  UNL1        0.0050
     29 C           5.0096   -3.7390   18.6973 C.3     1  UNL1        0.0264
     30 N           0.7837   -0.1047   28.5038 N.3     1  UNL1       -0.2982
     31 H           1.3837   -0.8949   28.2669 H       1  UNL1        0.1232
     32 C           1.2748    0.4341   29.8148 C.3     1  UNL1        0.0540
     33 C           0.6101    1.6294   30.4307 C.3     1  UNL1        0.0157
     34 C           1.1012    2.1682   31.7416 C.3     1  UNL1        0.0014
     35 C           2.2570    1.5117   32.4366 C.3     1  UNL1        0.0001
     36 C           3.3088    1.2373   33.4702 C.3     1  UNL1        0.0000
     37 C           1.9575    2.6117   33.4114 C.3     1  UNL1        0.0000
     38 C           2.9217    0.3165   31.8207 C.3     1  UNL1        0.0014
     39 C           2.4307   -0.2224   30.5097 C.3     1  UNL1        0.0157
@<TRIPOS>BOND
     1    28    29    1
     2    29    22    1
     3    22    23   ar
     4    23    24   ar
     5    24    25   ar
     6    25    17    1
     7    17    18   ar
     8    18    19   ar
     9    19    20   ar
    10    20    13    1
    11    13    14    2
    12    13    15   am
    13    15    16    1
    14     1    15    1
    15     1     2    1
    16     2     3    1
    17     3     4    1
    18     4     5   am
    19     5     6    2
    20     5     7   am
    21     7     8    1
    22     8     9    1
    23     9    10    1
    24    10    30    1
    25    30    32    1
    26    32    33    1
    27    33    34    1
    28    34    35    1
    29    35    36    1
    30    35    37    1
    31    35    38    1
    32    38    39    1
    33    10    11    1
    34     4    12    1
    35    20    21   ar
    36    25    26   ar
    37    26    27   ar
    38    27    22   ar
    39    21    17   ar
    40    12     1    1
    41    11     7    1
    42    39    32    1
    43    30    31    1
@<TRIPOS>MOLECULE
*****
 39 43 0 0 0
SMALL
GASTEIGER

@<TRIPOS>ATOM
      1 C           3.2339    2.0965   32.0463 C.3     1  UNL1        0.0972
      2 C           4.4089    2.0668   31.1143 C.3     1  UNL1        0.0431
      3 C           5.0572    0.7190   31.2286 C.3     1  UNL1        0.0968
      4 N           4.2830   -0.0843   32.2312 N.am    1  UNL1       -0.2623
      5 C           4.5828   -1.4918   32.6542 C.2     1  UNL1        0.3073
      6 O           3.7152   -2.1699   33.6728 O.2     1  UNL1       -0.2523
      7 N           5.7503   -2.2213   32.0586 N.am    1  UNL1       -0.2626
      8 C           6.7017   -1.6759   31.0351 C.3     1  UNL1        0.0964
      9 C           7.7108   -2.7419   30.7259 C.3     1  UNL1        0.0390
     10 C           7.3831   -3.9460   31.5582 C.3     1  UNL1        0.0758
     11 C           6.1714   -3.6243   32.3818 C.3     1  UNL1        0.1106
     12 C           3.1561    0.7670   32.7366 C.3     1  UNL1        0.1147
     13 C           1.1334    3.4475   31.3301 C.2     1  UNL1        0.2551
     14 O           0.2002    4.6036   31.5357 O.2     1  UNL1       -0.2694
     15 N           2.3007    3.2527   32.2519 N.am    1  UNL1       -0.2738
     16 C           2.5346    4.2141   33.3792 C.3     1  UNL1        0.1152
     17 C           0.9575    1.4350   28.0158 C.ar    1  UNL1        0.0296
     18 C           0.1213    0.5785   28.9198 C.ar    1  UNL1        0.0071
     19 C           0.0854    1.2281   30.2714 C.ar    1  UNL1        0.0115
     20 C           0.8995    2.4861   30.2027 C.ar    1  UNL1        0.0830
     21 S           1.4384    2.6140   28.8088 S.2     1  UNL1       -0.0824
     22 C           1.8642    0.6122   23.6856 C.ar    1  UNL1       -0.0222
     23 C           0.5623    1.2494   24.0713 C.ar    1  UNL1       -0.0043
     24 C           0.2601    1.5237   25.5147 C.ar    1  UNL1        0.0002
     25 C           1.2598    1.1607   26.5724 C.ar    1  UNL1        0.0060
     26 C           2.5617    0.5235   26.1867 C.ar    1  UNL1        0.0002
     27 C           2.8639    0.2492   24.7433 C.ar    1  UNL1       -0.0043
     28 C           2.9079   -0.9071   21.8546 C.3     1  UNL1        0.0050
     29 C           2.1665    0.3379   22.2422 C.3     1  UNL1        0.0264
     30 N           8.1350   -5.2439   31.5655 N.3     1  UNL1       -0.2982
     31 H           7.6738   -5.8475   32.2462 H       1  UNL1        0.1232
     32 C           8.2690   -6.0401   30.3013 C.3     1  UNL1        0.0540
     33 C           7.2789   -5.8550   29.1898 C.3     1  UNL1        0.0157
     34 C           7.4129   -6.6512   27.9257 C.3     1  UNL1        0.0014
     35 C           8.5371   -7.6325   27.7731 C.3     1  UNL1        0.0001
     36 C           9.4244   -8.6753   27.1605 C.3     1  UNL1        0.0000
     37 C           7.8551   -7.8096   26.4489 C.3     1  UNL1        0.0000
     38 C           9.5272   -7.8176   28.8845 C.3     1  UNL1        0.0014
     39 C           9.3932   -7.0213   30.1487 C.3     1  UNL1        0.0157
@<TRIPOS>BOND
     1    28    29    1
     2    29    22    1
     3    22    23   ar
     4    23    24   ar
     5    24    25   ar
     6    25    17    1
     7    17    18   ar
     8    18    19   ar
     9    19    20   ar
    10    20    13    1
    11    13    14    2
    12    13    15   am
    13    15    16    1
    14     1    15    1
    15     1     2    1
    16     2     3    1
    17     3     4    1
    18     4     5   am
    19     5     6    2
    20     5     7   am
    21     7     8    1
    22     8     9    1
    23     9    10    1
    24    10    30    1
    25    30    32    1
    26    32    33    1
    27    33    34    1
    28    34    35    1
    29    35    36    1
    30    35    37    1
    31    35    38    1
    32    38    39    1
    33    10    11    1
    34     4    12    1
    35    20    21   ar
    36    25    26   ar
    37    26    27   ar
    38    27    22   ar
    39    21    17   ar
    40    12     1    1
    41    11     7    1
    42    39    32    1
    43    30    31    1
@<TRIPOS>MOLECULE
*****
 39 43 0 0 0
SMALL
GASTEIGER

@<TRIPOS>ATOM
      1 C           3.6009   -0.1289   30.3075 C.3     1  UNL1        0.0972
      2 C           3.7962    1.3353   30.0470 C.3     1  UNL1        0.0431
      3 C           2.5744    1.8481   29.3439 C.3     1  UNL1        0.0968
      4 N           1.6239    0.7008   29.1699 N.am    1  UNL1       -0.2623
      5 C           0.2758    0.7642   28.5153 C.2     1  UNL1        0.3073
      6 O          -0.5674   -0.4722   28.4136 O.2     1  UNL1       -0.2523
      7 N          -0.2291    2.0639   27.9624 N.am    1  UNL1       -0.2626
      8 C           0.4977    3.3758   27.9907 C.3     1  UNL1        0.0964
      9 C          -0.3735    4.4027   27.3299 C.3     1  UNL1        0.0390
     10 C          -1.6387    3.7254   26.8933 C.3     1  UNL1        0.0758
     11 C          -1.5494    2.2800   27.2842 C.3     1  UNL1        0.1106
     12 C           2.2583   -0.5211   29.7654 C.3     1  UNL1        0.1147
     13 C           5.6892   -1.6712   30.2059 C.2     1  UNL1        0.2551
     14 O           6.6650   -2.5831   30.8886 O.2     1  UNL1       -0.2694
     15 N           4.5767   -1.0408   30.9902 N.am    1  UNL1       -0.2738
     16 C           4.4401   -1.3225   32.4571 C.3     1  UNL1        0.1152
     17 C           5.6570   -1.5844   26.3256 C.ar    1  UNL1        0.0296
     18 C           6.4152   -0.3282   26.6373 C.ar    1  UNL1        0.0071
     19 C           6.5195   -0.2078   28.1289 C.ar    1  UNL1        0.0115
     20 C           5.8258   -1.3896   28.7389 C.ar    1  UNL1        0.0830
     21 S           5.2928   -2.2403   27.6244 S.2     1  UNL1       -0.0824
     22 C           4.6517   -3.1161   22.2154 C.ar    1  UNL1       -0.0222
     23 C           5.7393   -3.7707   23.0145 C.ar    1  UNL1       -0.0043
     24 C           6.0744   -3.2602   24.3846 C.ar    1  UNL1        0.0002
     25 C           5.3219   -2.0950   24.9555 C.ar    1  UNL1        0.0060
     26 C           4.2343   -1.4403   24.1564 C.ar    1  UNL1        0.0002
     27 C           3.8992   -1.9509   22.7864 C.ar    1  UNL1       -0.0043
     28 C           3.6243   -2.7322   19.8602 C.3     1  UNL1        0.0050
     29 C           4.3166   -3.6267   20.8454 C.3     1  UNL1        0.0264
     30 N          -2.7908    4.3790   26.1893 N.3     1  UNL1       -0.2982
     31 H          -2.6366    5.3857   26.2442 H       1  UNL1        0.1232
     32 C          -3.0679    4.0612   24.7498 C.3     1  UNL1        0.0540
     33 C          -1.9724    4.1775   23.7317 C.3     1  UNL1        0.0157
     34 C          -2.2496    3.8598   22.2922 C.3     1  UNL1        0.0014
     35 C          -3.6221    3.4257   21.8708 C.3     1  UNL1        0.0001
     36 C          -4.7503    2.9780   20.9894 C.3     1  UNL1        0.0000
     37 C          -2.9184    3.3865   20.5467 C.3     1  UNL1        0.0000
     38 C          -4.7175    3.3093   22.8888 C.3     1  UNL1        0.0014
     39 C          -4.4404    3.6271   24.3284 C.3     1  UNL1        0.0157
@<TRIPOS>BOND
     1    28    29    1
     2    29    22    1
     3    22    23   ar
     4    23    24   ar
     5    24    25   ar
     6    25    17    1
     7    17    18   ar
     8    18    19   ar
     9    19    20   ar
    10    20    13    1
    11    13    14    2
    12    13    15   am
    13    15    16    1
    14     1    15    1
    15     1     2    1
    16     2     3    1
    17     3     4    1
    18     4     5   am
    19     5     6    2
    20     5     7   am
    21     7     8    1
    22     8     9    1
    23     9    10    1
    24    10    30    1
    25    30    32    1
    26    32    33    1
    27    33    34    1
    28    34    35    1
    29    35    36    1
    30    35    37    1
    31    35    38    1
    32    38    39    1
    33    10    11    1
    34     4    12    1
    35    20    21   ar
    36    25    26   ar
    37    26    27   ar
    38    27    22   ar
    39    21    17   ar
    40    12     1    1
    41    11     7    1
    42    39    32    1
    43    30    31    1
@<TRIPOS>MOLECULE
*****
 39 43 0 0 0
SMALL
GASTEIGER

@<TRIPOS>ATOM
      1 C           0.9839    2.7253   24.7233 C.3     1  UNL1        0.0972
      2 C           0.5315    1.4432   24.0896 C.3     1  UNL1        0.0431
      3 C           1.7417    0.5869   23.8609 C.3     1  UNL1        0.0968
      4 N           2.9420    1.3398   24.3532 N.am    1  UNL1       -0.2623
      5 C           4.3615    0.8561   24.3187 C.2     1  UNL1        0.3073
      6 O           5.4629    1.7246   24.8502 O.2     1  UNL1       -0.2523
      7 N           4.6794   -0.4960   23.7525 N.am    1  UNL1       -0.2626
      8 C           3.6888   -1.4705   23.1877 C.3     1  UNL1        0.0964
      9 C           4.4410   -2.6879   22.7379 C.3     1  UNL1        0.0390
     10 C           5.8965   -2.4658   23.0248 C.3     1  UNL1        0.0758
     11 C           6.0438   -1.1111   23.6519 C.3     1  UNL1        0.1106
     12 C           2.4737    2.6614   24.8863 C.3     1  UNL1        0.1147
     13 C          -0.5225    3.8949   26.4877 C.2     1  UNL1        0.2551
     14 O          -1.4049    5.0398   26.8882 O.2     1  UNL1       -0.2694
     15 N           0.1014    3.8702   25.1238 N.am    1  UNL1       -0.2738
     16 C          -0.1572    4.9904   24.1605 C.3     1  UNL1        0.1152
     17 C           0.7314    1.4178   29.2001 C.ar    1  UNL1        0.0296
     18 C          -0.4633    0.6838   28.6673 C.ar    1  UNL1        0.0071
     19 C          -1.0784    1.5223   27.5864 C.ar    1  UNL1        0.0115
     20 C          -0.2639    2.7746   27.4511 C.ar    1  UNL1        0.0830
     21 S           0.8546    2.7100   28.4485 S.2     1  UNL1       -0.0824
     22 C           3.4657   -0.0067   32.4780 C.ar    1  UNL1       -0.0222
     23 C           3.3376   -0.7991   31.2109 C.ar    1  UNL1       -0.0043
     24 C           2.4262   -0.3242   30.1183 C.ar    1  UNL1        0.0002
     25 C           1.6428    0.9429   30.2928 C.ar    1  UNL1        0.0060
     26 C           1.7709    1.7353   31.5599 C.ar    1  UNL1        0.0002
     27 C           2.6823    1.2605   32.6525 C.ar    1  UNL1       -0.0043
     28 C           4.2696   -1.8888   34.0784 C.3     1  UNL1        0.0050
     29 C           4.3771   -0.4815   33.5707 C.3     1  UNL1        0.0264
     30 N           7.0092   -3.4292   22.7355 N.3     1  UNL1       -0.2982
     31 H           7.8612   -2.8759   22.6435 H       1  UNL1        0.1232
     32 C           7.3135   -4.5356   23.7015 C.3     1  UNL1        0.0540
     33 C           8.1836   -5.6820   23.2790 C.3     1  UNL1        0.0157
     34 C           8.4879   -6.7884   24.2450 C.3     1  UNL1        0.0014
     35 C           7.9221   -6.7484   25.6336 C.3     1  UNL1        0.0001
     36 C           7.6223   -7.1557   27.0458 C.3     1  UNL1        0.0000
     37 C           8.6881   -8.0363   25.7014 C.3     1  UNL1        0.0000
     38 C           7.0520   -5.6020   26.0561 C.3     1  UNL1        0.0014
     39 C           6.7476   -4.4955   25.0901 C.3     1  UNL1        0.0157
@<TRIPOS>BOND
     1    28    29    1
     2    29    22    1
     3    22    23   ar
     4    23    24   ar
     5    24    25   ar
     6    25    17    1
     7    17    18   ar
     8    18    19   ar
     9    19    20   ar
    10    20    13    1
    11    13    14    2
    12    13    15   am
    13    15    16    1
    14     1    15    1
    15     1     2    1
    16     2     3    1
    17     3     4    1
    18     4     5   am
    19     5     6    2
    20     5     7   am
    21     7     8    1
    22     8     9    1
    23     9    10    1
    24    10    30    1
    25    30    32    1
    26    32    33    1
    27    33    34    1
    28    34    35    1
    29    35    36    1
    30    35    37    1
    31    35    38    1
    32    38    39    1
    33    10    11    1
    34     4    12    1
    35    20    21   ar
    36    25    26   ar
    37    26    27   ar
    38    27    22   ar
    39    21    17   ar
    40    12     1    1
    41    11     7    1
    42    39    32    1
    43    30    31    1
