@<TRIPOS>MOLECULE
*****
 45 49 0 0 0
SMALL
GASTEIGER

@<TRIPOS>ATOM
      1 C           1.3679    1.0759   20.0417 C.2     1  UNL1        0.2252
      2 O           0.5812    1.7098   18.9330 O.2     1  UNL1       -0.2749
      3 N           1.0111    1.3583   21.4711 N.am    1  UNL1       -0.2791
      4 C           1.7029    0.8002   22.6793 C.3     1  UNL1        0.0955
      5 C           1.0192    1.3453   23.8981 C.3     1  UNL1        0.0496
      6 C          -0.0952    2.2403   23.4431 C.3     1  UNL1        0.1514
      7 C          -1.1060    3.0490   24.2009 C.ar    1  UNL1       -0.0046
      8 C          -1.1010    3.0410   25.7008 C.ar    1  UNL1       -0.0032
      9 C          -2.1118    3.8497   26.4585 C.ar    1  UNL1       -0.0015
     10 C          -3.1277    4.6664   25.7163 C.ar    1  UNL1        0.0232
     11 C          -3.1328    4.6744   24.2163 C.ar    1  UNL1       -0.0057
     12 C          -2.1219    3.8657   23.4586 C.ar    1  UNL1       -0.0247
     13 C          -2.1269    3.8737   21.9586 C.3     1  UNL1        0.0278
     14 C          -1.1161    3.0650   21.2009 C.3     1  UNL1        0.0265
     15 C          -0.1002    2.2483   21.9431 C.3     1  UNL1        0.1001
     16 C           3.8914    2.1840   18.8567 C.3     1  UNL1        0.0005
     17 C           3.7731    0.7137   19.1287 C.3     1  UNL1        0.0090
     18 C           4.9166   -0.2027   18.8081 C.3     1  UNL1        0.0060
     19 C           4.7984   -1.6730   19.0801 C.3     1  UNL1        0.0366
     20 C           3.5367   -2.2272   19.6726 C.3     1  UNL1        0.0060
     21 C           2.3932   -1.3108   19.9931 C.3     1  UNL1        0.0094
     22 C           2.5114    0.1596   19.7212 C.3     1  UNL1        0.0767
     23 C           5.9419   -2.5894   18.7595 C.2     1  UNL1        0.0500
     24 O           6.7083   -2.4139   17.4821 O.co2   1  UNL1       -0.5492
     25 O           6.3190   -3.6813   19.7165 O.co2   1  UNL1       -0.5492
     26 S           0.0322    2.1342   24.9339 S.O2    1  UNL1        0.0106
     27 O          -0.4441    1.5242   25.1252 O.2     1  UNL1       -0.1684
     28 O           0.9875    3.2906   24.9346 O.2     1  UNL1       -0.1684
     29 C           0.1595    2.0280   26.4248 C.ar    1  UNL1        0.1061
     30 C           1.0356    2.9885   27.1729 C.ar    1  UNL1        0.0207
     31 C           1.1630    2.8824   28.6637 C.ar    1  UNL1        0.0310
     32 C           0.4141    1.8158   29.4063 C.ar    1  UNL1        0.1402
     33 F           0.5415    1.7096   30.8972 F       1  UNL1       -0.2042
     34 C          -0.4621    0.8553   28.6581 C.ar    1  UNL1        0.0310
     35 C          -0.5893    0.9614   27.1674 C.ar    1  UNL1        0.0207
     36 C          -4.1386    5.4751   26.4741 C.3     1  UNL1        0.3242
     37 F          -3.0443    6.0412   27.3296 F       1  UNL1       -0.2176
     38 C          -5.1494    6.2839   27.2318 C.3     1  UNL1        0.4363
     39 F          -6.1602    7.0926   27.9897 F       1  UNL1       -0.1666
     40 F          -4.3654    7.5305   26.9470 F       1  UNL1       -0.1666
     41 F          -6.0507    5.1450   27.6069 F       1  UNL1       -0.1666
     42 C          -5.2329    4.9091   25.6185 C.3     1  UNL1        0.4363
     43 F          -6.3272    4.3429   24.7629 F       1  UNL1       -0.1666
     44 F          -5.7622    6.2169   25.1095 F       1  UNL1       -0.1666
     45 F          -5.1107    3.4259   25.8072 F       1  UNL1       -0.1666
@<TRIPOS>UNITY_ATOM_ATTR
24 1
charge -1
@<TRIPOS>BOND
     1    17    16    1
     2    17    18    1
     3    18    19    1
     4    19    23    1
     5    23    24   ar
     6    23    25   ar
     7    19    20    1
     8    20    21    1
     9    21    22    1
    10    22     1    1
    11     1     2    2
    12     1     3   am
    13     3     4    1
    14     4     5    1
    15     5     6    1
    16     6    26    1
    17    26    27    2
    18    26    28    2
    19    26    29    1
    20    29    30   ar
    21    30    31   ar
    22    31    32   ar
    23    32    33    1
    24    32    34   ar
    25    34    35   ar
    26     6     7    1
    27     7     8   ar
    28     8     9   ar
    29     9    10   ar
    30    10    36    1
    31    36    37    1
    32    36    38    1
    33    38    39    1
    34    38    40    1
    35    38    41    1
    36    36    42    1
    37    42    43    1
    38    42    44    1
    39    42    45    1
    40    10    11   ar
    41    11    12   ar
    42    12    13    1
    43    13    14    1
    44    15    14    1
    45    22    17    1
    46    15     3    1
    47    15     6    1
    48    35    29   ar
    49    12     7   ar
@<TRIPOS>MOLECULE
*****
 45 49 0 0 0
SMALL
GASTEIGER

@<TRIPOS>ATOM
      1 C           3.0509    1.4995   28.3964 C.2     1  UNL1        0.2252
      2 O           3.8255    0.4566   29.1463 O.2     1  UNL1       -0.2749
      3 N           2.8248    1.3493   26.9211 N.am    1  UNL1       -0.2791
      4 C           2.0738    2.3054   26.0424 C.3     1  UNL1        0.0955
      5 C           2.0948    1.7637   24.6438 C.3     1  UNL1        0.0496
      6 C           2.8588    0.4729   24.6581 C.3     1  UNL1        0.1514
      7 C           3.2019   -0.5024   23.5713 C.ar    1  UNL1       -0.0046
      8 C           2.7508   -0.2463   22.1639 C.ar    1  UNL1       -0.0032
      9 C           3.0939   -1.2216   21.0771 C.ar    1  UNL1       -0.0015
     10 C           3.8881   -2.4530   21.3978 C.ar    1  UNL1        0.0232
     11 C           4.3392   -2.7091   22.8052 C.ar    1  UNL1       -0.0057
     12 C           3.9961   -1.7338   23.8920 C.ar    1  UNL1       -0.0247
     13 C           4.4472   -1.9899   25.2995 C.3     1  UNL1        0.0278
     14 C           4.1041   -1.0146   26.3862 C.3     1  UNL1        0.0265
     15 C           3.3099    0.2168   26.0655 C.3     1  UNL1        0.1001
     16 C           0.2896    1.4054   29.5653 C.3     1  UNL1        0.0005
     17 C           1.1217    2.6454   29.7060 C.3     1  UNL1        0.0090
     18 C           0.5733    3.8384   30.4312 C.3     1  UNL1        0.0060
     19 C           1.4054    5.0784   30.5720 C.3     1  UNL1        0.0366
     20 C           2.7861    5.1255   29.9875 C.3     1  UNL1        0.0060
     21 C           3.3345    3.9325   29.2623 C.3     1  UNL1        0.0094
     22 C           2.5024    2.6924   29.1215 C.3     1  UNL1        0.0767
     23 C           0.8569    6.2714   31.2971 C.2     1  UNL1        0.0500
     24 O           1.7314    7.4641   31.5477 O.co2   1  UNL1       -0.5492
     25 O          -0.5661    6.2717   31.7718 O.co2   1  UNL1       -0.5492
     26 S           2.3415    0.8608   23.3046 S.O2    1  UNL1        0.0106
     27 O           1.6196    0.5242   23.2703 O.2     1  UNL1       -0.1684
     28 O           3.6122    1.6101   23.0336 O.2     1  UNL1       -0.1684
     29 C           1.8241    1.2487   21.9511 C.ar    1  UNL1        0.1061
     30 C           2.6402    2.1411   21.0638 C.ar    1  UNL1        0.0207
     31 C           2.1229    2.5290   19.7103 C.ar    1  UNL1        0.0310
     32 C           0.7894    2.0244   19.2442 C.ar    1  UNL1        0.1402
     33 F           0.2721    2.4123   17.8906 F       1  UNL1       -0.2042
     34 C          -0.0267    1.1319   20.1315 C.ar    1  UNL1        0.0310
     35 C           0.4907    0.7440   21.4849 C.ar    1  UNL1        0.0207
     36 C           4.2312   -3.4284   20.3110 C.3     1  UNL1        0.3242
     37 F           3.8158   -4.5637   21.1988 F       1  UNL1       -0.2176
     38 C           4.5743   -4.4037   19.2243 C.3     1  UNL1        0.4363
     39 F           4.9175   -5.3790   18.1375 F       1  UNL1       -0.1666
     40 F           3.1881   -4.9721   19.2968 F       1  UNL1       -0.1666
     41 F           5.9920   -3.9584   19.0198 F       1  UNL1       -0.1666
     42 C           4.6466   -2.2930   19.4232 C.3     1  UNL1        0.4363
     43 F           5.0620   -1.1575   18.5353 F       1  UNL1       -0.1666
     44 F           3.6101   -2.5037   18.3597 F       1  UNL1       -0.1666
     45 F           5.8100   -1.6768   20.1422 F       1  UNL1       -0.1666
@<TRIPOS>UNITY_ATOM_ATTR
24 1
charge -1
@<TRIPOS>BOND
     1    17    16    1
     2    17    18    1
     3    18    19    1
     4    19    23    1
     5    23    24   ar
     6    23    25   ar
     7    19    20    1
     8    20    21    1
     9    21    22    1
    10    22     1    1
    11     1     2    2
    12     1     3   am
    13     3     4    1
    14     4     5    1
    15     5     6    1
    16     6    26    1
    17    26    27    2
    18    26    28    2
    19    26    29    1
    20    29    30   ar
    21    30    31   ar
    22    31    32   ar
    23    32    33    1
    24    32    34   ar
    25    34    35   ar
    26     6     7    1
    27     7     8   ar
    28     8     9   ar
    29     9    10   ar
    30    10    36    1
    31    36    37    1
    32    36    38    1
    33    38    39    1
    34    38    40    1
    35    38    41    1
    36    36    42    1
    37    42    43    1
    38    42    44    1
    39    42    45    1
    40    10    11   ar
    41    11    12   ar
    42    12    13    1
    43    13    14    1
    44    15    14    1
    45    22    17    1
    46    15     3    1
    47    15     6    1
    48    35    29   ar
    49    12     7   ar
@<TRIPOS>MOLECULE
*****
 45 49 0 0 0
SMALL
GASTEIGER

@<TRIPOS>ATOM
      1 C           5.1642   -1.3439   30.1854 C.2     1  UNL1        0.2252
      2 O           6.0725   -2.3908   29.6117 O.2     1  UNL1       -0.2749
      3 N           4.2407   -0.5774   29.2854 N.am    1  UNL1       -0.2791
      4 C           3.2807    0.4930   29.7127 C.3     1  UNL1        0.0955
      5 C           2.5618    0.9852   28.4916 C.3     1  UNL1        0.0496
      6 C           3.0776    0.2189   27.3098 C.3     1  UNL1        0.1514
      7 C           2.7364    0.2758   25.8501 C.ar    1  UNL1       -0.0046
      8 C           1.6988    1.2416   25.3595 C.ar    1  UNL1       -0.0032
      9 C           1.3577    1.2984   23.9000 C.ar    1  UNL1       -0.0015
     10 C           2.0541    0.3896   22.9310 C.ar    1  UNL1        0.0232
     11 C           3.0917   -0.5762   23.4216 C.ar    1  UNL1       -0.0057
     12 C           3.4328   -0.6331   24.8812 C.ar    1  UNL1       -0.0247
     13 C           4.4705   -1.5988   25.3718 C.3     1  UNL1        0.0278
     14 C           4.8116   -1.6557   26.8314 C.3     1  UNL1        0.0265
     15 C           4.1152   -0.7468   27.8003 C.3     1  UNL1        0.1001
     16 C           6.8583    0.8809   31.2717 C.3     1  UNL1        0.0005
     17 C           6.0263    0.0489   32.2020 C.3     1  UNL1        0.0090
     18 C           6.0413    0.3292   33.6755 C.3     1  UNL1        0.0060
     19 C           5.2093   -0.5028   34.6058 C.3     1  UNL1        0.0366
     20 C           4.3622   -1.6152   34.0626 C.3     1  UNL1        0.0060
     21 C           4.3472   -1.8956   32.5891 C.3     1  UNL1        0.0094
     22 C           5.1792   -1.0635   31.6588 C.3     1  UNL1        0.0767
     23 C           5.2243   -0.2224   36.0793 C.2     1  UNL1        0.0500
     24 O           6.4200   -0.6001   36.9025 O.co2   1  UNL1       -0.5492
     25 O           4.0435    0.4356   36.7296 O.co2   1  UNL1       -0.5492
     26 S           2.0242    1.2308   26.9684 S.O2    1  UNL1        0.0106
     27 O           1.3404    0.8260   27.0310 O.2     1  UNL1       -0.1684
     28 O           3.0876    2.2683   26.7620 O.2     1  UNL1       -0.1684
     29 C           0.9708    2.2427   26.6271 C.ar    1  UNL1        0.1061
     30 C           1.3654    3.6460   26.2737 C.ar    1  UNL1        0.0207
     31 C           0.3120    4.6579   25.9324 C.ar    1  UNL1        0.0310
     32 C          -1.1359    4.2664   25.9445 C.ar    1  UNL1        0.1402
     33 F          -2.1894    5.2783   25.6031 F       1  UNL1       -0.2042
     34 C          -1.5305    2.8630   26.2979 C.ar    1  UNL1        0.0310
     35 C          -0.4772    1.8512   26.6392 C.ar    1  UNL1        0.0207
     36 C           1.7129    0.4465   21.4714 C.3     1  UNL1        0.3242
     37 F           0.2536    0.3704   21.8096 F       1  UNL1       -0.2176
     38 C           1.3717    0.5033   20.0119 C.3     1  UNL1        0.4363
     39 F           1.0305    0.5603   18.5522 F       1  UNL1       -0.1666
     40 F           0.6041   -0.7788   20.1413 F       1  UNL1       -0.1666
     41 F           2.0920    1.7829   19.7054 F       1  UNL1       -0.1666
     42 C           3.1723    0.5225   21.1332 C.3     1  UNL1        0.4363
     43 F           4.6317    0.5986   20.7950 F       1  UNL1       -0.1666
     44 F           3.2509   -0.7672   20.3714 F       1  UNL1       -0.1666
     45 F           3.6225    1.8108   21.7558 F       1  UNL1       -0.1666
@<TRIPOS>UNITY_ATOM_ATTR
24 1
charge -1
@<TRIPOS>BOND
     1    17    16    1
     2    17    18    1
     3    18    19    1
     4    19    23    1
     5    23    24   ar
     6    23    25   ar
     7    19    20    1
     8    20    21    1
     9    21    22    1
    10    22     1    1
    11     1     2    2
    12     1     3   am
    13     3     4    1
    14     4     5    1
    15     5     6    1
    16     6    26    1
    17    26    27    2
    18    26    28    2
    19    26    29    1
    20    29    30   ar
    21    30    31   ar
    22    31    32   ar
    23    32    33    1
    24    32    34   ar
    25    34    35   ar
    26     6     7    1
    27     7     8   ar
    28     8     9   ar
    29     9    10   ar
    30    10    36    1
    31    36    37    1
    32    36    38    1
    33    38    39    1
    34    38    40    1
    35    38    41    1
    36    36    42    1
    37    42    43    1
    38    42    44    1
    39    42    45    1
    40    10    11   ar
    41    11    12   ar
    42    12    13    1
    43    13    14    1
    44    15    14    1
    45    22    17    1
    46    15     3    1
    47    15     6    1
    48    35    29   ar
    49    12     7   ar
@<TRIPOS>MOLECULE
*****
 45 49 0 0 0
SMALL
GASTEIGER

@<TRIPOS>ATOM
      1 C           6.3584   -2.8173   30.3687 C.2     1  UNL1        0.2252
      2 O           7.1514   -4.0887   30.3001 O.2     1  UNL1       -0.2749
      3 N           5.8139   -2.2042   29.1125 N.am    1  UNL1       -0.2791
      4 C           5.0074   -0.9425   29.0250 C.3     1  UNL1        0.0955
      5 C           4.6754   -0.7038   27.5818 C.3     1  UNL1        0.0496
      6 C           5.2767   -1.8180   26.7774 C.3     1  UNL1        0.1514
      7 C           5.2745   -2.1079   25.3057 C.ar    1  UNL1       -0.0046
      8 C           4.5709   -1.1806   24.3597 C.ar    1  UNL1       -0.0032
      9 C           4.5686   -1.4705   22.8880 C.ar    1  UNL1       -0.0015
     10 C           5.2700   -2.6878   22.3623 C.ar    1  UNL1        0.0232
     11 C           5.9736   -3.6151   23.3083 C.ar    1  UNL1       -0.0057
     12 C           5.9759   -3.3252   24.7800 C.ar    1  UNL1       -0.0247
     13 C           6.6795   -4.2525   25.7261 C.3     1  UNL1        0.0278
     14 C           6.6818   -3.9625   27.1978 C.3     1  UNL1        0.0265
     15 C           5.9804   -2.7453   27.7234 C.3     1  UNL1        0.1001
     16 C           8.3451   -0.8544   31.4645 C.3     1  UNL1        0.0005
     17 C           7.1031   -1.1775   32.2412 C.3     1  UNL1        0.0090
     18 C           6.8545   -0.5191   33.5658 C.3     1  UNL1        0.0060
     19 C           5.6127   -0.8421   34.3426 C.3     1  UNL1        0.0366
     20 C           4.6193   -1.8235   33.7947 C.3     1  UNL1        0.0060
     21 C           4.8679   -2.4818   32.4701 C.3     1  UNL1        0.0094
     22 C           6.1099   -2.1589   31.6932 C.3     1  UNL1        0.0767
     23 C           5.3640   -0.1837   35.6673 C.2     1  UNL1        0.0500
     24 O           4.2754    0.8391   35.8039 O.co2   1  UNL1       -0.5492
     25 O           6.2041   -0.5481   36.8554 O.co2   1  UNL1       -0.5492
     26 S           4.5348   -0.8047   25.9572 S.O2    1  UNL1        0.0106
     27 O           3.7895   -1.0865   25.9305 O.2     1  UNL1       -0.1684
     28 O           5.7949   -0.0056   25.8043 O.2     1  UNL1       -0.1684
     29 C           3.7927    0.2085   25.1368 C.ar    1  UNL1        0.1061
     30 C           2.3353    0.0122   24.8414 C.ar    1  UNL1        0.0207
     31 C           1.5933    1.0254   24.0211 C.ar    1  UNL1        0.0310
     32 C           2.3087    2.2348   23.4963 C.ar    1  UNL1        0.1402
     33 F           1.5666    3.2480   22.6760 F       1  UNL1       -0.2042
     34 C           3.7661    2.4310   23.7917 C.ar    1  UNL1        0.0310
     35 C           4.5081    1.4179   24.6120 C.ar    1  UNL1        0.0207
     36 C           5.2677   -2.9778   20.8906 C.3     1  UNL1        0.3242
     37 F           4.5692   -4.2799   21.1482 F       1  UNL1       -0.2176
     38 C           5.2654   -3.2677   19.4189 C.3     1  UNL1        0.4363
     39 F           5.2632   -3.5577   17.9471 F       1  UNL1       -0.1666
     40 F           3.7773   -3.4515   19.4574 F       1  UNL1       -0.1666
     41 F           6.7423   -3.1207   19.2012 F       1  UNL1       -0.1666
     42 C           5.9663   -1.6756   20.6329 C.3     1  UNL1        0.4363
     43 F           6.6649   -0.3734   20.3753 F       1  UNL1       -0.1666
     44 F           4.8821   -1.0463   19.8093 F       1  UNL1       -0.1666
     45 F           7.2785   -1.8206   21.3450 F       1  UNL1       -0.1666
@<TRIPOS>UNITY_ATOM_ATTR
24 1
charge -1
@<TRIPOS>BOND
     1    17    16    1
     2    17    18    1
     3    18    19    1
     4    19    23    1
     5    23    24   ar
     6    23    25   ar
     7    19    20    1
     8    20    21    1
     9    21    22    1
    10    22     1    1
    11     1     2    2
    12     1     3   am
    13     3     4    1
    14     4     5    1
    15     5     6    1
    16     6    26    1
    17    26    27    2
    18    26    28    2
    19    26    29    1
    20    29    30   ar
    21    30    31   ar
    22    31    32   ar
    23    32    33    1
    24    32    34   ar
    25    34    35   ar
    26     6     7    1
    27     7     8   ar
    28     8     9   ar
    29     9    10   ar
    30    10    36    1
    31    36    37    1
    32    36    38    1
    33    38    39    1
    34    38    40    1
    35    38    41    1
    36    36    42    1
    37    42    43    1
    38    42    44    1
    39    42    45    1
    40    10    11   ar
    41    11    12   ar
    42    12    13    1
    43    13    14    1
    44    15    14    1
    45    22    17    1
    46    15     3    1
    47    15     6    1
    48    35    29   ar
    49    12     7   ar
@<TRIPOS>MOLECULE
*****
 45 49 0 0 0
SMALL
GASTEIGER

@<TRIPOS>ATOM
      1 C           0.2175    2.2261   27.4116 C.2     1  UNL1        0.2252
      2 O          -0.9097    3.0569   27.9493 O.2     1  UNL1       -0.2749
      3 N           0.3944    2.0706   25.9301 N.am    1  UNL1       -0.2791
      4 C           1.4687    1.2757   25.2491 C.3     1  UNL1        0.0955
      5 C           1.2662    1.3966   23.7677 C.3     1  UNL1        0.0496
      6 C           0.0668    2.2662   23.5333 C.3     1  UNL1        0.1514
      7 C          -0.6044    2.7326   22.2755 C.ar    1  UNL1       -0.0046
      8 C          -0.0656    2.3161   20.9391 C.ar    1  UNL1       -0.0032
      9 C          -0.7368    2.7825   19.6814 C.ar    1  UNL1       -0.0015
     10 C          -1.9468    3.6654   19.7601 C.ar    1  UNL1        0.0232
     11 C          -2.4856    4.0820   21.0965 C.ar    1  UNL1       -0.0057
     12 C          -1.8144    3.6156   22.3542 C.ar    1  UNL1       -0.0247
     13 C          -2.3533    4.0322   23.6907 C.3     1  UNL1        0.0278
     14 C          -1.6821    3.5658   24.9484 C.3     1  UNL1        0.0265
     15 C          -0.4721    2.6828   24.8698 C.3     1  UNL1        0.1001
     16 C          -0.5545   -0.3594   28.7230 C.3     1  UNL1        0.0005
     17 C           0.7819    0.2580   29.0110 C.3     1  UNL1        0.0090
     18 C           1.7324   -0.4174   29.9546 C.3     1  UNL1        0.0060
     19 C           3.0688    0.1998   30.2426 C.3     1  UNL1        0.0366
     20 C           3.4548    1.4925   29.5870 C.3     1  UNL1        0.0060
     21 C           2.5044    2.1679   28.6433 C.3     1  UNL1        0.0094
     22 C           1.1679    1.5507   28.3553 C.3     1  UNL1        0.0767
     23 C           4.0192   -0.4756   31.1863 C.2     1  UNL1        0.0500
     24 O           5.4589   -0.0566   31.2284 O.co2   1  UNL1       -0.5492
     25 O           3.5299   -1.5701   32.0880 O.co2   1  UNL1       -0.5492
     26 S           0.7162    1.7705   22.2754 S.O2    1  UNL1        0.0106
     27 O           0.3549    1.0743   22.1332 O.2     1  UNL1       -0.1684
     28 O           1.5789    2.9969   22.2373 O.2     1  UNL1       -0.1684
     29 C           1.3656    1.2747   21.0174 C.ar    1  UNL1        0.1061
     30 C           2.4281    2.0952   20.3482 C.ar    1  UNL1        0.0207
     31 C           3.0775    1.5995   19.0902 C.ar    1  UNL1        0.0310
     32 C           2.6644    0.2832   18.5015 C.ar    1  UNL1        0.1402
     33 F           3.3139   -0.2127   17.2435 F       1  UNL1       -0.2042
     34 C           1.6020   -0.5374   19.1707 C.ar    1  UNL1        0.0310
     35 C           0.9526   -0.0416   20.4286 C.ar    1  UNL1        0.0207
     36 C          -2.6180    4.1318   18.5022 C.3     1  UNL1        0.3242
     37 F          -3.9446    3.6926   19.0473 F       1  UNL1       -0.2176
     38 C          -3.2892    4.5982   17.2445 C.3     1  UNL1        0.4363
     39 F          -3.9604    5.0646   15.9867 F       1  UNL1       -0.1666
     40 F          -3.9322    3.2520   17.0885 F       1  UNL1       -0.1666
     41 F          -2.7328    5.9912   17.2460 F       1  UNL1       -0.1666
     42 C          -1.2914    4.5711   17.9571 C.3     1  UNL1        0.4363
     43 F           0.0353    5.0104   17.4121 F       1  UNL1       -0.1666
     44 F          -1.2502    3.6263   16.7929 F       1  UNL1       -0.1666
     45 F          -0.8526    5.6534   18.8985 F       1  UNL1       -0.1666
@<TRIPOS>UNITY_ATOM_ATTR
24 1
charge -1
@<TRIPOS>BOND
     1    17    16    1
     2    17    18    1
     3    18    19    1
     4    19    23    1
     5    23    24   ar
     6    23    25   ar
     7    19    20    1
     8    20    21    1
     9    21    22    1
    10    22     1    1
    11     1     2    2
    12     1     3   am
    13     3     4    1
    14     4     5    1
    15     5     6    1
    16     6    26    1
    17    26    27    2
    18    26    28    2
    19    26    29    1
    20    29    30   ar
    21    30    31   ar
    22    31    32   ar
    23    32    33    1
    24    32    34   ar
    25    34    35   ar
    26     6     7    1
    27     7     8   ar
    28     8     9   ar
    29     9    10   ar
    30    10    36    1
    31    36    37    1
    32    36    38    1
    33    38    39    1
    34    38    40    1
    35    38    41    1
    36    36    42    1
    37    42    43    1
    38    42    44    1
    39    42    45    1
    40    10    11   ar
    41    11    12   ar
    42    12    13    1
    43    13    14    1
    44    15    14    1
    45    22    17    1
    46    15     3    1
    47    15     6    1
    48    35    29   ar
    49    12     7   ar
@<TRIPOS>MOLECULE
*****
 45 49 0 0 0
SMALL
GASTEIGER

@<TRIPOS>ATOM
      1 C           6.7031   -3.2543   24.3021 C.2     1  UNL1        0.2252
      2 O           7.7646   -4.2295   24.7170 O.2     1  UNL1       -0.2749
      3 N           5.9604   -2.4671   25.3409 N.am    1  UNL1       -0.2791
      4 C           4.8791   -1.4612   25.0787 C.3     1  UNL1        0.0955
      5 C           4.4191   -0.9201   26.3999 C.3     1  UNL1        0.0496
      6 C           5.2161   -1.5917   27.4786 C.3     1  UNL1        0.1514
      7 C           5.1975   -1.4561   28.9724 C.ar    1  UNL1       -0.0046
      8 C           4.2449   -0.5000   29.6269 C.ar    1  UNL1       -0.0032
      9 C           4.2263   -0.3645   31.1206 C.ar    1  UNL1       -0.0015
     10 C           5.1603   -1.1851   31.9598 C.ar    1  UNL1        0.0232
     11 C           6.1129   -2.1412   31.3054 C.ar    1  UNL1       -0.0057
     12 C           6.1315   -2.2767   29.8116 C.ar    1  UNL1       -0.0247
     13 C           7.0841   -3.2329   29.1571 C.3     1  UNL1        0.0278
     14 C           7.1027   -3.3684   27.6634 C.3     1  UNL1        0.0265
     15 C           6.1687   -2.5478   26.8241 C.3     1  UNL1        0.1001
     16 C           8.3273   -1.3538   22.6437 C.3     1  UNL1        0.0005
     17 C           7.1962   -2.1160   22.0194 C.3     1  UNL1        0.0090
     18 C           6.8773   -1.9279   20.5658 C.3     1  UNL1        0.0060
     19 C           5.7462   -2.6901   19.9414 C.3     1  UNL1        0.0366
     20 C           4.9341   -3.6403   20.7706 C.3     1  UNL1        0.0060
     21 C           5.2531   -3.8284   22.2242 C.3     1  UNL1        0.0094
     22 C           6.3842   -3.0662   22.8486 C.3     1  UNL1        0.0767
     23 C           5.4273   -2.5020   18.4878 C.2     1  UNL1        0.0500
     24 O           6.5364   -2.4140   17.4818 O.co2   1  UNL1       -0.5492
     25 O           3.9990   -2.4019   18.0402 O.co2   1  UNL1       -0.5492
     26 S           4.2135   -0.5995   27.9887 S.O2    1  UNL1        0.0106
     27 O           4.6296    0.0770   28.0579 O.2     1  UNL1       -0.1684
     28 O           3.1566   -1.6637   27.9817 O.2     1  UNL1       -0.1684
     29 C           3.2109    0.3929   28.4988 C.ar    1  UNL1        0.1061
     30 C           1.8223   -0.0552   28.8466 C.ar    1  UNL1        0.0207
     31 C           0.8197    0.9370   29.3567 C.ar    1  UNL1        0.0310
     32 C           1.2057    2.3774   29.5190 C.ar    1  UNL1        0.1402
     33 F           0.2031    3.3697   30.0291 F       1  UNL1       -0.2042
     34 C           2.5944    2.8255   29.1712 C.ar    1  UNL1        0.0310
     35 C           3.5969    1.8332   28.6611 C.ar    1  UNL1        0.0207
     36 C           5.1417   -1.0495   33.4536 C.3     1  UNL1        0.3242
     37 F           5.0364   -2.5397   33.5875 F       1  UNL1       -0.2176
     38 C           5.1231   -0.9139   34.9474 C.3     1  UNL1        0.4363
     39 F           5.1045   -0.7784   36.4412 F       1  UNL1       -0.1666
     40 F           3.8632   -1.7259   35.0053 F       1  UNL1       -0.1666
     41 F           6.3713   -0.0915   35.0719 F       1  UNL1       -0.1666
     42 C           5.2470    0.4408   33.3197 C.3     1  UNL1        0.4363
     43 F           5.3524    1.9311   33.1858 F       1  UNL1       -0.1666
     44 F           3.9267    0.7746   33.9483 F       1  UNL1       -0.1666
     45 F           6.5759    0.6526   32.6569 F       1  UNL1       -0.1666
@<TRIPOS>UNITY_ATOM_ATTR
24 1
charge -1
@<TRIPOS>BOND
     1    17    16    1
     2    17    18    1
     3    18    19    1
     4    19    23    1
     5    23    24   ar
     6    23    25   ar
     7    19    20    1
     8    20    21    1
     9    21    22    1
    10    22     1    1
    11     1     2    2
    12     1     3   am
    13     3     4    1
    14     4     5    1
    15     5     6    1
    16     6    26    1
    17    26    27    2
    18    26    28    2
    19    26    29    1
    20    29    30   ar
    21    30    31   ar
    22    31    32   ar
    23    32    33    1
    24    32    34   ar
    25    34    35   ar
    26     6     7    1
    27     7     8   ar
    28     8     9   ar
    29     9    10   ar
    30    10    36    1
    31    36    37    1
    32    36    38    1
    33    38    39    1
    34    38    40    1
    35    38    41    1
    36    36    42    1
    37    42    43    1
    38    42    44    1
    39    42    45    1
    40    10    11   ar
    41    11    12   ar
    42    12    13    1
    43    13    14    1
    44    15    14    1
    45    22    17    1
    46    15     3    1
    47    15     6    1
    48    35    29   ar
    49    12     7   ar
@<TRIPOS>MOLECULE
*****
 45 49 0 0 0
SMALL
GASTEIGER

@<TRIPOS>ATOM
      1 C           3.6276    0.1227   23.3696 C.2     1  UNL1        0.2252
      2 O           2.6525    1.2325   23.6298 O.2     1  UNL1       -0.2749
      3 N           4.2998   -0.5698   24.5180 N.am    1  UNL1       -0.2791
      4 C           5.2918   -1.6900   24.4135 C.3     1  UNL1        0.0955
      5 C           5.7029   -2.0762   25.8034 C.3     1  UNL1        0.0496
      6 C           4.9650   -1.1946   26.7669 C.3     1  UNL1        0.1514
      7 C           4.9708   -1.1193   28.2650 C.ar    1  UNL1       -0.0046
      8 C           5.8380   -2.0504   29.0594 C.ar    1  UNL1       -0.0032
      9 C           5.8437   -1.9751   30.5575 C.ar    1  UNL1       -0.0015
     10 C           4.9822   -0.9687   31.2611 C.ar    1  UNL1        0.0232
     11 C           4.1150   -0.0377   30.4667 C.ar    1  UNL1       -0.0057
     12 C           4.1093   -0.1130   28.9687 C.ar    1  UNL1       -0.0247
     13 C           3.2420    0.8180   28.1742 C.3     1  UNL1        0.0278
     14 C           3.2363    0.7427   26.6761 C.3     1  UNL1        0.0265
     15 C           4.0978   -0.2636   25.9725 C.3     1  UNL1        0.1001
     16 C           6.0706    1.1785   21.9849 C.3     1  UNL1        0.0005
     17 C           5.1521    0.2333   21.2687 C.3     1  UNL1        0.0090
     18 C           5.4551   -0.1840   19.8602 C.3     1  UNL1        0.0060
     19 C           4.5366   -1.1291   19.1439 C.3     1  UNL1        0.0366
     20 C           3.3151   -1.6571   19.8362 C.3     1  UNL1        0.0060
     21 C           3.0121   -1.2397   21.2448 C.3     1  UNL1        0.0094
     22 C           3.9306   -0.2945   21.9611 C.3     1  UNL1        0.0767
     23 C           4.8396   -1.5465   17.7354 C.2     1  UNL1        0.0500
     24 O           6.0018   -2.4524   17.4550 O.co2   1  UNL1       -0.5492
     25 O           3.9803   -1.0579   16.6070 O.co2   1  UNL1       -0.5492
     26 S           5.8792   -2.1858   27.4240 S.O2    1  UNL1        0.0106
     27 O           5.4142   -2.8200   27.5545 O.2     1  UNL1       -0.1684
     28 O           7.0089   -1.2031   27.3350 O.2     1  UNL1       -0.1684
     29 C           6.7933   -3.1771   28.0812 C.ar    1  UNL1        0.1061
     30 C           6.2923   -4.5500   28.4190 C.ar    1  UNL1        0.0207
     31 C           7.2064   -5.5413   29.0761 C.ar    1  UNL1        0.0310
     32 C           8.6214   -5.1596   29.3955 C.ar    1  UNL1        0.1402
     33 F           9.5355   -6.1509   30.0527 F       1  UNL1       -0.2042
     34 C           9.1224   -3.7866   29.0578 C.ar    1  UNL1        0.0310
     35 C           8.2083   -2.7954   28.4006 C.ar    1  UNL1        0.0207
     36 C           4.9879   -0.8935   32.7593 C.3     1  UNL1        0.3242
     37 F           3.4972   -1.0593   32.7733 F       1  UNL1       -0.2176
     38 C           4.9936   -0.8182   34.2574 C.3     1  UNL1        0.4363
     39 F           4.9994   -0.7429   35.7555 F       1  UNL1       -0.1666
     40 F           4.2101   -2.0955   34.3245 F       1  UNL1       -0.1666
     41 F           5.7720    0.4587   34.3734 F       1  UNL1       -0.1666
     42 C           6.4787   -0.7277   32.7453 C.3     1  UNL1        0.4363
     43 F           7.9694   -0.5618   32.7313 F       1  UNL1       -0.1666
     44 F           6.8128   -2.0202   33.4290 F       1  UNL1       -0.1666
     45 F           6.6904    0.5959   32.0718 F       1  UNL1       -0.1666
@<TRIPOS>UNITY_ATOM_ATTR
24 1
charge -1
@<TRIPOS>BOND
     1    17    16    1
     2    17    18    1
     3    18    19    1
     4    19    23    1
     5    23    24   ar
     6    23    25   ar
     7    19    20    1
     8    20    21    1
     9    21    22    1
    10    22     1    1
    11     1     2    2
    12     1     3   am
    13     3     4    1
    14     4     5    1
    15     5     6    1
    16     6    26    1
    17    26    27    2
    18    26    28    2
    19    26    29    1
    20    29    30   ar
    21    30    31   ar
    22    31    32   ar
    23    32    33    1
    24    32    34   ar
    25    34    35   ar
    26     6     7    1
    27     7     8   ar
    28     8     9   ar
    29     9    10   ar
    30    10    36    1
    31    36    37    1
    32    36    38    1
    33    38    39    1
    34    38    40    1
    35    38    41    1
    36    36    42    1
    37    42    43    1
    38    42    44    1
    39    42    45    1
    40    10    11   ar
    41    11    12   ar
    42    12    13    1
    43    13    14    1
    44    15    14    1
    45    22    17    1
    46    15     3    1
    47    15     6    1
    48    35    29   ar
    49    12     7   ar
@<TRIPOS>MOLECULE
*****
 45 49 0 0 0
SMALL
GASTEIGER

@<TRIPOS>ATOM
      1 C           2.4619    0.2663   22.5694 C.2     1  UNL1        0.2252
      2 O           2.7948   -0.1404   23.9743 O.2     1  UNL1       -0.2749
      3 N           1.3181    1.2017   22.3105 N.am    1  UNL1       -0.2791
      4 C           0.8690    1.6946   20.9668 C.3     1  UNL1        0.0955
      5 C          -0.3040    2.6059   21.1757 C.3     1  UNL1        0.0496
      6 C          -0.5798    2.6761   22.6484 C.3     1  UNL1        0.1514
      7 C          -1.6145    3.4183   23.4415 C.ar    1  UNL1       -0.0046
      8 C          -2.6169    4.2861   22.7401 C.ar    1  UNL1       -0.0032
      9 C          -3.6515    5.0282   23.5332 C.ar    1  UNL1       -0.0015
     10 C          -3.6835    4.9025   25.0276 C.ar    1  UNL1        0.0232
     11 C          -2.6811    4.0347   25.7289 C.ar    1  UNL1       -0.0057
     12 C          -1.6465    3.2926   24.9359 C.ar    1  UNL1       -0.0247
     13 C          -0.6440    2.4247   25.6372 C.3     1  UNL1        0.0278
     14 C           0.3906    1.6826   24.8441 C.3     1  UNL1        0.0265
     15 C           0.4226    1.8083   23.3498 C.3     1  UNL1        0.1001
     16 C           4.9624    1.6892   21.7188 C.3     1  UNL1        0.0005
     17 C           4.5228    0.4492   20.9981 C.3     1  UNL1        0.0090
     18 C           5.3336   -0.0793   19.8521 C.3     1  UNL1        0.0060
     19 C           4.8941   -1.3192   19.1314 C.3     1  UNL1        0.0366
     20 C           3.6439   -2.0307   19.5567 C.3     1  UNL1        0.0060
     21 C           2.8332   -1.5021   20.7027 C.3     1  UNL1        0.0094
     22 C           3.2726   -0.2621   21.4234 C.3     1  UNL1        0.0767
     23 C           5.7049   -1.8478   17.9854 C.2     1  UNL1        0.0500
     24 O           6.5115   -0.9069   17.1403 O.co2   1  UNL1       -0.5492
     25 O           5.7090   -3.3173   17.6843 O.co2   1  UNL1       -0.5492
     26 S          -1.5125    3.5020   21.8129 S.O2    1  UNL1        0.0106
     27 O          -2.1087    3.0024   21.6383 O.2     1  UNL1       -0.1684
     28 O          -0.5889    4.6767   21.9430 O.2     1  UNL1       -0.1684
     29 C          -2.4452    4.3279   20.9773 C.ar    1  UNL1        0.1061
     30 C          -3.7049    3.7196   20.4360 C.ar    1  UNL1        0.0207
     31 C          -4.6376    4.5454   19.6004 C.ar    1  UNL1        0.0310
     32 C          -4.3105    5.9794   19.3062 C.ar    1  UNL1        0.1402
     33 F          -5.2432    6.8053   18.4706 F       1  UNL1       -0.2042
     34 C          -3.0507    6.5877   19.8475 C.ar    1  UNL1        0.0310
     35 C          -2.1181    5.7619   20.6830 C.ar    1  UNL1        0.0207
     36 C          -4.7182    5.6446   25.8206 C.3     1  UNL1        0.3242
     37 F          -3.6329    6.3946   26.5345 F       1  UNL1       -0.2176
     38 C          -5.7527    6.3868   26.6137 C.3     1  UNL1        0.4363
     39 F          -6.7873    7.1289   27.4067 F       1  UNL1       -0.1666
     40 F          -5.2992    7.6771   25.9977 F       1  UNL1       -0.1666
     41 F          -6.3289    5.1965   27.3217 F       1  UNL1       -0.1666
     42 C          -5.8034    4.8946   25.1067 C.3     1  UNL1        0.4363
     43 F          -6.8887    4.1446   24.3928 F       1  UNL1       -0.1666
     44 F          -6.4905    6.0884   24.5129 F       1  UNL1       -0.1666
     45 F          -5.5237    3.4567   25.4295 F       1  UNL1       -0.1666
@<TRIPOS>UNITY_ATOM_ATTR
24 1
charge -1
@<TRIPOS>BOND
     1    17    16    1
     2    17    18    1
     3    18    19    1
     4    19    23    1
     5    23    24   ar
     6    23    25   ar
     7    19    20    1
     8    20    21    1
     9    21    22    1
    10    22     1    1
    11     1     2    2
    12     1     3   am
    13     3     4    1
    14     4     5    1
    15     5     6    1
    16     6    26    1
    17    26    27    2
    18    26    28    2
    19    26    29    1
    20    29    30   ar
    21    30    31   ar
    22    31    32   ar
    23    32    33    1
    24    32    34   ar
    25    34    35   ar
    26     6     7    1
    27     7     8   ar
    28     8     9   ar
    29     9    10   ar
    30    10    36    1
    31    36    37    1
    32    36    38    1
    33    38    39    1
    34    38    40    1
    35    38    41    1
    36    36    42    1
    37    42    43    1
    38    42    44    1
    39    42    45    1
    40    10    11   ar
    41    11    12   ar
    42    12    13    1
    43    13    14    1
    44    15    14    1
    45    22    17    1
    46    15     3    1
    47    15     6    1
    48    35    29   ar
    49    12     7   ar
@<TRIPOS>MOLECULE
*****
 45 49 0 0 0
SMALL
GASTEIGER

@<TRIPOS>ATOM
      1 C          -2.3819    3.6518   22.5406 C.2     1  UNL1        0.2252
      2 O          -2.9297    3.7857   21.1507 O.2     1  UNL1       -0.2749
      3 N          -1.0864    2.9312   22.7701 N.am    1  UNL1       -0.2791
      4 C          -0.4183    2.7192   24.0962 C.3     1  UNL1        0.0955
      5 C           0.8494    1.9531   23.8594 C.3     1  UNL1        0.0496
      6 C           0.9647    1.6917   22.3869 C.3     1  UNL1        0.1514
      7 C           2.0046    0.9812   21.5720 C.ar    1  UNL1       -0.0046
      8 C           3.2010    0.3767   22.2453 C.ar    1  UNL1       -0.0032
      9 C           4.2408   -0.3337   21.4305 C.ar    1  UNL1       -0.0015
     10 C           4.0843   -0.4396   19.9424 C.ar    1  UNL1        0.0232
     11 C           2.8880    0.1649   19.2692 C.ar    1  UNL1       -0.0057
     12 C           1.8481    0.8753   20.0840 C.ar    1  UNL1       -0.0247
     13 C           0.6517    1.4798   19.4108 C.3     1  UNL1        0.0278
     14 C          -0.3882    2.1903   20.2256 C.3     1  UNL1        0.0265
     15 C          -0.2317    2.2962   21.7136 C.3     1  UNL1        0.1001
     16 C          -1.7169    6.4109   23.5131 C.3     1  UNL1        0.0005
     17 C          -2.7970    5.6180   24.1874 C.3     1  UNL1        0.0090
     18 C          -3.5446    6.2046   25.3480 C.3     1  UNL1        0.0060
     19 C          -4.6247    5.4118   26.0224 C.3     1  UNL1        0.0366
     20 C          -4.9572    4.0323   25.5361 C.3     1  UNL1        0.0060
     21 C          -4.2096    3.4457   24.3756 C.3     1  UNL1        0.0094
     22 C          -3.1295    4.2385   23.7012 C.3     1  UNL1        0.0767
     23 C          -5.3723    5.9984   27.1829 C.2     1  UNL1        0.0500
     24 O          -4.6203    6.5535   28.3561 O.co2   1  UNL1       -0.5492
     25 O          -6.8720    6.0300   27.1703 O.co2   1  UNL1       -0.5492
     26 S           2.1012    1.1398   23.1954 S.O2    1  UNL1        0.0106
     27 O           1.8581    0.4072   23.3948 O.2     1  UNL1       -0.1684
     28 O           2.8559    2.4227   23.0105 O.2     1  UNL1       -0.1684
     29 C           3.2377    0.5878   24.0040 C.ar    1  UNL1        0.1061
     30 C           4.4489    1.4319   24.2690 C.ar    1  UNL1        0.0207
     31 C           5.5854    0.8799   25.0776 C.ar    1  UNL1        0.0310
     32 C           5.5106   -0.5161   25.6211 C.ar    1  UNL1        0.1402
     33 F           6.6471   -1.0681   26.4297 F       1  UNL1       -0.2042
     34 C           4.2993   -1.3602   25.3560 C.ar    1  UNL1        0.0310
     35 C           3.1629   -0.8083   24.5475 C.ar    1  UNL1        0.0207
     36 C           5.1243   -1.1501   19.1276 C.3     1  UNL1        0.3242
     37 F           5.4128    0.1219   18.3868 F       1  UNL1       -0.2176
     38 C           6.1641   -1.8604   18.3128 C.3     1  UNL1        0.4363
     39 F           7.2041   -2.5709   17.4979 F       1  UNL1       -0.1666
     40 F           7.1827   -0.8378   18.7211 F       1  UNL1       -0.1666
     41 F           5.2800   -2.9621   17.8082 F       1  UNL1       -0.1666
     42 C           4.8357   -2.4220   19.8683 C.3     1  UNL1        0.4363
     43 F           4.5471   -3.6941   20.6091 F       1  UNL1       -0.1666
     44 F           6.1977   -2.5949   20.4723 F       1  UNL1       -0.1666
     45 F           3.3999   -2.7125   19.5454 F       1  UNL1       -0.1666
@<TRIPOS>UNITY_ATOM_ATTR
24 1
charge -1
@<TRIPOS>BOND
     1    17    16    1
     2    17    18    1
     3    18    19    1
     4    19    23    1
     5    23    24   ar
     6    23    25   ar
     7    19    20    1
     8    20    21    1
     9    21    22    1
    10    22     1    1
    11     1     2    2
    12     1     3   am
    13     3     4    1
    14     4     5    1
    15     5     6    1
    16     6    26    1
    17    26    27    2
    18    26    28    2
    19    26    29    1
    20    29    30   ar
    21    30    31   ar
    22    31    32   ar
    23    32    33    1
    24    32    34   ar
    25    34    35   ar
    26     6     7    1
    27     7     8   ar
    28     8     9   ar
    29     9    10   ar
    30    10    36    1
    31    36    37    1
    32    36    38    1
    33    38    39    1
    34    38    40    1
    35    38    41    1
    36    36    42    1
    37    42    43    1
    38    42    44    1
    39    42    45    1
    40    10    11   ar
    41    11    12   ar
    42    12    13    1
    43    13    14    1
    44    15    14    1
    45    22    17    1
    46    15     3    1
    47    15     6    1
    48    35    29   ar
    49    12     7   ar
