@<TRIPOS>MOLECULE
*****
 38 42 0 0 0
SMALL
GASTEIGER

@<TRIPOS>ATOM
      1 C          -0.4414    2.7299   20.4486 C.3     1  UNL1        0.1631
      2 N          -1.4417    3.1138   21.4984 N.ar    1  UNL1       -0.3047
      3 C          -1.1681    3.2582   22.9661 C.ar    1  UNL1        0.1441
      4 N          -2.4485    3.6544   23.6395 N.ar    1  UNL1       -0.2267
      5 C          -3.5135    3.7549   22.5880 C.ar    1  UNL1        0.1010
      6 C          -4.9694    4.1075   22.6645 C.ar    1  UNL1        0.0526
      7 C          -5.8031    4.1260   21.4176 C.ar    1  UNL1        0.1690
      8 F          -7.2591    4.4785   21.4941 F       1  UNL1       -0.2017
      9 C          -5.1808    3.7919   20.0943 C.ar    1  UNL1        0.1689
     10 F          -6.0146    3.8104   18.8475 F       1  UNL1       -0.2017
     11 C          -3.7249    3.4393   20.0178 C.ar    1  UNL1        0.0507
     12 C          -2.8912    3.4208   21.2646 C.ar    1  UNL1        0.0816
     13 C           0.1539    3.0440   23.6418 C.ar    1  UNL1        0.0342
     14 C           0.4219    1.7640   24.3765 C.ar    1  UNL1        0.0039
     15 C           1.7439    1.5498   25.0522 C.ar    1  UNL1        0.0115
     16 C           2.7977    2.6155   24.9932 C.ar    1  UNL1        0.0577
     17 CL          4.1197    2.4013   25.6689 Cl      1  UNL1       -0.0822
     18 C           2.5297    3.8955   24.2586 C.ar    1  UNL1        0.0115
     19 C           1.2077    4.1097   23.5829 C.ar    1  UNL1        0.0039
     20 C          -0.1539    3.6626   19.3097 C.3     1  UNL1        0.0297
     21 C          -0.6874    3.3612   17.9404 C.3     1  UNL1        0.0024
     22 C          -0.4000    4.2940   16.8014 C.3     1  UNL1        0.0001
     23 C           0.4210    5.5281   17.0316 C.3     1  UNL1        0.0000
     24 C           0.9544    5.8295   18.4007 C.3     1  UNL1        0.0001
     25 C           0.6670    4.8968   19.5397 C.3     1  UNL1        0.0024
     26 N           1.7706    1.3726   20.5715 N.am    1  UNL1       -0.2824
     27 C           0.2715    1.4131   20.5378 C.2     1  UNL1        0.2468
     28 O          -0.1823   -0.0149   20.6089 O.2     1  UNL1       -0.2727
     29 H           2.2866    2.2102   20.5351 H       1  UNL1        0.1549
     30 C           3.9090   -2.5778   20.8393 C.ar    1  UNL1        0.0141
     31 C           3.6426   -1.7834   22.0834 C.ar    1  UNL1        0.0024
     32 C           2.9297   -0.4665   21.9941 C.ar    1  UNL1        0.0147
     33 C           2.4834    0.0558   20.6607 C.ar    1  UNL1        0.0503
     34 C           2.7498   -0.7387   19.4166 C.ar    1  UNL1        0.0147
     35 C           3.4626   -2.0554   19.5059 C.ar    1  UNL1        0.0024
     36 O           4.4817   -4.8997   19.8239 O.co2   1  UNL1       -0.5446
     37 C           4.6218   -3.8946   20.9285 C.2     1  UNL1        0.0729
     38 O           5.4747   -4.2063   22.1224 O.co2   1  UNL1       -0.5446
@<TRIPOS>UNITY_ATOM_ATTR
36 1
charge -1
@<TRIPOS>BOND
     1    36    37   ar
     2    37    38   ar
     3    37    30    1
     4    30    31   ar
     5    31    32   ar
     6    32    33   ar
     7    33    26    1
     8    26    27   am
     9    27    28    2
    10    27     1    1
    11     1    20    1
    12    20    21    1
    13    21    22    1
    14    22    23    1
    15    23    24    1
    16    24    25    1
    17     1     2    1
    18     2     3   ar
    19     3    13    1
    20    13    14   ar
    21    14    15   ar
    22    15    16   ar
    23    16    17    1
    24    16    18   ar
    25    18    19   ar
    26     3     4   ar
    27     4     5   ar
    28     5     6   ar
    29     6     7   ar
    30     7     8    1
    31     7     9   ar
    32     9    10    1
    33     9    11   ar
    34    11    12   ar
    35    33    34   ar
    36    34    35   ar
    37    35    30   ar
    38    25    20    1
    39    12     2   ar
    40    19    13   ar
    41    12     5   ar
    42    26    29    1
@<TRIPOS>MOLECULE
*****
 38 42 0 0 0
SMALL
GASTEIGER

@<TRIPOS>ATOM
      1 C          -0.4435    2.9679   20.4201 C.3     1  UNL1        0.1631
      2 N          -1.3591    3.3565   21.5429 N.ar    1  UNL1       -0.3047
      3 C          -2.6744    4.0639   21.4034 C.ar    1  UNL1        0.1441
      4 N          -3.2482    4.2506   22.7767 N.ar    1  UNL1       -0.2267
      5 C          -2.2875    3.6585   23.7649 C.ar    1  UNL1        0.1010
      6 C          -2.3251    3.5512   25.2605 C.ar    1  UNL1        0.0526
      7 C          -1.1951    2.8913   25.9937 C.ar    1  UNL1        0.1690
      8 F          -1.2326    2.7839   27.4894 F       1  UNL1       -0.2017
      9 C          -0.0275    2.3387   25.2312 C.ar    1  UNL1        0.1689
     10 F           1.1026    1.6788   25.9644 F       1  UNL1       -0.2017
     11 C           0.0101    2.4461   23.7355 C.ar    1  UNL1        0.0507
     12 C          -1.1200    3.1060   23.0024 C.ar    1  UNL1        0.0816
     13 C          -3.3051    4.5069   20.1166 C.ar    1  UNL1        0.0342
     14 C          -4.1307    3.5442   19.3156 C.ar    1  UNL1        0.0039
     15 C          -4.7615    3.9872   18.0287 C.ar    1  UNL1        0.0115
     16 C          -4.5667    5.3929   17.5429 C.ar    1  UNL1        0.0577
     17 CL         -5.1974    5.8359   16.2561 Cl      1  UNL1       -0.0822
     18 C          -3.7411    6.3556   18.3439 C.ar    1  UNL1        0.0115
     19 C          -3.1103    5.9126   19.6307 C.ar    1  UNL1        0.0039
     20 C          -0.2241    3.9076   19.2718 C.3     1  UNL1        0.0297
     21 C           0.4781    5.2142   19.4955 C.3     1  UNL1        0.0024
     22 C           0.6976    6.1539   18.3472 C.3     1  UNL1        0.0001
     23 C           0.2149    5.7872   16.9751 C.3     1  UNL1        0.0000
     24 C          -0.4872    4.4807   16.7514 C.3     1  UNL1        0.0001
     25 C          -0.7067    3.5409   17.8997 C.3     1  UNL1        0.0024
     26 N           1.7486    1.5747   20.3557 N.am    1  UNL1       -0.2824
     27 C           0.2526    1.6394   20.4456 C.2     1  UNL1        0.2468
     28 O          -0.2171    0.2186   20.5484 O.2     1  UNL1       -0.2727
     29 H           2.2735    2.4041   20.2800 H       1  UNL1        0.1549
     30 C           3.8367   -2.4108   20.4320 C.ar    1  UNL1        0.0141
     31 C           3.4786   -1.7767   19.1207 C.ar    1  UNL1        0.0024
     32 C           2.7826   -0.4481   19.0953 C.ar    1  UNL1        0.0147
     33 C           2.4446    0.2462   20.3812 C.ar    1  UNL1        0.0503
     34 C           2.8026   -0.3879   21.6926 C.ar    1  UNL1        0.0147
     35 C           3.4987   -1.7164   21.7180 C.ar    1  UNL1        0.0024
     36 O           4.7069   -4.5193   19.1882 O.co2   1  UNL1       -0.5446
     37 C           4.5327   -3.7392   20.4575 C.2     1  UNL1        0.0729
     38 O           5.0547   -4.2877   21.7525 O.co2   1  UNL1       -0.5446
@<TRIPOS>UNITY_ATOM_ATTR
36 1
charge -1
@<TRIPOS>BOND
     1    36    37   ar
     2    37    38   ar
     3    37    30    1
     4    30    31   ar
     5    31    32   ar
     6    32    33   ar
     7    33    26    1
     8    26    27   am
     9    27    28    2
    10    27     1    1
    11     1    20    1
    12    20    21    1
    13    21    22    1
    14    22    23    1
    15    23    24    1
    16    24    25    1
    17     1     2    1
    18     2     3   ar
    19     3    13    1
    20    13    14   ar
    21    14    15   ar
    22    15    16   ar
    23    16    17    1
    24    16    18   ar
    25    18    19   ar
    26     3     4   ar
    27     4     5   ar
    28     5     6   ar
    29     6     7   ar
    30     7     8    1
    31     7     9   ar
    32     9    10    1
    33     9    11   ar
    34    11    12   ar
    35    33    34   ar
    36    34    35   ar
    37    35    30   ar
    38    25    20    1
    39    12     2   ar
    40    19    13   ar
    41    12     5   ar
    42    26    29    1
@<TRIPOS>MOLECULE
*****
 38 42 0 0 0
SMALL
GASTEIGER

@<TRIPOS>ATOM
      1 C          -0.3481    3.4246   22.0414 C.3     1  UNL1        0.1631
      2 N          -1.8077    3.4692   22.3842 N.ar    1  UNL1       -0.3047
      3 C          -2.3891    3.4665   23.7669 C.ar    1  UNL1        0.1441
      4 N          -3.8829    3.5199   23.6416 N.ar    1  UNL1       -0.2267
      5 C          -4.2247    3.5557   22.1815 C.ar    1  UNL1        0.1010
      6 C          -5.5381    3.6127   21.4593 C.ar    1  UNL1        0.0526
      7 C          -5.5689    3.6384   19.9598 C.ar    1  UNL1        0.1690
      8 F          -6.8823    3.6955   19.2375 F       1  UNL1       -0.2017
      9 C          -4.2863    3.6070   19.1827 C.ar    1  UNL1        0.1689
     10 F          -4.3171    3.6327   17.6832 F       1  UNL1       -0.2017
     11 C          -2.9729    3.5500   19.9049 C.ar    1  UNL1        0.0507
     12 C          -2.9421    3.5243   21.4044 C.ar    1  UNL1        0.0816
     13 C          -1.6130    3.4187   25.0497 C.ar    1  UNL1        0.0342
     14 C          -0.8981    2.1615   25.4473 C.ar    1  UNL1        0.0039
     15 C          -0.1221    2.1137   26.7301 C.ar    1  UNL1        0.0115
     16 C          -0.0609    3.3232   27.6151 C.ar    1  UNL1        0.0577
     17 CL          0.7152    3.2754   28.8979 Cl      1  UNL1       -0.0822
     18 C          -0.7758    4.5804   27.2174 C.ar    1  UNL1        0.0115
     19 C          -1.5518    4.6282   25.9347 C.ar    1  UNL1        0.0039
     20 C           0.5278    4.6063   22.3350 C.3     1  UNL1        0.0297
     21 C           1.3503    4.6372   23.5891 C.3     1  UNL1        0.0024
     22 C           2.2262    5.8189   23.8827 C.3     1  UNL1        0.0001
     23 C           2.2796    6.9699   22.9223 C.3     1  UNL1        0.0000
     24 C           1.4571    6.9391   21.6683 C.3     1  UNL1        0.0001
     25 C           0.5812    5.7573   21.3746 C.3     1  UNL1        0.0024
     26 N           1.7208    2.0784   21.2301 N.am    1  UNL1       -0.2824
     27 C           0.2358    2.1981   21.4050 C.2     1  UNL1        0.2468
     28 O          -0.3495    0.9361   20.8439 O.2     1  UNL1       -0.2727
     29 H           2.3122    2.8049   21.5329 H       1  UNL1        0.1549
     30 C           3.4720   -1.6009   19.3207 C.ar    1  UNL1        0.0141
     31 C           3.1170   -0.4139   18.4752 C.ar    1  UNL1        0.0024
     32 C           2.5332    0.8126   19.1117 C.ar    1  UNL1        0.0147
     33 C           2.3045    0.8520   20.5937 C.ar    1  UNL1        0.0503
     34 C           2.6595   -0.3351   21.4392 C.ar    1  UNL1        0.0147
     35 C           3.2432   -1.5615   20.8027 C.ar    1  UNL1        0.0024
     36 O           3.4408   -4.1711   18.9419 O.co2   1  UNL1       -0.5446
     37 C           4.0557   -2.8274   18.6843 C.2     1  UNL1        0.0729
     38 O           5.2545   -2.7101   17.7904 O.co2   1  UNL1       -0.5446
@<TRIPOS>UNITY_ATOM_ATTR
36 1
charge -1
@<TRIPOS>BOND
     1    36    37   ar
     2    37    38   ar
     3    37    30    1
     4    30    31   ar
     5    31    32   ar
     6    32    33   ar
     7    33    26    1
     8    26    27   am
     9    27    28    2
    10    27     1    1
    11     1    20    1
    12    20    21    1
    13    21    22    1
    14    22    23    1
    15    23    24    1
    16    24    25    1
    17     1     2    1
    18     2     3   ar
    19     3    13    1
    20    13    14   ar
    21    14    15   ar
    22    15    16   ar
    23    16    17    1
    24    16    18   ar
    25    18    19   ar
    26     3     4   ar
    27     4     5   ar
    28     5     6   ar
    29     6     7   ar
    30     7     8    1
    31     7     9   ar
    32     9    10    1
    33     9    11   ar
    34    11    12   ar
    35    33    34   ar
    36    34    35   ar
    37    35    30   ar
    38    25    20    1
    39    12     2   ar
    40    19    13   ar
    41    12     5   ar
    42    26    29    1
@<TRIPOS>MOLECULE
*****
 38 42 0 0 0
SMALL
GASTEIGER

@<TRIPOS>ATOM
      1 C         -16.0994   -5.8903   19.0335 C.3     1  UNL1        0.1631
      2 N         -15.0195   -6.7099   18.3915 N.ar    1  UNL1       -0.3047
      3 C         -15.2153   -7.9940   17.6415 C.ar    1  UNL1        0.1441
      4 N         -13.8710   -8.4670   17.1734 N.ar    1  UNL1       -0.2267
      5 C         -12.8444   -7.4752   17.6341 C.ar    1  UNL1        0.1010
      6 C         -11.3549   -7.4206   17.4654 C.ar    1  UNL1        0.0526
      7 C         -10.5753   -6.2801   18.0496 C.ar    1  UNL1        0.1690
      8 F          -9.0858   -6.2255   17.8809 F       1  UNL1       -0.2017
      9 C         -11.2851   -5.1941   18.8025 C.ar    1  UNL1        0.1689
     10 F         -10.5054   -4.0535   19.3867 F       1  UNL1       -0.2017
     11 C         -12.7746   -5.2487   18.9712 C.ar    1  UNL1        0.0507
     12 C         -13.5542   -6.3892   18.3870 C.ar    1  UNL1        0.0816
     13 C         -16.5254   -8.6840   17.4016 C.ar    1  UNL1        0.0342
     14 C         -17.5093   -8.1076   16.4271 C.ar    1  UNL1        0.0039
     15 C         -18.8194   -8.7976   16.1872 C.ar    1  UNL1        0.0115
     16 C         -19.1456  -10.0640   16.9218 C.ar    1  UNL1        0.0577
     17 CL        -20.4557  -10.7541   16.6819 Cl      1  UNL1       -0.0822
     18 C         -18.1618  -10.6405   17.8963 C.ar    1  UNL1        0.0115
     19 C         -16.8517   -9.9504   18.1362 C.ar    1  UNL1        0.0039
     20 C         -17.4074   -6.5271   19.3987 C.3     1  UNL1        0.0297
     21 C         -17.4335   -7.7151   20.3142 C.3     1  UNL1        0.0024
     22 C         -18.7415   -8.3520   20.6795 C.3     1  UNL1        0.0001
     23 C         -20.0236   -7.8008   20.1293 C.3     1  UNL1        0.0000
     24 C         -19.9975   -6.6128   19.2139 C.3     1  UNL1        0.0001
     25 C         -18.6895   -5.9759   18.8486 C.3     1  UNL1        0.0024
     26 N         -16.1676   -3.4137   18.2510 N.am    1  UNL1       -0.2824
     27 C         -15.8712   -4.4337   19.3102 C.2     1  UNL1        0.2468
     28 O         -15.3719   -3.6642   20.4970 O.2     1  UNL1       -0.2727
     29 H         -16.5118   -3.7001   17.3743 H       1  UNL1        0.1549
     30 C         -15.4832    0.9558   19.0814 C.ar    1  UNL1        0.0141
     31 C         -16.7679    0.3049   19.5006 C.ar    1  UNL1        0.0024
     32 C         -16.9961   -1.1516   19.2238 C.ar    1  UNL1        0.0147
     33 C         -15.9394   -1.9572   18.5278 C.ar    1  UNL1        0.0503
     34 C         -14.6546   -1.3064   18.1085 C.ar    1  UNL1        0.0147
     35 C         -14.4265    0.1501   18.3853 C.ar    1  UNL1        0.0024
     36 O         -15.9293    3.0684   20.5264 O.co2   1  UNL1       -0.5446
     37 C         -15.2550    2.4123   19.3581 C.2     1  UNL1        0.0729
     38 O         -14.3525    3.2126   18.4665 O.co2   1  UNL1       -0.5446
@<TRIPOS>UNITY_ATOM_ATTR
36 1
charge -1
@<TRIPOS>BOND
     1    36    37   ar
     2    37    38   ar
     3    37    30    1
     4    30    31   ar
     5    31    32   ar
     6    32    33   ar
     7    33    26    1
     8    26    27   am
     9    27    28    2
    10    27     1    1
    11     1    20    1
    12    20    21    1
    13    21    22    1
    14    22    23    1
    15    23    24    1
    16    24    25    1
    17     1     2    1
    18     2     3   ar
    19     3    13    1
    20    13    14   ar
    21    14    15   ar
    22    15    16   ar
    23    16    17    1
    24    16    18   ar
    25    18    19   ar
    26     3     4   ar
    27     4     5   ar
    28     5     6   ar
    29     6     7   ar
    30     7     8    1
    31     7     9   ar
    32     9    10    1
    33     9    11   ar
    34    11    12   ar
    35    33    34   ar
    36    34    35   ar
    37    35    30   ar
    38    25    20    1
    39    12     2   ar
    40    19    13   ar
    41    12     5   ar
    42    26    29    1
@<TRIPOS>MOLECULE
*****
 38 42 0 0 0
SMALL
GASTEIGER

@<TRIPOS>ATOM
      1 C           6.7776   -2.6231   24.5260 C.3     1  UNL1        0.1631
      2 N           7.2508   -3.9812   24.0999 N.ar    1  UNL1       -0.3047
      3 C           7.5640   -4.4052   22.6955 C.ar    1  UNL1        0.1441
      4 N           8.0005   -5.8398   22.7310 N.ar    1  UNL1       -0.2267
      5 C           7.9571   -6.3025   24.1572 C.ar    1  UNL1        0.1010
      6 C           8.2796   -7.6213   24.7948 C.ar    1  UNL1        0.0526
      7 C           8.1388   -7.7915   26.2784 C.ar    1  UNL1        0.1690
      8 F           8.4613   -9.1104   26.9161 F       1  UNL1       -0.2017
      9 C           7.6754   -6.6428   27.1245 C.ar    1  UNL1        0.1689
     10 F           7.5346   -6.8129   28.6082 F       1  UNL1       -0.2017
     11 C           7.3529   -5.3239   26.4869 C.ar    1  UNL1        0.0507
     12 C           7.4937   -5.1538   25.0032 C.ar    1  UNL1        0.0816
     13 C           7.4591   -3.5455   21.4708 C.ar    1  UNL1        0.0342
     14 C           6.3538   -3.7780   20.4838 C.ar    1  UNL1        0.0039
     15 C           6.2489   -2.9183   19.2591 C.ar    1  UNL1        0.0115
     16 C           7.2492   -1.8262   19.0214 C.ar    1  UNL1        0.0577
     17 CL          7.1443   -0.9665   17.7967 Cl      1  UNL1       -0.0822
     18 C           8.3545   -1.5937   20.0084 C.ar    1  UNL1        0.0115
     19 C           8.4594   -2.4534   21.2332 C.ar    1  UNL1        0.0039
     20 C           7.2541   -2.0351   25.8210 C.3     1  UNL1        0.0297
     21 C           8.7071   -1.7133   26.0091 C.3     1  UNL1        0.0024
     22 C           9.1837   -1.1253   27.3041 C.3     1  UNL1        0.0001
     23 C           8.2072   -0.8590   28.4112 C.3     1  UNL1        0.0000
     24 C           6.7542   -1.1807   28.2232 C.3     1  UNL1        0.0001
     25 C           6.2777   -1.7687   26.9281 C.3     1  UNL1        0.0024
     26 N           4.4306   -2.3552   23.4442 N.am    1  UNL1       -0.2824
     27 C           5.8279   -1.8529   23.6571 C.2     1  UNL1        0.2468
     28 O           5.9343   -0.5808   22.8694 O.2     1  UNL1       -0.2727
     29 H           4.1369   -3.1904   23.8748 H       1  UNL1        0.1549
     30 C           1.5818   -0.0445   20.8376 C.ar    1  UNL1        0.0141
     31 C           1.7599    0.3382   22.2770 C.ar    1  UNL1        0.0024
     32 C           2.7095   -0.4321   23.1459 C.ar    1  UNL1        0.0147
     33 C           3.4811   -1.5850   22.5753 C.ar    1  UNL1        0.0503
     34 C           3.3030   -1.9677   21.1360 C.ar    1  UNL1        0.0147
     35 C           2.3533   -1.1974   20.2671 C.ar    1  UNL1        0.0024
     36 O          -0.4697    1.5306   20.5916 O.co2   1  UNL1       -0.5446
     37 C           0.6322    0.7257   19.9687 C.2     1  UNL1        0.0729
     38 O           0.7845    0.6910   18.4769 O.co2   1  UNL1       -0.5446
@<TRIPOS>UNITY_ATOM_ATTR
36 1
charge -1
@<TRIPOS>BOND
     1    36    37   ar
     2    37    38   ar
     3    37    30    1
     4    30    31   ar
     5    31    32   ar
     6    32    33   ar
     7    33    26    1
     8    26    27   am
     9    27    28    2
    10    27     1    1
    11     1    20    1
    12    20    21    1
    13    21    22    1
    14    22    23    1
    15    23    24    1
    16    24    25    1
    17     1     2    1
    18     2     3   ar
    19     3    13    1
    20    13    14   ar
    21    14    15   ar
    22    15    16   ar
    23    16    17    1
    24    16    18   ar
    25    18    19   ar
    26     3     4   ar
    27     4     5   ar
    28     5     6   ar
    29     6     7   ar
    30     7     8    1
    31     7     9   ar
    32     9    10    1
    33     9    11   ar
    34    11    12   ar
    35    33    34   ar
    36    34    35   ar
    37    35    30   ar
    38    25    20    1
    39    12     2   ar
    40    19    13   ar
    41    12     5   ar
    42    26    29    1
@<TRIPOS>MOLECULE
*****
 38 42 0 0 0
SMALL
GASTEIGER

@<TRIPOS>ATOM
      1 C           5.7183   -1.5894   28.9950 C.3     1  UNL1        0.1631
      2 N           6.2320   -2.9110   29.4842 N.ar    1  UNL1       -0.3047
      3 C           6.3814   -3.3227   30.9188 C.ar    1  UNL1        0.1441
      4 N           6.9283   -4.7191   30.9458 N.ar    1  UNL1       -0.2267
      5 C           7.1170   -5.1706   29.5278 C.ar    1  UNL1        0.1010
      6 C           7.6250   -6.4548   28.9425 C.ar    1  UNL1        0.0526
      7 C           7.7027   -6.6215   27.4539 C.ar    1  UNL1        0.1690
      8 F           8.2108   -7.9058   26.8685 F       1  UNL1       -0.2017
      9 C           7.2724   -5.5040   26.5505 C.ar    1  UNL1        0.1689
     10 F           7.3502   -5.6708   25.0618 F       1  UNL1       -0.2017
     11 C           6.7644   -4.2198   27.1358 C.ar    1  UNL1        0.0507
     12 C           6.6867   -4.0531   28.6245 C.ar    1  UNL1        0.0816
     13 C           6.0431   -2.4849   32.1162 C.ar    1  UNL1        0.0342
     14 C           4.6447   -2.4820   32.6588 C.ar    1  UNL1        0.0039
     15 C           4.3065   -1.6443   33.8562 C.ar    1  UNL1        0.0115
     16 C           5.3667   -0.8095   34.5111 C.ar    1  UNL1        0.0577
     17 CL          5.0285    0.0283   35.7085 Cl      1  UNL1       -0.0822
     18 C           6.7652   -0.8124   33.9686 C.ar    1  UNL1        0.0115
     19 C           7.1034   -1.6501   32.7712 C.ar    1  UNL1        0.0039
     20 C           6.0044   -0.3391   29.7727 C.3     1  UNL1        0.0297
     21 C           4.8943    0.3658   30.4946 C.3     1  UNL1        0.0024
     22 C           5.1804    1.6161   31.2723 C.3     1  UNL1        0.0001
     23 C           6.5766    2.1616   31.3281 C.3     1  UNL1        0.0000
     24 C           7.6866    1.4568   30.6063 C.3     1  UNL1        0.0001
     25 C           7.4006    0.2065   29.8286 C.3     1  UNL1        0.0024
     26 N           5.5693   -1.0658   26.4545 N.am    1  UNL1       -0.2824
     27 C           4.9183   -1.5180   27.7281 C.2     1  UNL1        0.2468
     28 O           3.4898   -1.8143   27.3796 O.2     1  UNL1       -0.2727
     29 H           6.5215   -0.8159   26.4502 H       1  UNL1        0.1549
     30 C           3.1694   -0.8519   22.6539 C.ar    1  UNL1        0.0141
     31 C           3.9882   -2.0718   22.9562 C.ar    1  UNL1        0.0024
     32 C           4.7882   -2.1431   24.2232 C.ar    1  UNL1        0.0147
     33 C           4.7693   -0.9944   25.1877 C.ar    1  UNL1        0.0503
     34 C           3.9505    0.2254   24.8854 C.ar    1  UNL1        0.0147
     35 C           3.1505    0.2967   23.6185 C.ar    1  UNL1        0.0024
     36 O           1.2063    0.1614   21.2864 O.co2   1  UNL1       -0.5446
     37 C           2.3694   -0.7805   21.3871 C.2     1  UNL1        0.0729
     38 O           2.7325   -1.6512   20.2208 O.co2   1  UNL1       -0.5446
@<TRIPOS>UNITY_ATOM_ATTR
36 1
charge -1
@<TRIPOS>BOND
     1    36    37   ar
     2    37    38   ar
     3    37    30    1
     4    30    31   ar
     5    31    32   ar
     6    32    33   ar
     7    33    26    1
     8    26    27   am
     9    27    28    2
    10    27     1    1
    11     1    20    1
    12    20    21    1
    13    21    22    1
    14    22    23    1
    15    23    24    1
    16    24    25    1
    17     1     2    1
    18     2     3   ar
    19     3    13    1
    20    13    14   ar
    21    14    15   ar
    22    15    16   ar
    23    16    17    1
    24    16    18   ar
    25    18    19   ar
    26     3     4   ar
    27     4     5   ar
    28     5     6   ar
    29     6     7   ar
    30     7     8    1
    31     7     9   ar
    32     9    10    1
    33     9    11   ar
    34    11    12   ar
    35    33    34   ar
    36    34    35   ar
    37    35    30   ar
    38    25    20    1
    39    12     2   ar
    40    19    13   ar
    41    12     5   ar
    42    26    29    1
@<TRIPOS>MOLECULE
*****
 38 42 0 0 0
SMALL
GASTEIGER

@<TRIPOS>ATOM
      1 C         -15.4366   -2.5885   18.4480 C.3     1  UNL1        0.1631
      2 N         -13.9789   -2.2534   18.3349 N.ar    1  UNL1       -0.3047
      3 C         -13.4072   -0.9118   17.9841 C.ar    1  UNL1        0.1441
      4 N         -11.9119   -1.0305   17.9852 N.ar    1  UNL1       -0.2267
      5 C         -11.5594   -2.4454   18.3367 C.ar    1  UNL1        0.1010
      6 C         -10.2403   -3.1433   18.4880 C.ar    1  UNL1        0.0526
      7 C         -10.1987   -4.5970   18.8553 C.ar    1  UNL1        0.1690
      8 F          -8.8795   -5.2949   19.0066 F       1  UNL1       -0.2017
      9 C         -11.4762   -5.3528   19.0715 C.ar    1  UNL1        0.1689
     10 F         -11.4345   -6.8066   19.4388 F       1  UNL1       -0.2017
     11 C         -12.7953   -4.6550   18.9202 C.ar    1  UNL1        0.0507
     12 C         -12.8369   -3.2013   18.5529 C.ar    1  UNL1        0.0816
     13 C         -14.1928    0.3305   17.6846 C.ar    1  UNL1        0.0342
     14 C         -14.4151    1.3543   18.7581 C.ar    1  UNL1        0.0039
     15 C         -15.2007    2.5965   18.4587 C.ar    1  UNL1        0.0115
     16 C         -15.7641    2.8149   17.0858 C.ar    1  UNL1        0.0577
     17 CL        -16.5498    4.0571   16.7864 Cl      1  UNL1       -0.0822
     18 C         -15.5419    1.7911   16.0124 C.ar    1  UNL1        0.0115
     19 C         -14.7562    0.5489   16.3118 C.ar    1  UNL1        0.0039
     20 C         -16.4302   -1.5132   18.7740 C.3     1  UNL1        0.0297
     21 C         -16.4659   -0.9173   20.1502 C.3     1  UNL1        0.0024
     22 C         -17.4596    0.1580   20.4764 C.3     1  UNL1        0.0001
     23 C         -18.4176    0.6374   19.4263 C.3     1  UNL1        0.0000
     24 C         -18.3818    0.0416   18.0503 C.3     1  UNL1        0.0001
     25 C         -17.3882   -1.0337   17.7241 C.3     1  UNL1        0.0024
     26 N         -15.9037   -4.9685   19.3794 N.am    1  UNL1       -0.2824
     27 C         -15.9007   -3.9989   18.2349 C.2     1  UNL1        0.2468
     28 O         -16.4134   -4.7591   17.0478 O.2     1  UNL1       -0.2727
     29 H         -15.6011   -4.6792   20.2704 H       1  UNL1        0.1549
     30 C         -17.2963   -9.1996   18.7400 C.ar    1  UNL1        0.0141
     31 C         -18.2716   -8.1468   19.1763 C.ar    1  UNL1        0.0024
     32 C         -17.8074   -6.7364   19.3894 C.ar    1  UNL1        0.0147
     33 C         -16.3678   -6.3788   19.1663 C.ar    1  UNL1        0.0503
     34 C         -15.3925   -7.4316   18.7300 C.ar    1  UNL1        0.0147
     35 C         -15.8567   -8.8419   18.5169 C.ar    1  UNL1        0.0024
     36 O         -19.0984  -10.8729   17.9018 O.co2   1  UNL1       -0.5446
     37 C         -17.7604  -10.6099   18.5269 C.2     1  UNL1        0.0729
     38 O         -16.8865  -11.7574   18.9388 O.co2   1  UNL1       -0.5446
@<TRIPOS>UNITY_ATOM_ATTR
36 1
charge -1
@<TRIPOS>BOND
     1    36    37   ar
     2    37    38   ar
     3    37    30    1
     4    30    31   ar
     5    31    32   ar
     6    32    33   ar
     7    33    26    1
     8    26    27   am
     9    27    28    2
    10    27     1    1
    11     1    20    1
    12    20    21    1
    13    21    22    1
    14    22    23    1
    15    23    24    1
    16    24    25    1
    17     1     2    1
    18     2     3   ar
    19     3    13    1
    20    13    14   ar
    21    14    15   ar
    22    15    16   ar
    23    16    17    1
    24    16    18   ar
    25    18    19   ar
    26     3     4   ar
    27     4     5   ar
    28     5     6   ar
    29     6     7   ar
    30     7     8    1
    31     7     9   ar
    32     9    10    1
    33     9    11   ar
    34    11    12   ar
    35    33    34   ar
    36    34    35   ar
    37    35    30   ar
    38    25    20    1
    39    12     2   ar
    40    19    13   ar
    41    12     5   ar
    42    26    29    1
@<TRIPOS>MOLECULE
*****
 38 42 0 0 0
SMALL
GASTEIGER

@<TRIPOS>ATOM
      1 C           0.6045    3.0842   21.3847 C.3     1  UNL1        0.1631
      2 N           0.7960    2.1729   22.5607 N.ar    1  UNL1       -0.3047
      3 C           1.7061    0.9818   22.6140 C.ar    1  UNL1        0.1441
      4 N           1.5837    0.3656   23.9761 N.ar    1  UNL1       -0.2267
      5 C           0.5979    1.1758   24.7645 C.ar    1  UNL1        0.1010
      6 C           0.0806    1.0408   26.1660 C.ar    1  UNL1        0.0526
      7 C          -0.9234    2.0229   26.6927 C.ar    1  UNL1        0.1690
      8 F          -1.4407    1.8879   28.0943 F       1  UNL1       -0.2017
      9 C          -1.4102    3.1399   25.8179 C.ar    1  UNL1        0.1689
     10 F          -2.4143    4.1220   26.3447 F       1  UNL1       -0.2017
     11 C          -0.8929    3.2749   24.4165 C.ar    1  UNL1        0.0507
     12 C           0.1111    2.2929   23.8898 C.ar    1  UNL1        0.0816
     13 C           2.5845    0.4927   21.5007 C.ar    1  UNL1        0.0342
     14 C           4.0247    0.9081   21.4440 C.ar    1  UNL1        0.0039
     15 C           4.9030    0.4190   20.3308 C.ar    1  UNL1        0.0115
     16 C           4.3411   -0.4854   19.2742 C.ar    1  UNL1        0.0577
     17 CL          5.2195   -0.9744   18.1609 Cl      1  UNL1       -0.0822
     18 C           2.9009   -0.9007   19.3309 C.ar    1  UNL1        0.0115
     19 C           2.0226   -0.4116   20.4442 C.ar    1  UNL1        0.0039
     20 C           1.7690    3.4266   20.5036 C.3     1  UNL1        0.0297
     21 C           1.8078    2.9347   19.0870 C.3     1  UNL1        0.0024
     22 C           2.9724    3.2771   18.2058 C.3     1  UNL1        0.0001
     23 C           4.0982    4.1113   18.7412 C.3     1  UNL1        0.0000
     24 C           4.0594    4.6031   20.1577 C.3     1  UNL1        0.0001
     25 C           2.8949    4.2608   21.0389 C.3     1  UNL1        0.0024
     26 N          -1.9069    2.7358   20.8171 N.am    1  UNL1       -0.2824
     27 C          -0.7519    3.6532   21.0898 C.2     1  UNL1        0.2468
     28 O          -1.2979    5.0466   20.9891 O.2     1  UNL1       -0.2727
     29 H          -1.7748    1.7603   20.8316 H       1  UNL1        0.1549
     30 C          -5.9756    4.4428   19.9327 C.ar    1  UNL1        0.0141
     31 C          -5.6250    4.0251   21.3301 C.ar    1  UNL1        0.0024
     32 C          -4.2687    3.4561   21.6249 C.ar    1  UNL1        0.0147
     33 C          -3.2631    3.3048   20.5222 C.ar    1  UNL1        0.0503
     34 C          -3.6136    3.7225   19.1249 C.ar    1  UNL1        0.0147
     35 C          -4.9698    4.2915   18.8302 C.ar    1  UNL1        0.0024
     36 O          -8.0100    5.8937   20.6439 O.co2   1  UNL1       -0.5446
     37 C          -7.3318    5.0118   19.6379 C.2     1  UNL1        0.0729
     38 O          -8.0097    4.6988   18.3369 O.co2   1  UNL1       -0.5446
@<TRIPOS>UNITY_ATOM_ATTR
36 1
charge -1
@<TRIPOS>BOND
     1    36    37   ar
     2    37    38   ar
     3    37    30    1
     4    30    31   ar
     5    31    32   ar
     6    32    33   ar
     7    33    26    1
     8    26    27   am
     9    27    28    2
    10    27     1    1
    11     1    20    1
    12    20    21    1
    13    21    22    1
    14    22    23    1
    15    23    24    1
    16    24    25    1
    17     1     2    1
    18     2     3   ar
    19     3    13    1
    20    13    14   ar
    21    14    15   ar
    22    15    16   ar
    23    16    17    1
    24    16    18   ar
    25    18    19   ar
    26     3     4   ar
    27     4     5   ar
    28     5     6   ar
    29     6     7   ar
    30     7     8    1
    31     7     9   ar
    32     9    10    1
    33     9    11   ar
    34    11    12   ar
    35    33    34   ar
    36    34    35   ar
    37    35    30   ar
    38    25    20    1
    39    12     2   ar
    40    19    13   ar
    41    12     5   ar
    42    26    29    1
@<TRIPOS>MOLECULE
*****
 38 42 0 0 0
SMALL
GASTEIGER

@<TRIPOS>ATOM
      1 C           1.9484    1.3762   21.6132 C.3     1  UNL1        0.1631
      2 N           1.1771    2.0499   20.5172 N.ar    1  UNL1       -0.3047
      3 C           1.6264    2.2145   19.0956 C.ar    1  UNL1        0.1441
      4 N           0.5481    2.9437   18.3502 N.ar    1  UNL1       -0.2267
      5 C          -0.5676    3.2297   19.3112 C.ar    1  UNL1        0.1010
      6 C          -1.8873    3.9217   19.1397 C.ar    1  UNL1        0.0526
      7 C          -2.8182    4.0614   20.3076 C.ar    1  UNL1        0.1690
      8 F          -4.1380    4.7535   20.1361 F       1  UNL1       -0.2017
      9 C          -2.4294    3.5090   21.6469 C.ar    1  UNL1        0.1689
     10 F          -3.3604    3.6487   22.8147 F       1  UNL1       -0.2017
     11 C          -1.1097    2.8170   21.8183 C.ar    1  UNL1        0.0507
     12 C          -0.1788    2.6773   20.6505 C.ar    1  UNL1        0.0816
     13 C           2.9258    1.7343   18.5203 C.ar    1  UNL1        0.0342
     14 C           4.1479    2.6001   18.6024 C.ar    1  UNL1        0.0039
     15 C           5.4473    2.1199   18.0271 C.ar    1  UNL1        0.0115
     16 C           5.5246    0.7739   17.3697 C.ar    1  UNL1        0.0577
     17 CL          6.8240    0.2937   16.7945 Cl      1  UNL1       -0.0822
     18 C           4.3025   -0.0919   17.2876 C.ar    1  UNL1        0.0115
     19 C           3.0031    0.3883   17.8629 C.ar    1  UNL1        0.0039
     20 C           2.9221    0.2840   21.2832 C.3     1  UNL1        0.0297
     21 C           2.4216   -1.0543   20.8265 C.3     1  UNL1        0.0024
     22 C           3.3953   -2.1465   20.4964 C.3     1  UNL1        0.0001
     23 C           4.8696   -1.9004   20.6230 C.3     1  UNL1        0.0000
     24 C           5.3701   -0.5622   21.0796 C.3     1  UNL1        0.0001
     25 C           4.3964    0.5300   21.4097 C.3     1  UNL1        0.0024
     26 N           1.3209    0.7850   24.0642 N.am    1  UNL1       -0.2824
     27 C           1.7459    1.7947   23.0394 C.2     1  UNL1        0.2468
     28 O           1.8742    3.0977   23.7713 O.2     1  UNL1       -0.2727
     29 H           1.1748   -0.1522   23.8007 H       1  UNL1        0.1549
     30 C           0.7138    2.0406   28.3426 C.ar    1  UNL1        0.0141
     31 C           2.0791    1.6449   27.8636 C.ar    1  UNL1        0.0024
     32 C           2.2814    1.2264   26.4374 C.ar    1  UNL1        0.0147
     33 C           1.1185    1.2036   25.4903 C.ar    1  UNL1        0.0503
     34 C          -0.2468    1.5993   25.9693 C.ar    1  UNL1        0.0147
     35 C          -0.4491    2.0178   27.3954 C.ar    1  UNL1        0.0024
     36 O           0.1341    1.4404   30.8030 O.co2   1  UNL1       -0.5446
     37 C           0.5114    2.4591   29.7687 C.2     1  UNL1        0.0729
     38 O           0.6863    3.8965   30.1605 O.co2   1  UNL1       -0.5446
@<TRIPOS>UNITY_ATOM_ATTR
36 1
charge -1
@<TRIPOS>BOND
     1    36    37   ar
     2    37    38   ar
     3    37    30    1
     4    30    31   ar
     5    31    32   ar
     6    32    33   ar
     7    33    26    1
     8    26    27   am
     9    27    28    2
    10    27     1    1
    11     1    20    1
    12    20    21    1
    13    21    22    1
    14    22    23    1
    15    23    24    1
    16    24    25    1
    17     1     2    1
    18     2     3   ar
    19     3    13    1
    20    13    14   ar
    21    14    15   ar
    22    15    16   ar
    23    16    17    1
    24    16    18   ar
    25    18    19   ar
    26     3     4   ar
    27     4     5   ar
    28     5     6   ar
    29     6     7   ar
    30     7     8    1
    31     7     9   ar
    32     9    10    1
    33     9    11   ar
    34    11    12   ar
    35    33    34   ar
    36    34    35   ar
    37    35    30   ar
    38    25    20    1
    39    12     2   ar
    40    19    13   ar
    41    12     5   ar
    42    26    29    1
