@<TRIPOS>MOLECULE
*****
 25 28 0 0 0
SMALL
GASTEIGER

@<TRIPOS>ATOM
      1 N          -7.8359  -17.7918   22.1833 N.pl3   1  UNL1       -0.2860
      2 C          -9.1673  -18.1759   21.6090 C.ar    1  UNL1        0.0576
      3 C          -9.2360  -19.0780   20.4125 C.ar    1  UNL1        0.0153
      4 C         -10.5673  -19.4620   19.8383 C.ar    1  UNL1        0.0013
      5 C         -11.8301  -18.9440   20.4604 C.ar    1  UNL1        0.0006
      6 C         -11.7615  -18.0420   21.6569 C.ar    1  UNL1        0.0077
      7 C         -10.4301  -17.6579   22.2311 C.ar    1  UNL1        0.0431
      8 S         -10.3614  -16.7558   23.4277 S.3     1  UNL1       -0.0844
      9 C          -9.0300  -16.3717   24.0019 C.ar    1  UNL1        0.0431
     10 C          -8.9614  -15.4696   25.1984 C.ar    1  UNL1        0.0086
     11 C          -7.6300  -15.0856   25.7727 C.ar    1  UNL1        0.0120
     12 C          -6.3672  -15.6036   25.1505 C.ar    1  UNL1        0.0589
     13 CL         -5.0358  -15.2195   25.7248 Cl      1  UNL1       -0.0822
     14 C          -6.4358  -16.5056   23.9541 C.ar    1  UNL1        0.0267
     15 C          -7.7673  -16.8897   23.3798 C.ar    1  UNL1        0.0585
     16 C          -6.5731  -18.3098   21.5611 C.3     1  UNL1        0.0970
     17 C          -6.2004  -19.7548   21.7125 C.3     1  UNL1        0.0391
     18 C          -5.1382  -20.3511   20.8371 C.3     1  UNL1        0.0739
     19 C           0.0727  -17.4792   20.0633 C.3     1  UNL1        0.0897
     20 N          -1.2301  -18.1972   20.2567 N.3     1  UNL1       -0.2691
     21 C          -1.6231  -18.6836   21.6202 C.3     1  UNL1        0.0897
     22 C          -2.9257  -19.4015   21.8136 C.3     1  UNL1        0.0897
     23 N          -3.8354  -19.6331   20.6437 N.3     1  UNL1       -0.2703
     24 C          -3.4424  -19.1466   19.2803 C.3     1  UNL1        0.0897
     25 C          -2.1397  -18.4287   19.0868 C.3     1  UNL1        0.0897
@<TRIPOS>BOND
     1    19    20    1
     2    20    21    1
     3    21    22    1
     4    22    23    1
     5    23    18    1
     6    18    17    1
     7    17    16    1
     8    16     1    1
     9     1     2    1
    10     2     3   ar
    11     3     4   ar
    12     4     5   ar
    13     5     6   ar
    14     6     7   ar
    15     7     8    1
    16     8     9    1
    17     9    10   ar
    18    10    11   ar
    19    11    12   ar
    20    12    13    1
    21    12    14   ar
    22    14    15   ar
    23    23    24    1
    24    24    25    1
    25    25    20    1
    26    15     1    1
    27     7     2   ar
    28    15     9   ar
@<TRIPOS>MOLECULE
*****
 25 28 0 0 0
SMALL
GASTEIGER

@<TRIPOS>ATOM
      1 N          -6.1534  -18.5618   22.1399 N.pl3   1  UNL1       -0.2860
      2 C          -4.6634  -18.6971   22.0317 C.ar    1  UNL1        0.0576
      3 C          -4.0683  -19.8077   21.2178 C.ar    1  UNL1        0.0153
      4 C          -2.5784  -19.9429   21.1096 C.ar    1  UNL1        0.0013
      5 C          -1.6835  -18.9676   21.8153 C.ar    1  UNL1        0.0006
      6 C          -2.2786  -17.8570   22.6292 C.ar    1  UNL1        0.0077
      7 C          -3.7686  -17.7218   22.7374 C.ar    1  UNL1        0.0431
      8 S          -4.3637  -16.6112   23.5514 S.3     1  UNL1       -0.0844
      9 C          -5.8537  -16.4760   23.6596 C.ar    1  UNL1        0.0431
     10 C          -6.4489  -15.3654   24.4735 C.ar    1  UNL1        0.0086
     11 C          -7.9388  -15.2302   24.5817 C.ar    1  UNL1        0.0120
     12 C          -8.8336  -16.2055   23.8760 C.ar    1  UNL1        0.0589
     13 CL        -10.3236  -16.0703   23.9842 Cl      1  UNL1       -0.0822
     14 C          -8.2385  -17.3160   23.0621 C.ar    1  UNL1        0.0267
     15 C          -6.7485  -17.4513   22.9538 C.ar    1  UNL1        0.0585
     16 C          -7.0482  -19.5372   21.4342 C.3     1  UNL1        0.0970
     17 C          -7.5297  -19.2432   20.0444 C.3     1  UNL1        0.0391
     18 C          -8.9544  -19.5248   19.6690 C.3     1  UNL1        0.0739
     19 C         -13.4102  -17.8007   23.2986 C.3     1  UNL1        0.0897
     20 N         -12.2962  -18.2317   22.3912 N.3     1  UNL1       -0.2691
     21 C         -11.4403  -19.4069   22.7603 C.3     1  UNL1        0.0897
     22 C         -10.3264  -19.8379   21.8530 C.3     1  UNL1        0.0897
     23 N         -10.0684  -19.0938   20.5764 N.3     1  UNL1       -0.2703
     24 C         -10.9243  -17.9186   20.2073 C.3     1  UNL1        0.0897
     25 C         -12.0382  -17.4875   21.1146 C.3     1  UNL1        0.0897
@<TRIPOS>BOND
     1    19    20    1
     2    20    21    1
     3    21    22    1
     4    22    23    1
     5    23    18    1
     6    18    17    1
     7    17    16    1
     8    16     1    1
     9     1     2    1
    10     2     3   ar
    11     3     4   ar
    12     4     5   ar
    13     5     6   ar
    14     6     7   ar
    15     7     8    1
    16     8     9    1
    17     9    10   ar
    18    10    11   ar
    19    11    12   ar
    20    12    13    1
    21    12    14   ar
    22    14    15   ar
    23    23    24    1
    24    24    25    1
    25    25    20    1
    26    15     1    1
    27     7     2   ar
    28    15     9   ar
@<TRIPOS>MOLECULE
*****
 25 28 0 0 0
SMALL
GASTEIGER

@<TRIPOS>ATOM
      1 N          -7.5217  -17.4780   22.4767 N.pl3   1  UNL1       -0.2860
      2 C          -6.9644  -16.6984   23.6307 C.ar    1  UNL1        0.0576
      3 C          -5.4800  -16.5992   23.8218 C.ar    1  UNL1        0.0153
      4 C          -4.9228  -15.8197   24.9758 C.ar    1  UNL1        0.0013
      5 C          -5.8501  -15.1393   25.9387 C.ar    1  UNL1        0.0006
      6 C          -7.3345  -15.2385   25.7477 C.ar    1  UNL1        0.0077
      7 C          -7.8917  -16.0180   24.5937 C.ar    1  UNL1        0.0431
      8 S          -9.3762  -16.1172   24.4026 S.3     1  UNL1       -0.0844
      9 C          -9.9334  -16.8968   23.2486 C.ar    1  UNL1        0.0431
     10 C         -11.4179  -16.9960   23.0575 C.ar    1  UNL1        0.0086
     11 C         -11.9751  -17.7756   21.9035 C.ar    1  UNL1        0.0120
     12 C         -11.0479  -18.4559   20.9405 C.ar    1  UNL1        0.0589
     13 CL        -11.6051  -19.2355   19.7865 Cl      1  UNL1       -0.0822
     14 C          -9.5634  -18.3568   21.1315 C.ar    1  UNL1        0.0267
     15 C          -9.0062  -17.5772   22.2856 C.ar    1  UNL1        0.0585
     16 C          -6.5945  -18.1584   21.5137 C.3     1  UNL1        0.0970
     17 C          -6.2958  -19.6204   21.6660 C.3     1  UNL1        0.0391
     18 C          -5.2310  -20.2600   20.8250 C.3     1  UNL1        0.0739
     19 C           0.0556  -17.5208   20.0844 C.3     1  UNL1        0.0897
     20 N          -1.2661  -18.2056   20.2696 N.3     1  UNL1       -0.2691
     21 C          -1.6732  -18.6954   21.6276 C.3     1  UNL1        0.0897
     22 C          -2.9949  -19.3802   21.8128 C.3     1  UNL1        0.0897
     23 N          -3.9093  -19.5752   20.6399 N.3     1  UNL1       -0.2703
     24 C          -3.5022  -19.0854   19.2819 C.3     1  UNL1        0.0897
     25 C          -2.1806  -18.4006   19.0967 C.3     1  UNL1        0.0897
@<TRIPOS>BOND
     1    19    20    1
     2    20    21    1
     3    21    22    1
     4    22    23    1
     5    23    18    1
     6    18    17    1
     7    17    16    1
     8    16     1    1
     9     1     2    1
    10     2     3   ar
    11     3     4   ar
    12     4     5   ar
    13     5     6   ar
    14     6     7   ar
    15     7     8    1
    16     8     9    1
    17     9    10   ar
    18    10    11   ar
    19    11    12   ar
    20    12    13    1
    21    12    14   ar
    22    14    15   ar
    23    23    24    1
    24    24    25    1
    25    25    20    1
    26    15     1    1
    27     7     2   ar
    28    15     9   ar
@<TRIPOS>MOLECULE
*****
 25 28 0 0 0
SMALL
GASTEIGER

@<TRIPOS>ATOM
      1 N         -13.1261   -3.5915   19.4560 N.pl3   1  UNL1       -0.2860
      2 C         -13.5566   -2.1868   19.1533 C.ar    1  UNL1        0.0576
      3 C         -14.8241   -1.6466   19.7461 C.ar    1  UNL1        0.0153
      4 C         -15.2546   -0.2420   19.4435 C.ar    1  UNL1        0.0013
      5 C         -14.4174    0.6225   18.5480 C.ar    1  UNL1        0.0006
      6 C         -13.1499    0.0824   17.9552 C.ar    1  UNL1        0.0077
      7 C         -12.7194   -1.3223   18.2579 C.ar    1  UNL1        0.0431
      8 S         -11.4518   -1.8625   17.6651 S.3     1  UNL1       -0.0844
      9 C         -11.0214   -3.2671   17.9677 C.ar    1  UNL1        0.0431
     10 C          -9.7537   -3.8073   17.3749 C.ar    1  UNL1        0.0086
     11 C          -9.3233   -5.2120   17.6775 C.ar    1  UNL1        0.0120
     12 C         -10.1604   -6.0765   18.5730 C.ar    1  UNL1        0.0589
     13 CL         -9.7300   -7.4811   18.8756 Cl      1  UNL1       -0.0822
     14 C         -11.4280   -5.5363   19.1658 C.ar    1  UNL1        0.0267
     15 C         -11.8585   -4.1316   18.8632 C.ar    1  UNL1        0.0585
     16 C         -13.9632   -4.4560   20.3514 C.3     1  UNL1        0.0970
     17 C         -15.2181   -5.0871   19.8253 C.3     1  UNL1        0.0391
     18 C         -15.1656   -5.9552   18.6031 C.3     1  UNL1        0.0739
     19 C         -16.7864  -11.7219   18.9474 C.3     1  UNL1        0.0897
     20 N         -16.3811  -10.2802   18.8613 N.3     1  UNL1       -0.2691
     21 C         -17.1107   -9.2467   19.6673 C.3     1  UNL1        0.0897
     22 C         -16.7055   -7.8050   19.5813 C.3     1  UNL1        0.0897
     23 N         -15.5708   -7.3969   18.6892 N.3     1  UNL1       -0.2703
     24 C         -14.8413   -8.4304   17.8832 C.3     1  UNL1        0.0897
     25 C         -15.2464   -9.8720   17.9693 C.3     1  UNL1        0.0897
@<TRIPOS>BOND
     1    19    20    1
     2    20    21    1
     3    21    22    1
     4    22    23    1
     5    23    18    1
     6    18    17    1
     7    17    16    1
     8    16     1    1
     9     1     2    1
    10     2     3   ar
    11     3     4   ar
    12     4     5   ar
    13     5     6   ar
    14     6     7   ar
    15     7     8    1
    16     8     9    1
    17     9    10   ar
    18    10    11   ar
    19    11    12   ar
    20    12    13    1
    21    12    14   ar
    22    14    15   ar
    23    23    24    1
    24    24    25    1
    25    25    20    1
    26    15     1    1
    27     7     2   ar
    28    15     9   ar
@<TRIPOS>MOLECULE
*****
 25 28 0 0 0
SMALL
GASTEIGER

@<TRIPOS>ATOM
      1 N          -8.6221  -18.0181   22.1952 N.pl3   1  UNL1       -0.2860
      2 C          -9.9901  -17.4056   22.1349 C.ar    1  UNL1        0.0576
      3 C         -10.4303  -16.4470   23.2012 C.ar    1  UNL1        0.0153
      4 C         -11.7982  -15.8346   23.1409 C.ar    1  UNL1        0.0013
      5 C         -12.7259  -16.1808   22.0142 C.ar    1  UNL1        0.0006
      6 C         -12.2857  -17.1395   20.9478 C.ar    1  UNL1        0.0077
      7 C         -10.9178  -17.7518   21.0082 C.ar    1  UNL1        0.0431
      8 S         -10.4775  -18.7106   19.9418 S.3     1  UNL1       -0.0844
      9 C          -9.1096  -19.3229   20.0021 C.ar    1  UNL1        0.0431
     10 C          -8.6693  -20.2817   18.9357 C.ar    1  UNL1        0.0086
     11 C          -7.3013  -20.8940   18.9961 C.ar    1  UNL1        0.0120
     12 C          -6.3736  -20.5478   20.1228 C.ar    1  UNL1        0.0589
     13 CL         -5.0057  -21.1602   20.1832 Cl      1  UNL1       -0.0822
     14 C          -6.8138  -19.5892   21.1892 C.ar    1  UNL1        0.0267
     15 C          -8.1818  -18.9767   21.1288 C.ar    1  UNL1        0.0585
     16 C          -7.6944  -17.6718   23.3219 C.3     1  UNL1        0.0970
     17 C          -6.7208  -16.5407   23.1712 C.3     1  UNL1        0.0391
     18 C          -5.3543  -16.6410   23.7815 C.3     1  UNL1        0.0739
     19 C          -0.6376  -18.0692   20.3590 C.3     1  UNL1        0.0897
     20 N          -1.8168  -17.7122   21.2147 N.3     1  UNL1       -0.2691
     21 C          -2.0783  -16.2787   21.5710 C.3     1  UNL1        0.0897
     22 C          -3.2574  -15.9217   22.4266 C.3     1  UNL1        0.0897
     23 N          -4.1751  -16.9980   22.9259 N.3     1  UNL1       -0.2703
     24 C          -3.9136  -18.4314   22.5695 C.3     1  UNL1        0.0897
     25 C          -2.7345  -18.7885   21.7139 C.3     1  UNL1        0.0897
@<TRIPOS>BOND
     1    19    20    1
     2    20    21    1
     3    21    22    1
     4    22    23    1
     5    23    18    1
     6    18    17    1
     7    17    16    1
     8    16     1    1
     9     1     2    1
    10     2     3   ar
    11     3     4   ar
    12     4     5   ar
    13     5     6   ar
    14     6     7   ar
    15     7     8    1
    16     8     9    1
    17     9    10   ar
    18    10    11   ar
    19    11    12   ar
    20    12    13    1
    21    12    14   ar
    22    14    15   ar
    23    23    24    1
    24    24    25    1
    25    25    20    1
    26    15     1    1
    27     7     2   ar
    28    15     9   ar
@<TRIPOS>MOLECULE
*****
 25 28 0 0 0
SMALL
GASTEIGER

@<TRIPOS>ATOM
      1 N          -4.2166  -17.8196   22.2708 N.pl3   1  UNL1       -0.2860
      2 C          -2.9978  -17.6610   21.4107 C.ar    1  UNL1        0.0576
      3 C          -1.8882  -16.7491   21.8432 C.ar    1  UNL1        0.0153
      4 C          -0.6696  -16.5905   20.9831 C.ar    1  UNL1        0.0013
      5 C          -0.5606  -17.3438   19.6906 C.ar    1  UNL1        0.0006
      6 C          -1.6702  -18.2558   19.2582 C.ar    1  UNL1        0.0077
      7 C          -2.8888  -18.4144   20.1182 C.ar    1  UNL1        0.0431
      8 S          -3.9986  -19.3263   19.6858 S.3     1  UNL1       -0.0844
      9 C          -5.2172  -19.4849   20.5458 C.ar    1  UNL1        0.0431
     10 C          -6.3269  -20.3969   20.1134 C.ar    1  UNL1        0.0086
     11 C          -7.5455  -20.5555   20.9734 C.ar    1  UNL1        0.0120
     12 C          -7.6545  -19.8021   22.2660 C.ar    1  UNL1        0.0589
     13 CL         -8.8732  -19.9607   23.1260 Cl      1  UNL1       -0.0822
     14 C          -6.5449  -18.8902   22.6984 C.ar    1  UNL1        0.0267
     15 C          -5.3262  -18.7316   21.8383 C.ar    1  UNL1        0.0585
     16 C          -4.3256  -17.0663   23.5633 C.3     1  UNL1        0.0970
     17 C          -4.8653  -15.6669   23.5725 C.3     1  UNL1        0.0391
     18 C          -6.0880  -15.3398   24.3776 C.3     1  UNL1        0.0739
     19 C         -11.4978  -17.0915   22.4627 C.3     1  UNL1        0.0897
     20 N         -10.1453  -16.6536   22.9415 N.3     1  UNL1       -0.2691
     21 C          -9.1817  -16.0152   21.9854 C.3     1  UNL1        0.0897
     22 C          -7.8293  -15.5773   22.4641 C.3     1  UNL1        0.0897
     23 N          -7.4405  -15.7778   23.8988 N.3     1  UNL1       -0.2703
     24 C          -8.4040  -16.4161   24.8549 C.3     1  UNL1        0.0897
     25 C          -9.7564  -16.8540   24.3762 C.3     1  UNL1        0.0897
@<TRIPOS>BOND
     1    19    20    1
     2    20    21    1
     3    21    22    1
     4    22    23    1
     5    23    18    1
     6    18    17    1
     7    17    16    1
     8    16     1    1
     9     1     2    1
    10     2     3   ar
    11     3     4   ar
    12     4     5   ar
    13     5     6   ar
    14     6     7   ar
    15     7     8    1
    16     8     9    1
    17     9    10   ar
    18    10    11   ar
    19    11    12   ar
    20    12    13    1
    21    12    14   ar
    22    14    15   ar
    23    23    24    1
    24    24    25    1
    25    25    20    1
    26    15     1    1
    27     7     2   ar
    28    15     9   ar
@<TRIPOS>MOLECULE
*****
 25 28 0 0 0
SMALL
GASTEIGER

@<TRIPOS>ATOM
      1 N         -13.7218   -5.8296   19.4784 N.pl3   1  UNL1       -0.2860
      2 C         -12.3560   -5.6634   18.8809 C.ar    1  UNL1        0.0576
      3 C         -11.4923   -4.5086   19.2936 C.ar    1  UNL1        0.0153
      4 C         -10.1265   -4.3425   18.6961 C.ar    1  UNL1        0.0013
      5 C          -9.6244   -5.3312   17.6860 C.ar    1  UNL1        0.0006
      6 C         -10.4881   -6.4860   17.2733 C.ar    1  UNL1        0.0077
      7 C         -11.8539   -6.6521   17.8708 C.ar    1  UNL1        0.0431
      8 S         -12.7177   -7.8070   17.4581 S.3     1  UNL1       -0.0844
      9 C         -14.0834   -7.9731   18.0555 C.ar    1  UNL1        0.0431
     10 C         -14.9472   -9.1280   17.6429 C.ar    1  UNL1        0.0086
     11 C         -16.3130   -9.2941   18.2403 C.ar    1  UNL1        0.0120
     12 C         -16.8151   -8.3054   19.2505 C.ar    1  UNL1        0.0589
     13 CL        -18.1809   -8.4716   19.8479 Cl      1  UNL1       -0.0822
     14 C         -15.9514   -7.1506   19.6631 C.ar    1  UNL1        0.0267
     15 C         -14.5855   -6.9844   19.0657 C.ar    1  UNL1        0.0585
     16 C         -14.2239   -4.8409   20.4885 C.3     1  UNL1        0.0970
     17 C         -15.3525   -3.9174   20.1373 C.3     1  UNL1        0.0391
     18 C         -15.4513   -3.3460   18.7539 C.3     1  UNL1        0.0739
     19 C         -10.6749   -0.7225   16.2434 C.3     1  UNL1        0.0897
     20 N         -11.8690   -1.3784   16.8710 N.3     1  UNL1       -0.2691
     21 C         -12.3453   -0.9337   18.2221 C.3     1  UNL1        0.0897
     22 C         -13.5394   -1.5895   18.8497 C.3     1  UNL1        0.0897
     23 N         -14.2572   -2.6901   18.1263 N.3     1  UNL1       -0.2703
     24 C         -13.7809   -3.1349   16.7752 C.3     1  UNL1        0.0897
     25 C         -12.5868   -2.4790   16.1476 C.3     1  UNL1        0.0897
@<TRIPOS>BOND
     1    19    20    1
     2    20    21    1
     3    21    22    1
     4    22    23    1
     5    23    18    1
     6    18    17    1
     7    17    16    1
     8    16     1    1
     9     1     2    1
    10     2     3   ar
    11     3     4   ar
    12     4     5   ar
    13     5     6   ar
    14     6     7   ar
    15     7     8    1
    16     8     9    1
    17     9    10   ar
    18    10    11   ar
    19    11    12   ar
    20    12    13    1
    21    12    14   ar
    22    14    15   ar
    23    23    24    1
    24    24    25    1
    25    25    20    1
    26    15     1    1
    27     7     2   ar
    28    15     9   ar
@<TRIPOS>MOLECULE
*****
 25 28 0 0 0
SMALL
GASTEIGER

@<TRIPOS>ATOM
      1 N         -14.6110   -6.1050   19.5135 N.pl3   1  UNL1       -0.2860
      2 C         -15.6465   -7.1479   19.2131 C.ar    1  UNL1        0.0576
      3 C         -17.0284   -7.0186   19.7818 C.ar    1  UNL1        0.0153
      4 C         -18.0637   -8.0615   19.4813 C.ar    1  UNL1        0.0013
      5 C         -17.7171   -9.2338   18.6121 C.ar    1  UNL1        0.0006
      6 C         -16.3352   -9.3632   18.0434 C.ar    1  UNL1        0.0077
      7 C         -15.2998   -8.3203   18.3439 C.ar    1  UNL1        0.0431
      8 S         -13.9178   -8.4496   17.7752 S.3     1  UNL1       -0.0844
      9 C         -12.8825   -7.4067   18.0756 C.ar    1  UNL1        0.0431
     10 C         -11.5005   -7.5360   17.5069 C.ar    1  UNL1        0.0086
     11 C         -10.4652   -6.4931   17.8074 C.ar    1  UNL1        0.0120
     12 C         -10.8118   -5.3208   18.6766 C.ar    1  UNL1        0.0589
     13 CL         -9.7765   -4.2778   18.9771 Cl      1  UNL1       -0.0822
     14 C         -12.1937   -5.1914   19.2453 C.ar    1  UNL1        0.0267
     15 C         -13.2291   -6.2343   18.9448 C.ar    1  UNL1        0.0585
     16 C         -14.9577   -4.9326   20.3827 C.3     1  UNL1        0.0970
     17 C         -15.7930   -3.8137   19.8348 C.3     1  UNL1        0.0391
     18 C         -15.6019   -3.3594   18.4181 C.3     1  UNL1        0.0739
     19 C         -10.4129   -0.8541   16.7451 C.3     1  UNL1        0.0897
     20 N         -11.7102   -1.4805   17.1634 N.3     1  UNL1       -0.2691
     21 C         -12.3207   -1.1279   18.4873 C.3     1  UNL1        0.0897
     22 C         -13.6179   -1.7542   18.9056 C.3     1  UNL1        0.0897
     23 N         -14.3046   -2.7330   17.9999 N.3     1  UNL1       -0.2703
     24 C         -13.6940   -3.0856   16.6759 C.3     1  UNL1        0.0897
     25 C         -12.3968   -2.4593   16.2576 C.3     1  UNL1        0.0897
@<TRIPOS>BOND
     1    19    20    1
     2    20    21    1
     3    21    22    1
     4    22    23    1
     5    23    18    1
     6    18    17    1
     7    17    16    1
     8    16     1    1
     9     1     2    1
    10     2     3   ar
    11     3     4   ar
    12     4     5   ar
    13     5     6   ar
    14     6     7   ar
    15     7     8    1
    16     8     9    1
    17     9    10   ar
    18    10    11   ar
    19    11    12   ar
    20    12    13    1
    21    12    14   ar
    22    14    15   ar
    23    23    24    1
    24    24    25    1
    25    25    20    1
    26    15     1    1
    27     7     2   ar
    28    15     9   ar
@<TRIPOS>MOLECULE
*****
 25 28 0 0 0
SMALL
GASTEIGER

@<TRIPOS>ATOM
      1 N          -6.2834  -17.8217   22.3415 N.pl3   1  UNL1       -0.2860
      2 C          -6.3920  -16.8709   23.4967 C.ar    1  UNL1        0.0576
      3 C          -7.7270  -16.3025   23.8772 C.ar    1  UNL1        0.0153
      4 C          -7.8356  -15.3518   25.0323 C.ar    1  UNL1        0.0013
      5 C          -6.6093  -14.9696   25.8070 C.ar    1  UNL1        0.0006
      6 C          -5.2744  -15.5381   25.4265 C.ar    1  UNL1        0.0077
      7 C          -5.1657  -16.4887   24.2714 C.ar    1  UNL1        0.0431
      8 S          -3.8308  -17.0573   23.8909 S.3     1  UNL1       -0.0844
      9 C          -3.7222  -18.0079   22.7358 C.ar    1  UNL1        0.0431
     10 C          -2.3872  -18.5765   22.3552 C.ar    1  UNL1        0.0086
     11 C          -2.2786  -19.5271   21.2001 C.ar    1  UNL1        0.0120
     12 C          -3.5048  -19.9093   20.4254 C.ar    1  UNL1        0.0589
     13 CL         -3.3962  -20.8600   19.2703 Cl      1  UNL1       -0.0822
     14 C          -4.8398  -19.3409   20.8059 C.ar    1  UNL1        0.0267
     15 C          -4.9484  -18.3901   21.9611 C.ar    1  UNL1        0.0585
     16 C          -7.5097  -18.2039   21.5668 C.3     1  UNL1        0.0970
     17 C          -8.0454  -19.6023   21.6526 C.3     1  UNL1        0.0391
     18 C          -8.7567  -20.0583   22.8919 C.3     1  UNL1        0.0739
     19 C         -14.1910  -17.8799   24.2050 C.3     1  UNL1        0.0897
     20 N         -12.8324  -18.4245   23.8767 N.3     1  UNL1       -0.2691
     21 C         -11.9493  -18.9470   24.9709 C.3     1  UNL1        0.0897
     22 C         -10.5908  -19.4916   24.6427 C.3     1  UNL1        0.0897
     23 N         -10.1153  -19.5137   23.2202 N.3     1  UNL1       -0.2703
     24 C         -10.9984  -18.9912   22.1260 C.3     1  UNL1        0.0897
     25 C         -12.3569  -18.4467   22.4543 C.3     1  UNL1        0.0897
@<TRIPOS>BOND
     1    19    20    1
     2    20    21    1
     3    21    22    1
     4    22    23    1
     5    23    18    1
     6    18    17    1
     7    17    16    1
     8    16     1    1
     9     1     2    1
    10     2     3   ar
    11     3     4   ar
    12     4     5   ar
    13     5     6   ar
    14     6     7   ar
    15     7     8    1
    16     8     9    1
    17     9    10   ar
    18    10    11   ar
    19    11    12   ar
    20    12    13    1
    21    12    14   ar
    22    14    15   ar
    23    23    24    1
    24    24    25    1
    25    25    20    1
    26    15     1    1
    27     7     2   ar
    28    15     9   ar
