@<TRIPOS>MOLECULE
*****
 38 41 0 0 0
SMALL
GASTEIGER

@<TRIPOS>ATOM
      1 C          -9.2758  -19.0040   22.0277 C.ar    1  UNL1        0.0856
      2 N          -9.9879  -19.7550   23.1136 N.ar    1  UNL1       -0.2142
      3 C          -9.2423  -20.7540   23.9478 C.ar    1  UNL1        0.2134
      4 N          -9.9544  -21.5050   25.0336 N.pl3   1  UNL1       -0.3275
      5 N          -7.7845  -21.0021   23.6962 N.ar    1  UNL1       -0.2169
      6 C          -7.0724  -20.2512   22.6104 C.ar    1  UNL1        0.0810
      7 C          -7.8180  -19.2521   21.7762 C.ar    1  UNL1        0.0309
      8 C          -6.8570  -18.6673   20.7841 C.3     1  UNL1        0.1248
      9 N          -5.5174  -19.3049   21.0052 N.am    1  UNL1       -0.2543
     10 C          -4.2645  -19.0146   20.2330 C.2     1  UNL1        0.3046
     11 O          -4.2838  -18.0043   19.1245 O.2     1  UNL1       -0.2526
     12 N          -2.9924  -19.7346   20.5695 N.am    1  UNL1       -0.2837
     13 C          -5.6505  -20.2838   22.1339 C.3     1  UNL1        0.1409
     14 H         -10.9112  -21.3422   25.1987 H       1  UNL1        0.1452
     15 H          -9.4650  -22.1607   25.5811 H       1  UNL1        0.1452
     16 H          -2.9797  -20.3977   21.2970 H       1  UNL1        0.1512
     17 C         -10.7342  -19.8982   19.5632 C.3     1  UNL1        0.0312
     18 C         -10.7507  -18.4521   19.9613 C.ar    1  UNL1       -0.0166
     19 C         -11.4964  -17.4530   19.1272 C.ar    1  UNL1        0.0074
     20 C         -11.5129  -16.0069   19.5253 C.ar    1  UNL1        0.0604
     21 CL        -12.2585  -15.0078   18.6911 Cl      1  UNL1       -0.0822
     22 C         -10.7837  -15.5598   20.7575 C.ar    1  UNL1        0.0483
     23 C         -10.0380  -16.5589   21.5916 C.ar    1  UNL1        0.1405
     24 C         -10.0215  -18.0050   21.1935 C.ar    1  UNL1        0.0476
     25 O          -9.3088  -16.1119   22.8239 O.3     1  UNL1       -0.4732
     26 C          -7.8929  -15.6271   22.7231 C.3     1  UNL1        0.2316
     27 C          -6.8767  -16.0636   23.7364 C.3     1  UNL1        0.1747
     28 N          -7.0651  -15.7191   25.1841 N.ar    1  UNL1       -0.2432
     29 C          -8.3685  -15.3909   25.8498 C.ar    1  UNL1        0.1264
     30 C          -8.0922  -15.1112   27.2974 C.ar    1  UNL1        0.1796
     31 F          -9.1112  -14.7412   28.3341 F       1  UNL1       -0.2008
     32 C          -6.6179  -15.2666   27.5262 C.ar    1  UNL1        0.1512
     33 N          -5.9831  -15.6423   26.2201 N.ar    1  UNL1       -0.1651
     34 C          -1.7396  -19.4442   19.7973 C.3     1  UNL1        0.1578
     35 C          -1.0299  -18.1360   19.9839 C.3     1  UNL1        0.2818
     36 C          -0.3202  -16.8278   20.1704 C.3     1  UNL1        0.0740
     37 F          -0.9999  -18.3636   21.4662 F       1  UNL1       -0.2025
     38 F          -1.0598  -17.9084   18.5015 F       1  UNL1       -0.2025
@<TRIPOS>BOND
     1    17    18    1
     2    18    19   ar
     3    19    20   ar
     4    20    21    1
     5    20    22   ar
     6    22    23   ar
     7    23    25    1
     8    25    26    1
     9    26    27    1
    10    27    28    1
    11    28    29   ar
    12    29    30   ar
    13    30    31    1
    14    30    32   ar
    15    32    33   ar
    16    23    24   ar
    17    24     1    1
    18     1     2   ar
    19     2     3   ar
    20     3     4    1
    21     3     5   ar
    22     5     6   ar
    23     6     7   ar
    24     7     8    1
    25     8     9    1
    26     9    10   am
    27    10    11    2
    28    10    12   am
    29    12    34    1
    30    34    35    1
    31    35    36    1
    32    35    37    1
    33    35    38    1
    34     9    13    1
    35    24    18   ar
    36     7     1   ar
    37    33    28   ar
    38    13     6    1
    39     4    14    1
    40     4    15    1
    41    12    16    1
@<TRIPOS>MOLECULE
*****
 38 41 0 0 0
SMALL
GASTEIGER

@<TRIPOS>ATOM
      1 C          -8.0457  -16.1287   24.2837 C.ar    1  UNL1        0.0856
      2 N          -8.1565  -15.3999   25.5901 N.ar    1  UNL1       -0.2142
      3 C          -6.9359  -15.1855   26.4351 C.ar    1  UNL1        0.2134
      4 N          -7.0466  -14.4567   27.7416 N.pl3   1  UNL1       -0.3275
      5 N          -5.6045  -15.6998   25.9738 N.ar    1  UNL1       -0.2169
      6 C          -5.4937  -16.4285   24.6674 C.ar    1  UNL1        0.0810
      7 C          -6.7143  -16.6430   23.8224 C.ar    1  UNL1        0.0309
      8 C          -6.2997  -17.3918   22.5906 C.3     1  UNL1        0.1248
      9 N          -4.8227  -17.6401   22.6744 N.am    1  UNL1       -0.2543
     10 C          -3.9901  -18.3578   21.6538 C.2     1  UNL1        0.3046
     11 O          -4.6308  -18.9024   20.4117 O.2     1  UNL1       -0.2526
     12 N          -2.5167  -18.5310   21.8753 N.am    1  UNL1       -0.2837
     13 C          -4.3246  -17.0448   23.9579 C.3     1  UNL1        0.1409
     14 H          -7.9205  -14.1191   28.0444 H       1  UNL1        0.1452
     15 H          -6.2455  -14.3159   28.2962 H       1  UNL1        0.1452
     16 H          -2.0961  -18.1736   22.6906 H       1  UNL1        0.1512
     17 C          -8.3649  -14.6334   21.7025 C.3     1  UNL1        0.0312
     18 C          -9.4260  -15.5955   22.1481 C.ar    1  UNL1       -0.0166
     19 C         -10.6467  -15.8099   21.3032 C.ar    1  UNL1        0.0074
     20 C         -11.7077  -16.7720   21.7488 C.ar    1  UNL1        0.0604
     21 CL        -12.9284  -16.9865   20.9039 Cl      1  UNL1       -0.0822
     22 C         -11.5482  -17.5196   23.0394 C.ar    1  UNL1        0.0483
     23 C         -10.3275  -17.3051   23.8843 C.ar    1  UNL1        0.1405
     24 C          -9.2664  -16.3431   23.4387 C.ar    1  UNL1        0.0476
     25 O         -10.1678  -18.0527   25.1749 O.3     1  UNL1       -0.4732
     26 C         -10.2464  -19.5506   25.1886 C.3     1  UNL1        0.2316
     27 C          -9.4676  -20.3518   24.1877 C.3     1  UNL1        0.1747
     28 N          -9.6618  -20.1112   22.7199 N.ar    1  UNL1       -0.2432
     29 C          -8.6249  -19.5962   21.7661 C.ar    1  UNL1        0.1264
     30 C          -9.2492  -19.5101   20.4050 C.ar    1  UNL1        0.1796
     31 F          -8.5701  -19.0440   19.1514 F       1  UNL1       -0.2008
     32 C         -10.6719  -19.9719   20.5175 C.ar    1  UNL1        0.1512
     33 N         -10.9269  -20.3434   21.9482 N.ar    1  UNL1       -0.1651
     34 C          -1.6841  -19.2487   20.8547 C.3     1  UNL1        0.1578
     35 C          -1.1736  -18.5127   19.6514 C.3     1  UNL1        0.2818
     36 C          -0.6631  -17.7768   18.4482 C.3     1  UNL1        0.0740
     37 F          -0.0467  -17.9558   20.4701 F       1  UNL1       -0.2025
     38 F          -2.3003  -19.0696   18.8328 F       1  UNL1       -0.2025
@<TRIPOS>BOND
     1    17    18    1
     2    18    19   ar
     3    19    20   ar
     4    20    21    1
     5    20    22   ar
     6    22    23   ar
     7    23    25    1
     8    25    26    1
     9    26    27    1
    10    27    28    1
    11    28    29   ar
    12    29    30   ar
    13    30    31    1
    14    30    32   ar
    15    32    33   ar
    16    23    24   ar
    17    24     1    1
    18     1     2   ar
    19     2     3   ar
    20     3     4    1
    21     3     5   ar
    22     5     6   ar
    23     6     7   ar
    24     7     8    1
    25     8     9    1
    26     9    10   am
    27    10    11    2
    28    10    12   am
    29    12    34    1
    30    34    35    1
    31    35    36    1
    32    35    37    1
    33    35    38    1
    34     9    13    1
    35    24    18   ar
    36     7     1   ar
    37    33    28   ar
    38    13     6    1
    39     4    14    1
    40     4    15    1
    41    12    16    1
@<TRIPOS>MOLECULE
*****
 38 41 0 0 0
SMALL
GASTEIGER

@<TRIPOS>ATOM
      1 C          -8.3269  -18.0645   22.3249 C.ar    1  UNL1        0.0856
      2 N          -9.5773  -18.4124   21.5727 N.ar    1  UNL1       -0.2142
      3 C          -9.4850  -19.0676   20.2266 C.ar    1  UNL1        0.2134
      4 N         -10.7354  -19.4155   19.4745 N.pl3   1  UNL1       -0.3275
      5 N          -8.1424  -19.3750   19.6326 N.ar    1  UNL1       -0.2169
      6 C          -6.8921  -19.0272   20.3846 C.ar    1  UNL1        0.0810
      7 C          -6.9844  -18.3719   21.7308 C.ar    1  UNL1        0.0309
      8 C          -5.5891  -18.1472   22.2336 C.3     1  UNL1        0.1248
      9 N          -4.6346  -18.6636   21.1982 N.am    1  UNL1       -0.2543
     10 C          -3.1375  -18.6402   21.2894 C.2     1  UNL1        0.3046
     11 O          -2.4689  -18.0611   22.5008 O.2     1  UNL1       -0.2526
     12 N          -2.3091  -19.1960   20.1692 N.am    1  UNL1       -0.2837
     13 C          -5.4398  -19.2074   20.0554 C.3     1  UNL1        0.1409
     14 H         -11.6166  -19.2138   19.8643 H       1  UNL1        0.1452
     15 H         -10.6748  -19.8455   18.5909 H       1  UNL1        0.1452
     16 H          -2.7479  -19.5761   19.3741 H       1  UNL1        0.1512
     17 C          -7.4542  -15.2150   22.6693 C.3     1  UNL1        0.0312
     18 C          -7.9829  -15.9846   23.8432 C.ar    1  UNL1       -0.0166
     19 C          -8.0753  -15.3294   25.1894 C.ar    1  UNL1        0.0074
     20 C          -8.6040  -16.0990   26.3634 C.ar    1  UNL1        0.0604
     21 CL         -8.6964  -15.4438   27.7096 Cl      1  UNL1       -0.0822
     22 C          -9.0404  -17.5237   26.1912 C.ar    1  UNL1        0.0483
     23 C          -8.9480  -18.1789   24.8450 C.ar    1  UNL1        0.1405
     24 C          -8.4193  -17.4093   23.6711 C.ar    1  UNL1        0.0476
     25 O          -9.3844  -19.6036   24.6728 O.3     1  UNL1       -0.4732
     26 C         -10.7984  -19.9125   24.2790 C.3     1  UNL1        0.2316
     27 C         -11.8674  -18.8734   24.4452 C.3     1  UNL1        0.1747
     28 N         -12.0307  -17.7941   23.4163 N.ar    1  UNL1       -0.2432
     29 C         -12.7534  -17.9249   22.1084 C.ar    1  UNL1        0.1264
     30 C         -12.6694  -16.6063   21.3985 C.ar    1  UNL1        0.1796
     31 F         -13.2568  -16.2891   20.0553 F       1  UNL1       -0.2008
     32 C         -11.8948  -15.6605   22.2677 C.ar    1  UNL1        0.1512
     33 N         -11.5001  -16.3946   23.5148 N.ar    1  UNL1       -0.1651
     34 C          -0.8120  -19.1726   20.2605 C.3     1  UNL1        0.1578
     35 C          -0.0634  -17.9032   19.9811 C.3     1  UNL1        0.2818
     36 C           0.6852  -16.6338   19.7017 C.3     1  UNL1        0.0740
     37 F          -1.2476  -17.3700   19.2303 F       1  UNL1       -0.2025
     38 F           1.1208  -18.4363   20.7318 F       1  UNL1       -0.2025
@<TRIPOS>BOND
     1    17    18    1
     2    18    19   ar
     3    19    20   ar
     4    20    21    1
     5    20    22   ar
     6    22    23   ar
     7    23    25    1
     8    25    26    1
     9    26    27    1
    10    27    28    1
    11    28    29   ar
    12    29    30   ar
    13    30    31    1
    14    30    32   ar
    15    32    33   ar
    16    23    24   ar
    17    24     1    1
    18     1     2   ar
    19     2     3   ar
    20     3     4    1
    21     3     5   ar
    22     5     6   ar
    23     6     7   ar
    24     7     8    1
    25     8     9    1
    26     9    10   am
    27    10    11    2
    28    10    12   am
    29    12    34    1
    30    34    35    1
    31    35    36    1
    32    35    37    1
    33    35    38    1
    34     9    13    1
    35    24    18   ar
    36     7     1   ar
    37    33    28   ar
    38    13     6    1
    39     4    14    1
    40     4    15    1
    41    12    16    1
@<TRIPOS>MOLECULE
*****
 38 41 0 0 0
SMALL
GASTEIGER

@<TRIPOS>ATOM
      1 C           3.7915   -1.5245   19.9409 C.ar    1  UNL1        0.0856
      2 N           3.9732   -2.6279   18.9411 N.ar    1  UNL1       -0.2142
      3 C           4.4094   -3.9887   19.3969 C.ar    1  UNL1        0.2134
      4 N           4.5911   -5.0921   18.3971 N.pl3   1  UNL1       -0.3275
      5 N           4.6639   -4.2462   20.8526 N.ar    1  UNL1       -0.2169
      6 C           4.4822   -3.1429   21.8524 C.ar    1  UNL1        0.0810
      7 C           4.0460   -1.7820   21.3966 C.ar    1  UNL1        0.0309
      8 C           3.9512   -0.8970   22.6039 C.3     1  UNL1        0.1248
      9 N           4.3288   -1.7109   23.8060 N.am    1  UNL1       -0.2543
     10 C           4.3709   -1.2226   25.2236 C.2     1  UNL1        0.3046
     11 O           4.0142    0.2001   25.5377 O.2     1  UNL1       -0.2526
     12 N           4.7697   -2.1570   26.3272 N.am    1  UNL1       -0.2837
     13 C           4.6570   -3.0989   23.3415 C.3     1  UNL1        0.1409
     14 H           4.4240   -4.9231   17.4417 H       1  UNL1        0.1452
     15 H           4.8774   -5.9853   18.6964 H       1  UNL1        0.1452
     16 H           5.0038   -3.0907   26.1211 H       1  UNL1        0.1512
     17 C           0.9428   -0.6599   20.3117 C.3     1  UNL1        0.0312
     18 C           1.9310    0.2687   19.6704 C.ar    1  UNL1       -0.0166
     19 C           1.4949    1.6295   19.2144 C.ar    1  UNL1        0.0074
     20 C           2.4831    2.5580   18.5732 C.ar    1  UNL1        0.0604
     21 CL          2.0469    3.9189   18.1172 Cl      1  UNL1       -0.0822
     22 C           3.9074    2.1258   18.3878 C.ar    1  UNL1        0.0483
     23 C           4.3435    0.7649   18.8437 C.ar    1  UNL1        0.1405
     24 C           3.3553   -0.1636   19.4850 C.ar    1  UNL1        0.0476
     25 O           5.7678    0.3326   18.6584 O.3     1  UNL1       -0.4732
     26 C           6.8433    0.8959   19.5393 C.3     1  UNL1        0.2316
     27 C           6.9455    0.4595   20.9708 C.3     1  UNL1        0.1747
     28 N           7.4516   -0.9131   21.3022 N.ar    1  UNL1       -0.2432
     29 C           7.6675   -2.0323   20.3272 C.ar    1  UNL1        0.1264
     30 C           8.1800   -3.2184   21.0891 C.ar    1  UNL1        0.1796
     31 F           8.5301   -4.5559   20.5073 F       1  UNL1       -0.2008
     32 C           8.2809   -2.8321   22.5350 C.ar    1  UNL1        0.1512
     33 N           7.8308   -1.4073   22.6666 N.ar    1  UNL1       -0.1651
     34 C           4.8118   -1.6685   27.7449 C.3     1  UNL1        0.1578
     35 C           5.8452   -2.2027   28.6918 C.3     1  UNL1        0.2818
     36 C           6.8787   -2.7368   29.6387 C.3     1  UNL1        0.0740
     37 F           5.1671   -1.4983   29.8294 F       1  UNL1       -0.2025
     38 F           6.5234   -2.9071   27.5543 F       1  UNL1       -0.2025
@<TRIPOS>BOND
     1    17    18    1
     2    18    19   ar
     3    19    20   ar
     4    20    21    1
     5    20    22   ar
     6    22    23   ar
     7    23    25    1
     8    25    26    1
     9    26    27    1
    10    27    28    1
    11    28    29   ar
    12    29    30   ar
    13    30    31    1
    14    30    32   ar
    15    32    33   ar
    16    23    24   ar
    17    24     1    1
    18     1     2   ar
    19     2     3   ar
    20     3     4    1
    21     3     5   ar
    22     5     6   ar
    23     6     7   ar
    24     7     8    1
    25     8     9    1
    26     9    10   am
    27    10    11    2
    28    10    12   am
    29    12    34    1
    30    34    35    1
    31    35    36    1
    32    35    37    1
    33    35    38    1
    34     9    13    1
    35    24    18   ar
    36     7     1   ar
    37    33    28   ar
    38    13     6    1
    39     4    14    1
    40     4    15    1
    41    12    16    1
@<TRIPOS>MOLECULE
*****
 38 41 0 0 0
SMALL
GASTEIGER

@<TRIPOS>ATOM
      1 C           0.9854    2.7994   19.3001 C.ar    1  UNL1        0.0856
      2 N          -0.0352    3.3240   18.3340 N.ar    1  UNL1       -0.2142
      3 C          -1.3885    3.7431   18.8266 C.ar    1  UNL1        0.2134
      4 N          -2.4090    4.2678   17.8605 N.pl3   1  UNL1       -0.3275
      5 N          -1.7214    3.6377   20.2854 N.ar    1  UNL1       -0.2169
      6 C          -0.7010    3.1131   21.2515 C.ar    1  UNL1        0.0810
      7 C           0.6524    2.6939   20.7589 C.ar    1  UNL1        0.0309
      8 C           1.4482    2.2184   21.9382 C.3     1  UNL1        0.1248
      9 N           0.5866    2.3437   23.1596 N.am    1  UNL1       -0.2543
     10 C           0.9836    1.9800   24.5597 C.2     1  UNL1        0.3046
     11 O           2.3541    1.4351   24.8331 O.2     1  UNL1       -0.2526
     12 N           0.0100    2.1611   25.6863 N.am    1  UNL1       -0.2837
     13 C          -0.7416    2.8967   22.7353 C.3     1  UNL1        0.1409
     14 H          -2.1906    4.3370   16.9030 H       1  UNL1        0.1452
     15 H          -3.2973    4.5429   18.1839 H       1  UNL1        0.1452
     16 H          -0.8895    2.5187   25.5069 H       1  UNL1        0.1512
     17 C           3.1324    4.8529   18.8836 C.3     1  UNL1        0.0312
     18 C           3.4122    3.4070   18.5992 C.ar    1  UNL1       -0.0166
     19 C           4.7655    2.9877   18.1065 C.ar    1  UNL1        0.0074
     20 C           5.0453    1.5418   17.8220 C.ar    1  UNL1        0.0604
     21 CL          6.3986    1.1226   17.3293 Cl      1  UNL1       -0.0822
     22 C           3.9719    0.5150   18.0303 C.ar    1  UNL1        0.0483
     23 C           2.6186    0.9343   18.5230 C.ar    1  UNL1        0.1405
     24 C           2.3387    2.3802   18.8074 C.ar    1  UNL1        0.0476
     25 O           1.5450   -0.0925   18.7313 O.3     1  UNL1       -0.4732
     26 C           1.4593   -0.8346   20.0320 C.3     1  UNL1        0.2316
     27 C           2.7082   -1.1430   20.8035 C.3     1  UNL1        0.1747
     28 N           3.6726   -2.1706   20.2898 N.ar    1  UNL1       -0.2432
     29 C           3.3409   -3.3105   19.3730 C.ar    1  UNL1        0.1264
     30 C           4.6013   -4.0831   19.1193 C.ar    1  UNL1        0.1796
     31 F           4.7287   -5.3039   18.2570 F       1  UNL1       -0.2008
     32 C           5.7120   -3.4207   19.8792 C.ar    1  UNL1        0.1512
     33 N           5.1380   -2.2386   20.6026 N.ar    1  UNL1       -0.1651
     34 C           0.4070    1.7973   27.0864 C.3     1  UNL1        0.1578
     35 C          -0.4638    0.8866   27.9001 C.3     1  UNL1        0.2818
     36 C          -1.3346   -0.0241   28.7139 C.3     1  UNL1        0.0740
     37 F          -1.6442    1.7709   27.6267 F       1  UNL1       -0.2025
     38 F           0.7166    0.0023   28.1736 F       1  UNL1       -0.2025
@<TRIPOS>BOND
     1    17    18    1
     2    18    19   ar
     3    19    20   ar
     4    20    21    1
     5    20    22   ar
     6    22    23   ar
     7    23    25    1
     8    25    26    1
     9    26    27    1
    10    27    28    1
    11    28    29   ar
    12    29    30   ar
    13    30    31    1
    14    30    32   ar
    15    32    33   ar
    16    23    24   ar
    17    24     1    1
    18     1     2   ar
    19     2     3   ar
    20     3     4    1
    21     3     5   ar
    22     5     6   ar
    23     6     7   ar
    24     7     8    1
    25     8     9    1
    26     9    10   am
    27    10    11    2
    28    10    12   am
    29    12    34    1
    30    34    35    1
    31    35    36    1
    32    35    37    1
    33    35    38    1
    34     9    13    1
    35    24    18   ar
    36     7     1   ar
    37    33    28   ar
    38    13     6    1
    39     4    14    1
    40     4    15    1
    41    12    16    1
@<TRIPOS>MOLECULE
*****
 38 41 0 0 0
SMALL
GASTEIGER

@<TRIPOS>ATOM
      1 C          -8.4405  -18.4131   22.2457 C.ar    1  UNL1        0.0856
      2 N          -9.6870  -18.7462   21.4805 N.ar    1  UNL1       -0.2142
      3 C          -9.5876  -19.3298   20.1024 C.ar    1  UNL1        0.2134
      4 N         -10.8340  -19.6629   19.3371 N.pl3   1  UNL1       -0.3275
      5 N          -8.2417  -19.5805   19.4893 N.ar    1  UNL1       -0.2169
      6 C          -6.9953  -19.2474   20.2544 C.ar    1  UNL1        0.0810
      7 C          -7.0947  -18.6637   21.6326 C.ar    1  UNL1        0.0309
      8 C          -5.7020  -18.4381   22.1421 C.3     1  UNL1        0.1248
      9 N          -4.7419  -18.8823   21.0787 N.am    1  UNL1       -0.2543
     10 C          -3.2452  -18.8348   21.1665 C.2     1  UNL1        0.3046
     11 O          -2.5830  -18.3055   22.4040 O.2     1  UNL1       -0.2526
     12 N          -2.4108  -19.3165   20.0169 N.am    1  UNL1       -0.2837
     13 C          -5.5411  -19.3825   19.9121 C.3     1  UNL1        0.1409
     14 H         -11.7174  -19.4984   19.7395 H       1  UNL1        0.1452
     15 H         -10.7687  -20.0460   18.4326 H       1  UNL1        0.1452
     16 H          -2.8454  -19.6638   19.2047 H       1  UNL1        0.1512
     17 C          -9.7566  -19.9735   24.4442 C.3     1  UNL1        0.0312
     18 C          -9.1980  -18.6096   24.7231 C.ar    1  UNL1       -0.0166
     19 C          -9.2975  -18.0258   26.1013 C.ar    1  UNL1        0.0074
     20 C          -8.7390  -16.6619   26.3802 C.ar    1  UNL1        0.0604
     21 CL         -8.8384  -16.0782   27.7584 Cl      1  UNL1       -0.0822
     22 C          -8.0809  -15.8817   25.2810 C.ar    1  UNL1        0.0483
     23 C          -7.9815  -16.4655   23.9028 C.ar    1  UNL1        0.1405
     24 C          -8.5400  -17.8294   23.6239 C.ar    1  UNL1        0.0476
     25 O          -7.3235  -15.6854   22.8036 O.3     1  UNL1       -0.4732
     26 C          -8.0895  -14.6188   22.0786 C.3     1  UNL1        0.2316
     27 C          -8.9185  -14.9740   20.8800 C.3     1  UNL1        0.1747
     28 N         -10.2957  -15.5399   21.0615 N.ar    1  UNL1       -0.2432
     29 C         -10.9852  -15.7785   22.3721 C.ar    1  UNL1        0.1264
     30 C         -12.3408  -16.3526   22.0849 C.ar    1  UNL1        0.1796
     31 F         -13.3678  -16.7422   23.1064 F       1  UNL1       -0.2008
     32 C         -12.4892  -16.4688   20.5968 C.ar    1  UNL1        0.1512
     33 N         -11.2252  -15.9665   19.9643 N.ar    1  UNL1       -0.1651
     34 C          -0.9141  -19.2688   20.1048 C.3     1  UNL1        0.1578
     35 C          -0.1929  -17.9668   19.9184 C.3     1  UNL1        0.2818
     36 C           0.5282  -16.6648   19.7321 C.3     1  UNL1        0.0740
     37 F          -1.3554  -17.4353   19.1334 F       1  UNL1       -0.2025
     38 F           0.9695  -18.4983   20.7034 F       1  UNL1       -0.2025
@<TRIPOS>BOND
     1    17    18    1
     2    18    19   ar
     3    19    20   ar
     4    20    21    1
     5    20    22   ar
     6    22    23   ar
     7    23    25    1
     8    25    26    1
     9    26    27    1
    10    27    28    1
    11    28    29   ar
    12    29    30   ar
    13    30    31    1
    14    30    32   ar
    15    32    33   ar
    16    23    24   ar
    17    24     1    1
    18     1     2   ar
    19     2     3   ar
    20     3     4    1
    21     3     5   ar
    22     5     6   ar
    23     6     7   ar
    24     7     8    1
    25     8     9    1
    26     9    10   am
    27    10    11    2
    28    10    12   am
    29    12    34    1
    30    34    35    1
    31    35    36    1
    32    35    37    1
    33    35    38    1
    34     9    13    1
    35    24    18   ar
    36     7     1   ar
    37    33    28   ar
    38    13     6    1
    39     4    14    1
    40     4    15    1
    41    12    16    1
@<TRIPOS>MOLECULE
*****
 38 41 0 0 0
SMALL
GASTEIGER

@<TRIPOS>ATOM
      1 C          -1.2327    3.3537   21.8310 C.ar    1  UNL1        0.0856
      2 N          -1.5089    3.6581   23.2737 N.ar    1  UNL1       -0.2142
      3 C          -0.7319    2.9592   24.3497 C.ar    1  UNL1        0.2134
      4 N          -1.0081    3.2636   25.7924 N.pl3   1  UNL1       -0.3275
      5 N           0.3212    1.9560   23.9831 N.ar    1  UNL1       -0.2169
      6 C           0.5974    1.6516   22.5406 C.ar    1  UNL1        0.0810
      7 C          -0.1796    2.3505   21.4645 C.ar    1  UNL1        0.0309
      8 C           0.3102    1.8485   20.1386 C.3     1  UNL1        0.1248
      9 N           1.3899    0.8393   20.3952 N.am    1  UNL1       -0.2543
     10 C           2.1574    0.0844   19.3507 C.2     1  UNL1        0.3046
     11 O           1.8683    0.3121   17.8965 O.2     1  UNL1       -0.2526
     12 N           3.2140   -0.8983   19.7603 N.am    1  UNL1       -0.2837
     13 C           1.5674    0.7177   21.8797 C.3     1  UNL1        0.1409
     14 H          -1.6993    3.9220   26.0330 H       1  UNL1        0.1452
     15 H          -0.4981    2.8048   26.4986 H       1  UNL1        0.1452
     16 H           3.4038   -1.0478   20.7147 H       1  UNL1        0.1512
     17 C           0.0645    5.5189   20.2094 C.3     1  UNL1        0.0312
     18 C          -1.3612    5.1352   19.9443 C.ar    1  UNL1       -0.0166
     19 C          -2.1383    5.8341   18.8683 C.ar    1  UNL1        0.0074
     20 C          -3.5639    5.4504   18.6031 C.ar    1  UNL1        0.0604
     21 CL         -4.3410    6.1493   17.5272 Cl      1  UNL1       -0.0822
     22 C          -4.2125    4.3679   19.4139 C.ar    1  UNL1        0.0483
     23 C          -3.4354    3.6690   20.4899 C.ar    1  UNL1        0.1405
     24 C          -2.0098    4.0527   20.7550 C.ar    1  UNL1        0.0476
     25 O          -4.0840    2.5865   21.3007 O.3     1  UNL1       -0.4732
     26 C          -4.9943    2.9444   22.4378 C.3     1  UNL1        0.2316
     27 C          -4.9773    4.3335   23.0037 C.3     1  UNL1        0.1747
     28 N          -4.9860    4.5383   24.4896 N.ar    1  UNL1       -0.2432
     29 C          -5.8557    5.5015   25.2417 C.ar    1  UNL1        0.1264
     30 C          -5.5337    5.3744   26.7012 C.ar    1  UNL1        0.1796
     31 F          -6.1689    6.1525   27.8153 F       1  UNL1       -0.2008
     32 C          -4.4650    4.3326   26.8510 C.ar    1  UNL1        0.1512
     33 N          -4.1265    3.8159   25.4842 N.ar    1  UNL1       -0.1651
     34 C           3.9815   -1.6533   18.7157 C.3     1  UNL1        0.1578
     35 C           4.1017   -3.1457   18.8057 C.3     1  UNL1        0.2818
     36 C           4.2219   -4.6382   18.8957 C.3     1  UNL1        0.0740
     37 F           2.8697   -3.1935   19.6602 F       1  UNL1       -0.2025
     38 F           5.3336   -3.0980   17.9512 F       1  UNL1       -0.2025
@<TRIPOS>BOND
     1    17    18    1
     2    18    19   ar
     3    19    20   ar
     4    20    21    1
     5    20    22   ar
     6    22    23   ar
     7    23    25    1
     8    25    26    1
     9    26    27    1
    10    27    28    1
    11    28    29   ar
    12    29    30   ar
    13    30    31    1
    14    30    32   ar
    15    32    33   ar
    16    23    24   ar
    17    24     1    1
    18     1     2   ar
    19     2     3   ar
    20     3     4    1
    21     3     5   ar
    22     5     6   ar
    23     6     7   ar
    24     7     8    1
    25     8     9    1
    26     9    10   am
    27    10    11    2
    28    10    12   am
    29    12    34    1
    30    34    35    1
    31    35    36    1
    32    35    37    1
    33    35    38    1
    34     9    13    1
    35    24    18   ar
    36     7     1   ar
    37    33    28   ar
    38    13     6    1
    39     4    14    1
    40     4    15    1
    41    12    16    1
@<TRIPOS>MOLECULE
*****
 38 41 0 0 0
SMALL
GASTEIGER

@<TRIPOS>ATOM
      1 C           2.8665    1.3828   19.8969 C.ar    1  UNL1        0.0856
      2 N           2.0499    1.8117   18.7140 N.ar    1  UNL1       -0.2142
      3 C           0.6198    2.2243   18.8997 C.ar    1  UNL1        0.2134
      4 N          -0.1968    2.6533   17.7168 N.pl3   1  UNL1       -0.3275
      5 N           0.0062    2.2080   20.2684 N.ar    1  UNL1       -0.2169
      6 C           0.8228    1.7791   21.4513 C.ar    1  UNL1        0.0810
      7 C           2.2529    1.3665   21.2655 C.ar    1  UNL1        0.0309
      8 C           2.8063    0.9945   22.6092 C.3     1  UNL1        0.1248
      9 N           1.7182    1.1772   23.6253 N.am    1  UNL1       -0.2543
     10 C           1.8354    0.9202   25.0985 C.2     1  UNL1        0.3046
     11 O           3.1325    0.4343   25.6742 O.2     1  UNL1       -0.2526
     12 N           0.6554    1.1490   25.9959 N.am    1  UNL1       -0.2837
     13 C           0.4923    1.6621   22.9098 C.3     1  UNL1        0.1409
     14 H           0.2059    2.6640   16.8185 H       1  UNL1        0.1452
     15 H          -1.1354    2.9241   17.8388 H       1  UNL1        0.1452
     16 H          -0.1959    1.4679   25.6181 H       1  UNL1        0.1512
     17 C           5.0285    3.4609   19.8128 C.3     1  UNL1        0.0312
     18 C           5.3776    2.0092   19.6690 C.ar    1  UNL1       -0.0166
     19 C           6.8077    1.5965   19.4832 C.ar    1  UNL1        0.0074
     20 C           7.1567    0.1448   19.3394 C.ar    1  UNL1        0.0604
     21 CL          8.5868   -0.2679   19.1535 Cl      1  UNL1       -0.0822
     22 C           6.0758   -0.8943   19.3814 C.ar    1  UNL1        0.0483
     23 C           4.6457   -0.4816   19.5673 C.ar    1  UNL1        0.1405
     24 C           4.2966    0.9701   19.7111 C.ar    1  UNL1        0.0476
     25 O           3.5646   -1.5206   19.6093 O.3     1  UNL1       -0.4732
     26 C           3.7982   -2.8710   18.9997 C.3     1  UNL1        0.2316
     27 C           4.0249   -4.0631   19.8815 C.3     1  UNL1        0.1747
     28 N           4.9370   -3.9562   21.0675 N.ar    1  UNL1       -0.2432
     29 C           4.5332   -3.5634   22.4577 C.ar    1  UNL1        0.1264
     30 C           5.7597   -3.5878   23.3209 C.ar    1  UNL1        0.1796
     31 F           5.8148   -3.2615   24.7840 F       1  UNL1       -0.2008
     32 C           6.9214   -3.9957   22.4642 C.ar    1  UNL1        0.1512
     33 N           6.4129   -4.2234   21.0715 N.ar    1  UNL1       -0.1651
     34 C           0.7727    0.8919   27.4691 C.3     1  UNL1        0.1578
     35 C          -0.3918    0.3262   28.2267 C.3     1  UNL1        0.2818
     36 C          -1.5563   -0.2395   28.9843 C.3     1  UNL1        0.0740
     37 F           0.5213   -0.6584   28.8952 F       1  UNL1       -0.2025
     38 F          -1.3049    1.3108   27.5582 F       1  UNL1       -0.2025
@<TRIPOS>BOND
     1    17    18    1
     2    18    19   ar
     3    19    20   ar
     4    20    21    1
     5    20    22   ar
     6    22    23   ar
     7    23    25    1
     8    25    26    1
     9    26    27    1
    10    27    28    1
    11    28    29   ar
    12    29    30   ar
    13    30    31    1
    14    30    32   ar
    15    32    33   ar
    16    23    24   ar
    17    24     1    1
    18     1     2   ar
    19     2     3   ar
    20     3     4    1
    21     3     5   ar
    22     5     6   ar
    23     6     7   ar
    24     7     8    1
    25     8     9    1
    26     9    10   am
    27    10    11    2
    28    10    12   am
    29    12    34    1
    30    34    35    1
    31    35    36    1
    32    35    37    1
    33    35    38    1
    34     9    13    1
    35    24    18   ar
    36     7     1   ar
    37    33    28   ar
    38    13     6    1
    39     4    14    1
    40     4    15    1
    41    12    16    1
@<TRIPOS>MOLECULE
*****
 38 41 0 0 0
SMALL
GASTEIGER

@<TRIPOS>ATOM
      1 C           5.4974   -2.1591   22.1802 C.ar    1  UNL1        0.0856
      2 N           6.7287   -2.9911   22.3851 N.ar    1  UNL1       -0.2142
      3 C           7.2049   -3.2964   23.7743 C.ar    1  UNL1        0.2134
      4 N           8.4361   -4.1284   23.9792 N.pl3   1  UNL1       -0.3275
      5 N           6.4499   -2.7698   24.9586 N.ar    1  UNL1       -0.2169
      6 C           5.2188   -1.9379   24.7538 C.ar    1  UNL1        0.0810
      7 C           4.7425   -1.6325   23.3645 C.ar    1  UNL1        0.0309
      8 C           3.5047   -0.7922   23.4730 C.3     1  UNL1        0.1248
      9 N           3.2160   -0.5782   24.9293 N.am    1  UNL1       -0.2543
     10 C           2.0693    0.2062   25.4949 C.2     1  UNL1        0.3046
     11 O           1.0835    0.8629   24.5746 O.2     1  UNL1       -0.2526
     12 N           1.9084    0.3340   26.9807 N.am    1  UNL1       -0.2837
     13 C           4.2753   -1.2862   25.7209 C.3     1  UNL1        0.1409
     14 H           8.9317   -4.4741   23.2019 H       1  UNL1        0.1452
     15 H           8.7487   -4.3288   24.8910 H       1  UNL1        0.1452
     16 H           2.5554   -0.0970   27.5848 H       1  UNL1        0.1512
     17 C           4.2582   -4.3213   20.5101 C.3     1  UNL1        0.0312
     18 C           4.4016   -2.9349   19.9559 C.ar    1  UNL1       -0.0166
     19 C           3.9255   -2.6295   18.5667 C.ar    1  UNL1        0.0074
     20 C           4.0689   -1.2430   18.0125 C.ar    1  UNL1        0.0604
     21 CL          3.5928   -0.9376   16.6232 Cl      1  UNL1       -0.0822
     22 C           4.6885   -0.1619   18.8475 C.ar    1  UNL1        0.0483
     23 C           5.1647   -0.4673   20.2367 C.ar    1  UNL1        0.1405
     24 C           5.0212   -1.8538   20.7909 C.ar    1  UNL1        0.0476
     25 O           5.7843    0.6137   21.0718 O.3     1  UNL1       -0.4732
     26 C           5.2310    2.0072   21.0255 C.3     1  UNL1        0.2316
     27 C           3.8426    2.2799   21.5234 C.3     1  UNL1        0.1747
     28 N           2.6576    1.9082   20.6822 N.ar    1  UNL1       -0.2432
     29 C           2.1765    2.6399   19.4644 C.ar    1  UNL1        0.1264
     30 C           0.9672    1.9235   18.9407 C.ar    1  UNL1        0.1796
     31 F           0.1651    2.3132   17.7346 F       1  UNL1       -0.2008
     32 C           0.7010    0.7489   19.8348 C.ar    1  UNL1        0.1512
     33 N           1.7457    0.7395   20.9111 N.ar    1  UNL1       -0.1651
     34 C           0.7617    1.1184   27.5462 C.3     1  UNL1        0.1578
     35 C          -0.3760    0.4064   28.2160 C.3     1  UNL1        0.2818
     36 C          -1.5137   -0.3056   28.8859 C.3     1  UNL1        0.0740
     37 F           0.5897   -0.5716   28.8169 F       1  UNL1       -0.2025
     38 F          -1.3418    1.3843   27.6152 F       1  UNL1       -0.2025
@<TRIPOS>BOND
     1    17    18    1
     2    18    19   ar
     3    19    20   ar
     4    20    21    1
     5    20    22   ar
     6    22    23   ar
     7    23    25    1
     8    25    26    1
     9    26    27    1
    10    27    28    1
    11    28    29   ar
    12    29    30   ar
    13    30    31    1
    14    30    32   ar
    15    32    33   ar
    16    23    24   ar
    17    24     1    1
    18     1     2   ar
    19     2     3   ar
    20     3     4    1
    21     3     5   ar
    22     5     6   ar
    23     6     7   ar
    24     7     8    1
    25     8     9    1
    26     9    10   am
    27    10    11    2
    28    10    12   am
    29    12    34    1
    30    34    35    1
    31    35    36    1
    32    35    37    1
    33    35    38    1
    34     9    13    1
    35    24    18   ar
    36     7     1   ar
    37    33    28   ar
    38    13     6    1
    39     4    14    1
    40     4    15    1
    41    12    16    1
