@<TRIPOS>MOLECULE
*****
 26 29 0 0 0
SMALL
GASTEIGER

@<TRIPOS>ATOM
      1 C          -8.7007  -19.0271   21.0486 C.2     1  UNL1        0.2252
      2 O          -8.6992  -18.8988   19.5542 O.2     1  UNL1       -0.2750
      3 N          -7.5565  -19.7027   21.7446 N.am    1  UNL1       -0.3004
      4 H          -7.5575  -19.7869   22.7255 H       1  UNL1        0.1497
      5 C          -9.8465  -18.4797   21.8472 C.3     1  UNL1        0.1154
      6 C         -10.7499  -20.0718   22.6710 C.3     1  UNL1        0.0335
      7 C         -10.0341  -18.9000   23.2747 C.3     1  UNL1        0.1377
      8 C          -9.2790  -17.6404   23.5801 C.3     1  UNL1        0.0613
      9 C          -9.1496  -17.5272   25.0702 C.3     1  UNL1        0.1290
     10 C          -9.0995  -17.5492   26.5692 C.3     1  UNL1        0.0305
     11 C          -8.4152  -16.4409   27.3131 C.3     1  UNL1        0.0025
     12 C          -7.7810  -15.3106   26.5579 C.3     1  UNL1        0.0002
     13 C          -7.8311  -15.2886   25.0590 C.3     1  UNL1        0.0025
     14 C          -8.5154  -16.3968   24.3151 C.3     1  UNL1        0.0305
     15 O          -9.8247  -18.7168   25.6859 O.3     1  UNL1       -0.2256
     16 O         -10.3713  -19.5654   24.5762 O.3     1  UNL1       -0.2251
     17 C          -6.4108  -20.2501   20.9460 C.3     1  UNL1        0.1164
     18 C          -5.0701  -19.5796   21.0012 C.ar    1  UNL1        0.0004
     19 C          -4.5654  -19.0175   22.2971 C.ar    1  UNL1       -0.0027
     20 C          -3.2247  -18.3471   22.3523 C.ar    1  UNL1       -0.0014
     21 C          -2.3887  -18.2387   21.1116 C.ar    1  UNL1        0.0155
     22 C          -2.8934  -18.8007   19.8158 C.ar    1  UNL1        0.1344
     23 C          -4.2341  -19.4712   19.7605 C.ar    1  UNL1        0.0340
     24 O          -1.8541  -18.5467   18.7644 O.3     1  UNL1       -0.4754
     25 C          -0.7072  -17.8277   19.4105 C.3     1  UNL1        0.2102
     26 C          -1.0376  -17.6373   20.8612 C.3     1  UNL1        0.0767
@<TRIPOS>BOND
     1     6     7    1
     2     7     5    1
     3     5     1    1
     4     1     2    2
     5     1     3   am
     6     3    17    1
     7    17    18    1
     8    18    19   ar
     9    19    20   ar
    10    20    21   ar
    11    21    22   ar
    12    22    23   ar
    13    22    24    1
    14    24    25    1
    15    25    26    1
    16     7     8    1
    17     8     9    1
    18     9    10    1
    19    10    11    1
    20    11    12    1
    21    12    13    1
    22    13    14    1
    23     9    15    1
    24    15    16    1
    25    16     7    1
    26    23    18   ar
    27    14     9    1
    28    26    21    1
    29     3     4    1
@<TRIPOS>MOLECULE
*****
 26 29 0 0 0
SMALL
GASTEIGER

@<TRIPOS>ATOM
      1 C          -7.3550  -19.5493   20.0459 C.2     1  UNL1        0.2252
      2 O          -7.4088  -18.1200   20.4974 O.2     1  UNL1       -0.2750
      3 N          -8.5058  -20.1397   19.2861 N.am    1  UNL1       -0.3004
      4 H          -8.4705  -21.0779   18.9897 H       1  UNL1        0.1497
      5 C          -6.1504  -20.3884   20.3541 C.3     1  UNL1        0.1154
      6 C          -6.2588  -20.5646   22.3509 C.3     1  UNL1        0.0335
      7 C          -5.2119  -19.9791   21.4502 C.3     1  UNL1        0.1377
      8 C          -4.3612  -19.4791   20.3205 C.3     1  UNL1        0.0613
      9 C          -3.1156  -18.8831   20.9067 C.3     1  UNL1        0.1290
     10 C          -1.9282  -18.3251   21.6337 C.3     1  UNL1        0.0305
     11 C          -0.7999  -17.7062   20.8632 C.3     1  UNL1        0.0025
     12 C          -0.8590  -17.6452   19.3656 C.3     1  UNL1        0.0002
     13 C          -2.0464  -18.2032   18.6386 C.3     1  UNL1        0.0025
     14 C          -3.1747  -18.8221   19.4091 C.3     1  UNL1        0.0305
     15 O          -3.1966  -19.0148   22.3987 O.3     1  UNL1       -0.2256
     16 O          -4.4922  -19.6921   22.7347 O.3     1  UNL1       -0.2251
     17 C          -9.7103  -19.3006   18.9779 C.3     1  UNL1        0.1164
     18 C         -10.5882  -18.8112   20.0913 C.ar    1  UNL1        0.0004
     19 C         -11.4678  -17.6142   19.8821 C.ar    1  UNL1       -0.0027
     20 C         -12.3456  -17.1248   20.9955 C.ar    1  UNL1       -0.0014
     21 C         -12.3439  -17.8322   22.3182 C.ar    1  UNL1        0.0155
     22 C         -11.4644  -19.0291   22.5275 C.ar    1  UNL1        0.1344
     23 C         -10.5865  -19.5186   21.4140 C.ar    1  UNL1        0.0340
     24 O         -11.6737  -19.5186   23.9298 O.3     1  UNL1       -0.4754
     25 C         -12.6826  -18.6243   24.5872 C.3     1  UNL1        0.2102
     26 C         -13.0968  -17.5820   23.5912 C.3     1  UNL1        0.0767
@<TRIPOS>BOND
     1     6     7    1
     2     7     5    1
     3     5     1    1
     4     1     2    2
     5     1     3   am
     6     3    17    1
     7    17    18    1
     8    18    19   ar
     9    19    20   ar
    10    20    21   ar
    11    21    22   ar
    12    22    23   ar
    13    22    24    1
    14    24    25    1
    15    25    26    1
    16     7     8    1
    17     8     9    1
    18     9    10    1
    19    10    11    1
    20    11    12    1
    21    12    13    1
    22    13    14    1
    23     9    15    1
    24    15    16    1
    25    16     7    1
    26    23    18   ar
    27    14     9    1
    28    26    21    1
    29     3     4    1
@<TRIPOS>MOLECULE
*****
 26 29 0 0 0
SMALL
GASTEIGER

@<TRIPOS>ATOM
      1 C          -5.9353  -19.4649   20.4953 C.2     1  UNL1        0.2252
      2 O          -5.7919  -18.3854   19.4638 O.2     1  UNL1       -0.2750
      3 N          -7.2698  -20.1105   20.7248 N.am    1  UNL1       -0.3004
      4 H          -7.3639  -20.8190   21.4018 H       1  UNL1        0.1497
      5 C          -4.7443  -19.8989   21.2973 C.3     1  UNL1        0.1154
      6 C          -2.7963  -19.6494   21.7129 C.3     1  UNL1        0.0335
      7 C          -4.0212  -18.9091   22.1617 C.3     1  UNL1        0.1377
      8 C          -5.3973  -18.3757   22.4299 C.3     1  UNL1        0.0613
      9 C          -5.2687  -17.2109   23.3663 C.3     1  UNL1        0.1290
     10 C          -4.9851  -16.0716   24.2998 C.3     1  UNL1        0.0305
     11 C          -6.1138  -15.2394   24.8321 C.3     1  UNL1        0.0025
     12 C          -7.5262  -15.5465   24.4308 C.3     1  UNL1        0.0002
     13 C          -7.8097  -16.6858   23.4973 C.3     1  UNL1        0.0025
     14 C          -6.6810  -17.5180   22.9650 C.3     1  UNL1        0.0305
     15 O          -3.8130  -17.0244   23.6768 O.3     1  UNL1       -0.2256
     16 O          -3.0420  -18.0740   22.9324 O.3     1  UNL1       -0.2251
     17 C          -8.4607  -19.6765   19.9228 C.3     1  UNL1        0.1164
     18 C          -9.6757  -19.1359   20.6168 C.ar    1  UNL1        0.0004
     19 C         -10.6430  -18.2678   19.8681 C.ar    1  UNL1       -0.0027
     20 C         -11.8580  -17.7272   20.5621 C.ar    1  UNL1       -0.0014
     21 C         -12.1056  -18.0548   22.0048 C.ar    1  UNL1        0.0155
     22 C         -11.1383  -18.9230   22.7534 C.ar    1  UNL1        0.1344
     23 C          -9.9233  -19.4636   22.0595 C.ar    1  UNL1        0.0340
     24 O         -11.6425  -19.0743   24.1580 O.3     1  UNL1       -0.4754
     25 C         -12.9214  -18.2997   24.2774 C.3     1  UNL1        0.2102
     26 C         -13.2076  -17.6696   22.9466 C.3     1  UNL1        0.0767
@<TRIPOS>BOND
     1     6     7    1
     2     7     5    1
     3     5     1    1
     4     1     2    2
     5     1     3   am
     6     3    17    1
     7    17    18    1
     8    18    19   ar
     9    19    20   ar
    10    20    21   ar
    11    21    22   ar
    12    22    23   ar
    13    22    24    1
    14    24    25    1
    15    25    26    1
    16     7     8    1
    17     8     9    1
    18     9    10    1
    19    10    11    1
    20    11    12    1
    21    12    13    1
    22    13    14    1
    23     9    15    1
    24    15    16    1
    25    16     7    1
    26    23    18   ar
    27    14     9    1
    28    26    21    1
    29     3     4    1
@<TRIPOS>MOLECULE
*****
 26 29 0 0 0
SMALL
GASTEIGER

@<TRIPOS>ATOM
      1 C          -6.5366  -18.9601   21.6506 C.2     1  UNL1        0.2252
      2 O          -6.5035  -18.4140   20.2540 O.2     1  UNL1       -0.2750
      3 N          -7.8025  -19.5533   22.1942 N.am    1  UNL1       -0.3004
      4 H          -7.8242  -19.9117   23.1109 H       1  UNL1        0.1497
      5 C          -5.3036  -18.9130   22.5037 C.3     1  UNL1        0.1154
      6 C          -5.6373  -17.2171   23.5244 C.3     1  UNL1        0.0335
      7 C          -4.5191  -17.6397   22.6183 C.3     1  UNL1        0.1377
      8 C          -3.5650  -18.3286   21.6883 C.3     1  UNL1        0.0613
      9 C          -2.4244  -17.3926   21.4175 C.3     1  UNL1        0.1290
     10 C          -1.3564  -16.3543   21.2413 C.3     1  UNL1        0.0305
     11 C          -0.1742  -16.6361   20.3622 C.3     1  UNL1        0.0025
     12 C          -0.0600  -17.9563   19.6593 C.3     1  UNL1        0.0002
     13 C          -1.1281  -18.9946   19.8355 C.3     1  UNL1        0.0025
     14 C          -2.3103  -18.7128   20.7146 C.3     1  UNL1        0.0305
     15 O          -2.6738  -16.1253   22.1803 O.3     1  UNL1       -0.2256
     16 O          -3.9684  -16.2780   22.9224 O.3     1  UNL1       -0.2251
     17 C          -9.0354  -19.6003   21.3411 C.3     1  UNL1        0.1164
     18 C         -10.3471  -19.1249   21.8920 C.ar    1  UNL1        0.0004
     19 C         -11.3247  -18.4205   20.9985 C.ar    1  UNL1       -0.0027
     20 C         -12.6364  -17.9451   21.5494 C.ar    1  UNL1       -0.0014
     21 C         -12.9706  -18.1742   22.9936 C.ar    1  UNL1        0.0155
     22 C         -11.9931  -18.8786   23.8870 C.ar    1  UNL1        0.1344
     23 C         -10.6813  -19.3540   23.3362 C.ar    1  UNL1        0.0340
     24 O         -12.5949  -18.9611   25.2585 O.3     1  UNL1       -0.4754
     25 C         -13.9442  -18.3076   25.2127 C.3     1  UNL1        0.2102
     26 C         -14.1764  -17.8212   23.8129 C.3     1  UNL1        0.0767
@<TRIPOS>BOND
     1     6     7    1
     2     7     5    1
     3     5     1    1
     4     1     2    2
     5     1     3   am
     6     3    17    1
     7    17    18    1
     8    18    19   ar
     9    19    20   ar
    10    20    21   ar
    11    21    22   ar
    12    22    23   ar
    13    22    24    1
    14    24    25    1
    15    25    26    1
    16     7     8    1
    17     8     9    1
    18     9    10    1
    19    10    11    1
    20    11    12    1
    21    12    13    1
    22    13    14    1
    23     9    15    1
    24    15    16    1
    25    16     7    1
    26    23    18   ar
    27    14     9    1
    28    26    21    1
    29     3     4    1
@<TRIPOS>MOLECULE
*****
 26 29 0 0 0
SMALL
GASTEIGER

@<TRIPOS>ATOM
      1 C          -6.6650  -19.0237   21.9238 C.2     1  UNL1        0.2252
      2 O          -6.4797  -17.7439   22.6838 O.2     1  UNL1       -0.2750
      3 N          -7.9594  -19.2950   21.2160 N.am    1  UNL1       -0.3004
      4 H          -8.0810  -20.1351   20.7172 H       1  UNL1        0.1497
      5 C          -5.5558  -20.0323   21.8715 C.3     1  UNL1        0.1154
      6 C          -5.6336  -21.2716   20.2943 C.3     1  UNL1        0.0335
      7 C          -4.7039  -20.1471   20.6424 C.3     1  UNL1        0.1377
      8 C          -3.9523  -18.9986   21.2475 C.3     1  UNL1        0.0613
      9 C          -2.8301  -18.6386   20.3194 C.3     1  UNL1        0.1290
     10 C          -1.7587  -18.3946   19.2985 C.3     1  UNL1        0.0305
     11 C          -0.7548  -17.3007   19.5117 C.3     1  UNL1        0.0025
     12 C          -0.8223  -16.4508   20.7458 C.3     1  UNL1        0.0002
     13 C          -1.8938  -16.6947   21.7667 C.3     1  UNL1        0.0025
     14 C          -2.8977  -17.7887   21.5536 C.3     1  UNL1        0.0305
     15 O          -2.8882  -19.5646   19.1408 O.3     1  UNL1       -0.2256
     16 O          -4.0463  -20.4969   19.3404 O.3     1  UNL1       -0.2251
     17 C          -9.0685  -18.2865   21.2682 C.3     1  UNL1        0.1164
     18 C         -10.1232  -18.3859   22.3302 C.ar    1  UNL1        0.0004
     19 C          -9.7428  -18.7587   23.7324 C.ar    1  UNL1       -0.0027
     20 C         -10.7975  -18.8581   24.7944 C.ar    1  UNL1       -0.0014
     21 C         -12.2326  -18.5847   24.4540 C.ar    1  UNL1        0.0155
     22 C         -12.6129  -18.2119   23.0519 C.ar    1  UNL1        0.1344
     23 C         -11.5582  -18.1125   21.9898 C.ar    1  UNL1        0.0340
     24 O         -14.0976  -18.0011   23.0148 O.3     1  UNL1       -0.4754
     25 C         -14.6347  -18.2437   24.3941 C.3     1  UNL1        0.2102
     26 C         -13.4821  -18.6044   25.2836 C.3     1  UNL1        0.0767
@<TRIPOS>BOND
     1     6     7    1
     2     7     5    1
     3     5     1    1
     4     1     2    2
     5     1     3   am
     6     3    17    1
     7    17    18    1
     8    18    19   ar
     9    19    20   ar
    10    20    21   ar
    11    21    22   ar
    12    22    23   ar
    13    22    24    1
    14    24    25    1
    15    25    26    1
    16     7     8    1
    17     8     9    1
    18     9    10    1
    19    10    11    1
    20    11    12    1
    21    12    13    1
    22    13    14    1
    23     9    15    1
    24    15    16    1
    25    16     7    1
    26    23    18   ar
    27    14     9    1
    28    26    21    1
    29     3     4    1
@<TRIPOS>MOLECULE
*****
 26 29 0 0 0
SMALL
GASTEIGER

@<TRIPOS>ATOM
      1 C           8.4036   -9.6939   27.5264 C.2     1  UNL1        0.2252
      2 O           9.5283  -10.5172   28.0806 O.2     1  UNL1       -0.2750
      3 N           6.9905  -10.1856   27.6336 N.am    1  UNL1       -0.3004
      4 H           6.2523   -9.6452   27.2698 H       1  UNL1        0.1497
      5 C           8.6920   -8.3788   26.8648 C.3     1  UNL1        0.1154
      6 C           7.3713   -7.7433   25.4932 C.3     1  UNL1        0.0335
      7 C           7.6657   -7.2853   26.8909 C.3     1  UNL1        0.1377
      8 C           8.1746   -7.0559   28.2831 C.3     1  UNL1        0.0613
      9 C           7.4012   -5.9163   28.8775 C.3     1  UNL1        0.1290
     10 C           6.5499   -4.7695   29.3357 C.3     1  UNL1        0.0305
     11 C           6.7315   -4.2041   30.7132 C.3     1  UNL1        0.0025
     12 C           7.7644   -4.7855   31.6324 C.3     1  UNL1        0.0002
     13 C           8.6158   -5.9323   31.1741 C.3     1  UNL1        0.0025
     14 C           8.4341   -6.4977   29.7967 C.3     1  UNL1        0.0305
     15 O           6.4143   -5.4413   27.8526 O.3     1  UNL1       -0.2256
     16 O           6.5777   -6.2874   26.6247 O.3     1  UNL1       -0.2251
     17 C           6.7022  -11.5006   28.2951 C.3     1  UNL1        0.1164
     18 C           5.3542  -12.1395   28.1381 C.ar    1  UNL1        0.0004
     19 C           5.0063  -12.8537   26.8657 C.ar    1  UNL1       -0.0027
     20 C           3.6583  -13.4926   26.7087 C.ar    1  UNL1       -0.0014
     21 C           2.6582  -13.4173   27.8240 C.ar    1  UNL1        0.0155
     22 C           3.0060  -12.7032   29.0964 C.ar    1  UNL1        0.1344
     23 C           4.3541  -12.0642   29.2534 C.ar    1  UNL1        0.0340
     24 O           1.8242  -12.7920   30.0158 O.3     1  UNL1       -0.4754
     25 C           0.7459  -13.5610   29.3117 C.3     1  UNL1        0.2102
     26 C           1.2613  -13.9475   27.9570 C.3     1  UNL1        0.0767
@<TRIPOS>BOND
     1     6     7    1
     2     7     5    1
     3     5     1    1
     4     1     2    2
     5     1     3   am
     6     3    17    1
     7    17    18    1
     8    18    19   ar
     9    19    20   ar
    10    20    21   ar
    11    21    22   ar
    12    22    23   ar
    13    22    24    1
    14    24    25    1
    15    25    26    1
    16     7     8    1
    17     8     9    1
    18     9    10    1
    19    10    11    1
    20    11    12    1
    21    12    13    1
    22    13    14    1
    23     9    15    1
    24    15    16    1
    25    16     7    1
    26    23    18   ar
    27    14     9    1
    28    26    21    1
    29     3     4    1
@<TRIPOS>MOLECULE
*****
 26 29 0 0 0
SMALL
GASTEIGER

@<TRIPOS>ATOM
      1 C          -7.4363  -18.5204   20.8824 C.2     1  UNL1        0.2252
      2 O          -6.8536  -17.5579   21.8744 O.2     1  UNL1       -0.2750
      3 N          -8.9235  -18.6082   20.7070 N.am    1  UNL1       -0.3004
      4 H          -9.3059  -19.2400   20.0560 H       1  UNL1        0.1497
      5 C          -6.5318  -19.3951   20.0657 C.3     1  UNL1        0.1154
      6 C          -6.2765  -20.8922   21.3784 C.3     1  UNL1        0.0335
      7 C          -5.3011  -19.9874   20.6856 C.3     1  UNL1        0.1377
      8 C          -4.5830  -18.9588   19.8633 C.3     1  UNL1        0.0613
      9 C          -3.1122  -19.1045   20.1198 C.3     1  UNL1        0.1290
     10 C          -1.6786  -19.3675   20.4740 C.3     1  UNL1        0.0305
     11 C          -0.5899  -18.5399   19.8578 C.3     1  UNL1        0.0025
     12 C          -0.9348  -17.4493   18.8874 C.3     1  UNL1        0.0002
     13 C          -2.3684  -17.1864   18.5331 C.3     1  UNL1        0.0025
     14 C          -3.4571  -18.0140   19.1494 C.3     1  UNL1        0.0305
     15 O          -2.9214  -20.2232   21.1007 O.3     1  UNL1       -0.2256
     16 O          -4.2742  -20.7689   21.4505 O.3     1  UNL1       -0.2251
     17 C          -9.8279  -17.7336   21.5237 C.3     1  UNL1        0.1164
     18 C          -9.5928  -17.5801   22.9972 C.ar    1  UNL1        0.0004
     19 C          -9.9691  -18.6877   23.9361 C.ar    1  UNL1       -0.0027
     20 C          -9.7340  -18.5343   25.4096 C.ar    1  UNL1       -0.0014
     21 C          -9.1226  -17.2732   25.9442 C.ar    1  UNL1        0.0155
     22 C          -8.7462  -16.1657   25.0053 C.ar    1  UNL1        0.1344
     23 C          -8.9813  -16.3191   23.5318 C.ar    1  UNL1        0.0340
     24 O          -8.1650  -15.0467   25.8179 O.3     1  UNL1       -0.4754
     25 C          -8.1822  -15.4627   27.2588 C.3     1  UNL1        0.2102
     26 C          -8.7740  -16.8388   27.3369 C.3     1  UNL1        0.0767
@<TRIPOS>BOND
     1     6     7    1
     2     7     5    1
     3     5     1    1
     4     1     2    2
     5     1     3   am
     6     3    17    1
     7    17    18    1
     8    18    19   ar
     9    19    20   ar
    10    20    21   ar
    11    21    22   ar
    12    22    23   ar
    13    22    24    1
    14    24    25    1
    15    25    26    1
    16     7     8    1
    17     8     9    1
    18     9    10    1
    19    10    11    1
    20    11    12    1
    21    12    13    1
    22    13    14    1
    23     9    15    1
    24    15    16    1
    25    16     7    1
    26    23    18   ar
    27    14     9    1
    28    26    21    1
    29     3     4    1
@<TRIPOS>MOLECULE
*****
 26 29 0 0 0
SMALL
GASTEIGER

@<TRIPOS>ATOM
      1 C          -6.5595  -18.9805   22.0495 C.2     1  UNL1        0.2252
      2 O          -5.9625  -17.9195   22.9256 O.2     1  UNL1       -0.2750
      3 N          -7.9354  -18.7971   21.4809 N.am    1  UNL1       -0.3004
      4 H          -8.3273  -19.4935   20.9058 H       1  UNL1        0.1497
      5 C          -5.7807  -20.2251   21.7420 C.3     1  UNL1        0.1154
      6 C          -5.7987  -21.3952   20.1110 C.3     1  UNL1        0.0335
      7 C          -4.8942  -20.2755   20.5331 C.3     1  UNL1        0.1377
      8 C          -4.1751  -19.1453   21.2079 C.3     1  UNL1        0.0613
      9 C          -3.0332  -18.7311   20.3278 C.3     1  UNL1        0.1290
     10 C          -1.9378  -18.4295   19.3484 C.3     1  UNL1        0.0305
     11 C          -0.9551  -17.3335   19.6365 C.3     1  UNL1        0.0025
     12 C          -1.0677  -16.5391   20.9040 C.3     1  UNL1        0.0002
     13 C          -2.1631  -16.8408   21.8833 C.3     1  UNL1        0.0025
     14 C          -3.1458  -17.9368   21.5952 C.3     1  UNL1        0.0305
     15 O          -3.0465  -19.6055   19.1090 O.3     1  UNL1       -0.2256
     16 O          -4.1968  -20.5600   19.2359 O.3     1  UNL1       -0.2251
     17 C          -8.7142  -17.5525   21.7884 C.3     1  UNL1        0.1164
     18 C          -8.5110  -16.8443   23.0950 C.ar    1  UNL1        0.0004
     19 C          -7.9078  -15.4711   23.1179 C.ar    1  UNL1       -0.0027
     20 C          -7.7045  -14.7629   24.4245 C.ar    1  UNL1       -0.0014
     21 C          -8.1046  -15.4279   25.7081 C.ar    1  UNL1        0.0155
     22 C          -8.7078  -16.8010   25.6852 C.ar    1  UNL1        0.1344
     23 C          -8.9110  -17.5093   24.3786 C.ar    1  UNL1        0.0340
     24 O          -9.0022  -17.2016   27.1004 O.3     1  UNL1       -0.4754
     25 C          -8.5810  -16.0761   27.9979 C.3     1  UNL1        0.2102
     26 C          -8.0262  -14.9798   27.1375 C.3     1  UNL1        0.0767
@<TRIPOS>BOND
     1     6     7    1
     2     7     5    1
     3     5     1    1
     4     1     2    2
     5     1     3   am
     6     3    17    1
     7    17    18    1
     8    18    19   ar
     9    19    20   ar
    10    20    21   ar
    11    21    22   ar
    12    22    23   ar
    13    22    24    1
    14    24    25    1
    15    25    26    1
    16     7     8    1
    17     8     9    1
    18     9    10    1
    19    10    11    1
    20    11    12    1
    21    12    13    1
    22    13    14    1
    23     9    15    1
    24    15    16    1
    25    16     7    1
    26    23    18   ar
    27    14     9    1
    28    26    21    1
    29     3     4    1
@<TRIPOS>MOLECULE
*****
 26 29 0 0 0
SMALL
GASTEIGER

@<TRIPOS>ATOM
      1 C           4.8751   -3.5582   21.2501 C.2     1  UNL1        0.2252
      2 O           4.1726   -3.6563   22.5717 O.2     1  UNL1       -0.2750
      3 N           6.3585   -3.3397   21.2036 N.am    1  UNL1       -0.3004
      4 H           6.8196   -3.2752   20.3361 H       1  UNL1        0.1497
      5 C           4.0944   -3.6786   19.9749 C.3     1  UNL1        0.1154
      6 C           5.3035   -3.4370   18.3907 C.3     1  UNL1        0.0335
      7 C           4.1842   -2.6004   18.9360 C.3     1  UNL1        0.1377
      8 C           3.0462   -1.9892   19.6984 C.3     1  UNL1        0.0613
      9 C           2.6665   -0.7081   19.0167 C.3     1  UNL1        0.1290
     10 C           2.4012    0.5423   18.2318 C.3     1  UNL1        0.0305
     11 C           1.3098    1.4785   18.6589 C.3     1  UNL1        0.0025
     12 C           0.4838    1.1642   19.8709 C.3     1  UNL1        0.0002
     13 C           0.7491   -0.0861   20.6557 C.3     1  UNL1        0.0025
     14 C           1.8405   -1.0223   20.2287 C.3     1  UNL1        0.0305
     15 O           3.5700   -0.5275   17.8330 O.3     1  UNL1       -0.2256
     16 O           4.5080   -1.6971   17.7830 O.3     1  UNL1       -0.2251
     17 C           7.1391   -3.2193   22.4787 C.3     1  UNL1        0.1164
     18 C           7.5384   -4.4528   23.2329 C.ar    1  UNL1        0.0004
     19 C           8.4154   -5.4800   22.5804 C.ar    1  UNL1       -0.0027
     20 C           8.8147   -6.7135   23.3346 C.ar    1  UNL1       -0.0014
     21 C           8.3370   -6.9200   24.7414 C.ar    1  UNL1        0.0155
     22 C           7.4600   -5.8929   25.3940 C.ar    1  UNL1        0.1344
     23 C           7.0607   -4.6592   24.6398 C.ar    1  UNL1        0.0340
     24 O           7.1460   -6.3662   26.7823 O.3     1  UNL1       -0.4754
     25 C           7.8288   -7.6858   26.9877 C.3     1  UNL1        0.2102
     26 C           8.5649   -8.0281   25.7263 C.3     1  UNL1        0.0767
@<TRIPOS>BOND
     1     6     7    1
     2     7     5    1
     3     5     1    1
     4     1     2    2
     5     1     3   am
     6     3    17    1
     7    17    18    1
     8    18    19   ar
     9    19    20   ar
    10    20    21   ar
    11    21    22   ar
    12    22    23   ar
    13    22    24    1
    14    24    25    1
    15    25    26    1
    16     7     8    1
    17     8     9    1
    18     9    10    1
    19    10    11    1
    20    11    12    1
    21    12    13    1
    22    13    14    1
    23     9    15    1
    24    15    16    1
    25    16     7    1
    26    23    18   ar
    27    14     9    1
    28    26    21    1
    29     3     4    1
