@<TRIPOS>MOLECULE
*****
 27 29 0 0 0
SMALL
GASTEIGER

@<TRIPOS>ATOM
      1 C          -8.6996  -16.7004   23.3630 C.3     1  UNL1        0.0868
      2 F          -9.3991  -19.1674   24.9202 F       1  UNL1       -0.2045
      3 C         -10.4790  -18.3765   24.2433 C.ar    1  UNL1        0.1374
      4 C         -11.9086  -18.8190   24.3450 C.ar    1  UNL1        0.0294
      5 C         -12.9885  -18.0280   23.6681 C.ar    1  UNL1        0.0023
      6 C         -12.6388  -16.7945   22.8896 C.ar    1  UNL1       -0.0001
      7 C         -11.2092  -16.3520   22.7879 C.ar    1  UNL1       -0.0007
      8 C         -10.1293  -17.1430   23.4648 C.ar    1  UNL1        0.0200
      9 N          -7.9971  -16.1508   24.5689 N.3     1  UNL1       -0.2676
     10 C          -8.7331  -16.0154   25.8690 C.3     1  UNL1        0.0896
     11 C          -8.0305  -15.4658   27.0749 C.3     1  UNL1        0.0862
     12 N          -6.5919  -15.0515   26.9808 N.3     1  UNL1       -0.2951
     13 C          -5.8559  -15.1869   25.6809 C.3     1  UNL1        0.0862
     14 C          -6.5585  -15.7365   24.4749 C.3     1  UNL1        0.0896
     15 H          -6.0804  -15.6054   27.6678 H       1  UNL1        0.1233
     16 C          -7.9726  -16.8075   22.0554 C.3     1  UNL1        0.0500
     17 C          -7.3039  -18.0943   21.6722 C.ar    1  UNL1        0.0137
     18 C          -6.0554  -18.5306   22.3802 C.ar    1  UNL1       -0.0012
     19 C          -5.3867  -19.8174   21.9970 C.ar    1  UNL1       -0.0001
     20 C          -5.9663  -20.6680   20.9060 C.ar    1  UNL1        0.0031
     21 C          -7.2147  -20.2318   20.1980 C.ar    1  UNL1        0.0369
     22 C          -7.8835  -18.9450   20.5812 C.ar    1  UNL1        0.1428
     23 O          -9.1319  -18.5088   19.8732 O.3     1  UNL1       -0.4048
     24 C         -10.4741  -18.9415   20.3844 C.3     1  UNL1        0.5753
     25 F         -11.8163  -19.3741   20.8956 F       1  UNL1       -0.1328
     26 F          -9.8047  -19.8429   21.3791 F       1  UNL1       -0.1328
     27 F         -11.1435  -18.0400   19.3897 F       1  UNL1       -0.1328
@<TRIPOS>BOND
     1     2     3    1
     2     3     4   ar
     3     4     5   ar
     4     5     6   ar
     5     6     7   ar
     6     7     8   ar
     7     8     1    1
     8     1    16    1
     9    16    17    1
    10    17    18   ar
    11    18    19   ar
    12    19    20   ar
    13    20    21   ar
    14    21    22   ar
    15    22    23    1
    16    23    24    1
    17    24    25    1
    18    24    26    1
    19    24    27    1
    20     1     9    1
    21     9    10    1
    22    10    11    1
    23    11    12    1
    24    12    13    1
    25    13    14    1
    26     8     3   ar
    27    22    17   ar
    28    14     9    1
    29    12    15    1
@<TRIPOS>MOLECULE
*****
 27 29 0 0 0
SMALL
GASTEIGER

@<TRIPOS>ATOM
      1 C          -8.4995  -16.6878   23.5415 C.3     1  UNL1        0.0868
      2 F         -10.6163  -15.5053   21.7749 F       1  UNL1       -0.2045
      3 C         -10.9617  -16.6220   22.7148 C.ar    1  UNL1        0.1374
      4 C         -12.3655  -17.1475   22.7715 C.ar    1  UNL1        0.0294
      5 C         -12.7109  -18.2643   23.7114 C.ar    1  UNL1        0.0023
      6 C         -11.6525  -18.8556   24.5947 C.ar    1  UNL1       -0.0001
      7 C         -10.2488  -18.3300   24.5381 C.ar    1  UNL1       -0.0007
      8 C          -9.9034  -17.2133   23.5981 C.ar    1  UNL1        0.0200
      9 N          -7.8651  -16.1093   24.7714 N.3     1  UNL1       -0.2676
     10 C          -6.4212  -15.7032   24.7504 C.3     1  UNL1        0.0896
     11 C          -5.7868  -15.1247   25.9803 C.3     1  UNL1        0.0862
     12 N          -6.5962  -14.9522   27.2314 N.3     1  UNL1       -0.2951
     13 C          -8.0400  -15.3582   27.2525 C.3     1  UNL1        0.0862
     14 C          -8.6745  -15.9367   26.0225 C.3     1  UNL1        0.0896
     15 H          -6.5657  -13.9603   27.4673 H       1  UNL1        0.1233
     16 C          -7.7302  -16.7408   22.2549 C.3     1  UNL1        0.0500
     17 C          -7.0779  -18.0207   21.8234 C.ar    1  UNL1        0.0137
     18 C          -5.7581  -18.4251   22.4106 C.ar    1  UNL1       -0.0012
     19 C          -5.1058  -19.7050   21.9790 C.ar    1  UNL1       -0.0001
     20 C          -5.7732  -20.5806   20.9602 C.ar    1  UNL1        0.0031
     21 C          -7.0929  -20.1762   20.3730 C.ar    1  UNL1        0.0369
     22 C          -7.7453  -18.8963   20.8045 C.ar    1  UNL1        0.1428
     23 O          -9.0650  -18.4919   20.2173 O.3     1  UNL1       -0.4048
     24 C         -10.2886  -19.3180   20.4826 C.3     1  UNL1        0.5753
     25 F         -11.5122  -20.1440   20.7479 F       1  UNL1       -0.1328
     26 F          -9.6892  -19.7912   21.7736 F       1  UNL1       -0.1328
     27 F         -10.8880  -18.8448   19.1915 F       1  UNL1       -0.1328
@<TRIPOS>BOND
     1     2     3    1
     2     3     4   ar
     3     4     5   ar
     4     5     6   ar
     5     6     7   ar
     6     7     8   ar
     7     8     1    1
     8     1    16    1
     9    16    17    1
    10    17    18   ar
    11    18    19   ar
    12    19    20   ar
    13    20    21   ar
    14    21    22   ar
    15    22    23    1
    16    23    24    1
    17    24    25    1
    18    24    26    1
    19    24    27    1
    20     1     9    1
    21     9    10    1
    22    10    11    1
    23    11    12    1
    24    12    13    1
    25    13    14    1
    26     8     3   ar
    27    22    17   ar
    28    14     9    1
    29    12    15    1
@<TRIPOS>MOLECULE
*****
 27 29 0 0 0
SMALL
GASTEIGER

@<TRIPOS>ATOM
      1 C          -8.6623  -17.1697   22.4127 C.3     1  UNL1        0.0868
      2 F         -10.7396  -15.5107   21.0225 F       1  UNL1       -0.2045
      3 C         -11.1506  -16.5083   22.0646 C.ar    1  UNL1        0.1374
      4 C         -12.6001  -16.6764   22.4117 C.ar    1  UNL1        0.0294
      5 C         -13.0111  -17.6739   23.4538 C.ar    1  UNL1        0.0023
      6 C         -11.9724  -18.5034   24.1489 C.ar    1  UNL1       -0.0001
      7 C         -10.5229  -18.3353   23.8018 C.ar    1  UNL1       -0.0007
      8 C         -10.1119  -17.3377   22.7597 C.ar    1  UNL1        0.0200
      9 N          -7.9328  -18.2624   21.6889 N.3     1  UNL1       -0.2676
     10 C          -6.6190  -18.7619   22.2129 C.3     1  UNL1        0.0896
     11 C          -5.8895  -19.8546   21.4892 C.3     1  UNL1        0.0862
     12 N          -6.4737  -20.4478   20.2415 N.3     1  UNL1       -0.2951
     13 C          -7.7875  -19.9483   19.7175 C.3     1  UNL1        0.0862
     14 C          -8.5170  -18.8555   20.4412 C.3     1  UNL1        0.0896
     15 H          -6.5866  -21.4465   20.4151 H       1  UNL1        0.1233
     16 C          -7.9422  -15.9089   22.7894 C.3     1  UNL1        0.0500
     17 C          -7.4119  -15.7355   24.1818 C.ar    1  UNL1        0.0137
     18 C          -8.3580  -15.6958   25.3452 C.ar    1  UNL1       -0.0012
     19 C          -7.8277  -15.5224   26.7375 C.ar    1  UNL1       -0.0001
     20 C          -6.3513  -15.3888   26.9666 C.ar    1  UNL1        0.0031
     21 C          -5.4053  -15.4286   25.8033 C.ar    1  UNL1        0.0369
     22 C          -5.9355  -15.6019   24.4108 C.ar    1  UNL1        0.1428
     23 O          -4.9895  -15.6417   23.2475 O.3     1  UNL1       -0.4048
     24 C          -3.8136  -16.5728   23.2686 C.3     1  UNL1        0.5753
     25 F          -2.6378  -17.5039   23.2896 F       1  UNL1       -0.1328
     26 F          -4.5884  -17.5320   24.1227 F       1  UNL1       -0.1328
     27 F          -3.0388  -15.6136   22.4144 F       1  UNL1       -0.1328
@<TRIPOS>BOND
     1     2     3    1
     2     3     4   ar
     3     4     5   ar
     4     5     6   ar
     5     6     7   ar
     6     7     8   ar
     7     8     1    1
     8     1    16    1
     9    16    17    1
    10    17    18   ar
    11    18    19   ar
    12    19    20   ar
    13    20    21   ar
    14    21    22   ar
    15    22    23    1
    16    23    24    1
    17    24    25    1
    18    24    26    1
    19    24    27    1
    20     1     9    1
    21     9    10    1
    22    10    11    1
    23    11    12    1
    24    12    13    1
    25    13    14    1
    26     8     3   ar
    27    22    17   ar
    28    14     9    1
    29    12    15    1
@<TRIPOS>MOLECULE
*****
 27 29 0 0 0
SMALL
GASTEIGER

@<TRIPOS>ATOM
      1 C          -8.8991  -17.7495   23.5095 C.3     1  UNL1        0.0868
      2 F         -10.5657  -19.6714   25.0998 F       1  UNL1       -0.2045
      3 C         -11.2278  -18.5933   24.2941 C.ar    1  UNL1        0.1374
      4 C         -12.7231  -18.4761   24.2835 C.ar    1  UNL1        0.0294
      5 C         -13.3852  -17.3979   23.4778 C.ar    1  UNL1        0.0023
      6 C         -12.5520  -16.4370   22.6826 C.ar    1  UNL1       -0.0001
      7 C         -11.0567  -16.5542   22.6932 C.ar    1  UNL1       -0.0007
      8 C         -10.3945  -17.6323   23.4990 C.ar    1  UNL1        0.0200
      9 N          -8.0718  -16.7268   24.2303 N.3     1  UNL1       -0.2676
     10 C          -8.4871  -16.2492   25.5902 C.3     1  UNL1        0.0896
     11 C          -7.6597  -15.2265   26.3110 C.3     1  UNL1        0.0862
     12 N          -6.4170  -14.6814   25.6718 N.3     1  UNL1       -0.2951
     13 C          -6.0017  -15.1589   24.3119 C.3     1  UNL1        0.0862
     14 C          -6.8290  -16.1817   23.5911 C.3     1  UNL1        0.0896
     15 H          -5.6449  -14.8887   26.3052 H       1  UNL1        0.1233
     16 C          -8.2311  -18.8894   22.7993 C.3     1  UNL1        0.0500
     17 C          -8.6255  -19.2313   21.3931 C.ar    1  UNL1        0.0137
     18 C         -10.0486  -19.5863   21.0784 C.ar    1  UNL1       -0.0012
     19 C         -10.4429  -19.9282   19.6722 C.ar    1  UNL1       -0.0001
     20 C          -9.4143  -19.9151   18.5806 C.ar    1  UNL1        0.0031
     21 C          -7.9913  -19.5602   18.8951 C.ar    1  UNL1        0.0369
     22 C          -7.5968  -19.2183   20.3014 C.ar    1  UNL1        0.1428
     23 O          -6.1738  -18.8634   20.6160 O.3     1  UNL1       -0.4048
     24 C          -5.0636  -19.7880   20.2130 C.3     1  UNL1        0.5753
     25 F          -3.9533  -20.7126   19.8101 F       1  UNL1       -0.1328
     26 F          -4.3893  -18.6619   19.4870 F       1  UNL1       -0.1328
     27 F          -5.7379  -20.9141   20.9391 F       1  UNL1       -0.1328
@<TRIPOS>BOND
     1     2     3    1
     2     3     4   ar
     3     4     5   ar
     4     5     6   ar
     5     6     7   ar
     6     7     8   ar
     7     8     1    1
     8     1    16    1
     9    16    17    1
    10    17    18   ar
    11    18    19   ar
    12    19    20   ar
    13    20    21   ar
    14    21    22   ar
    15    22    23    1
    16    23    24    1
    17    24    25    1
    18    24    26    1
    19    24    27    1
    20     1     9    1
    21     9    10    1
    22    10    11    1
    23    11    12    1
    24    12    13    1
    25    13    14    1
    26     8     3   ar
    27    22    17   ar
    28    14     9    1
    29    12    15    1
@<TRIPOS>MOLECULE
*****
 27 29 0 0 0
SMALL
GASTEIGER

@<TRIPOS>ATOM
      1 C          -8.6636  -16.7008   23.5362 C.3     1  UNL1        0.0868
      2 F          -6.0381  -15.2511   23.4657 F       1  UNL1       -0.2045
      3 C          -6.7083  -15.5254   24.7793 C.ar    1  UNL1        0.1374
      4 C          -6.0659  -15.0748   26.0577 C.ar    1  UNL1        0.0294
      5 C          -6.7362  -15.3490   27.3712 C.ar    1  UNL1        0.0023
      6 C          -8.0489  -16.0738   27.4065 C.ar    1  UNL1       -0.0001
      7 C          -8.6914  -16.5244   26.1282 C.ar    1  UNL1       -0.0007
      8 C          -8.0211  -16.2502   24.8146 C.ar    1  UNL1        0.0200
      9 N         -10.1029  -17.1231   23.5284 N.3     1  UNL1       -0.2676
     10 C         -10.5419  -18.3057   24.3402 C.3     1  UNL1        0.0896
     11 C         -11.9812  -18.7280   24.3325 C.3     1  UNL1        0.0862
     12 N         -12.9815  -17.9679   23.5129 N.3     1  UNL1       -0.2951
     13 C         -12.5425  -16.7854   22.7012 C.3     1  UNL1        0.0862
     14 C         -11.1032  -16.3630   22.7089 C.3     1  UNL1        0.0896
     15 H         -13.6970  -17.6328   24.1581 H       1  UNL1        0.1233
     16 C          -7.8668  -16.7291   22.2657 C.3     1  UNL1        0.0500
     17 C          -7.1740  -17.9905   21.8428 C.ar    1  UNL1        0.0137
     18 C          -5.8682  -18.3763   22.4722 C.ar    1  UNL1       -0.0012
     19 C          -5.1755  -19.6377   22.0493 C.ar    1  UNL1       -0.0001
     20 C          -5.7884  -20.5133   20.9970 C.ar    1  UNL1        0.0031
     21 C          -7.0941  -20.1276   20.3675 C.ar    1  UNL1        0.0369
     22 C          -7.7870  -18.8662   20.7904 C.ar    1  UNL1        0.1428
     23 O          -9.0927  -18.4805   20.1610 O.3     1  UNL1       -0.4048
     24 C         -10.3382  -19.2510   20.4851 C.3     1  UNL1        0.5753
     25 F         -11.5837  -20.0215   20.8093 F       1  UNL1       -0.1328
     26 F         -10.9891  -18.7220   19.2415 F       1  UNL1       -0.1328
     27 F          -9.6873  -19.7799   21.7287 F       1  UNL1       -0.1328
@<TRIPOS>BOND
     1     2     3    1
     2     3     4   ar
     3     4     5   ar
     4     5     6   ar
     5     6     7   ar
     6     7     8   ar
     7     8     1    1
     8     1    16    1
     9    16    17    1
    10    17    18   ar
    11    18    19   ar
    12    19    20   ar
    13    20    21   ar
    14    21    22   ar
    15    22    23    1
    16    23    24    1
    17    24    25    1
    18    24    26    1
    19    24    27    1
    20     1     9    1
    21     9    10    1
    22    10    11    1
    23    11    12    1
    24    12    13    1
    25    13    14    1
    26     8     3   ar
    27    22    17   ar
    28    14     9    1
    29    12    15    1
@<TRIPOS>MOLECULE
*****
 27 29 0 0 0
SMALL
GASTEIGER

@<TRIPOS>ATOM
      1 C          -8.5351  -16.5554   23.5583 C.3     1  UNL1        0.0868
      2 F          -9.3884  -19.0557   24.9797 F       1  UNL1       -0.2045
      3 C         -10.3982  -18.2360   24.2325 C.ar    1  UNL1        0.1374
      4 C         -11.8347  -18.6664   24.1960 C.ar    1  UNL1        0.0294
      5 C         -12.8445  -17.8466   23.4488 C.ar    1  UNL1        0.0023
      6 C         -12.4179  -16.5965   22.7381 C.ar    1  UNL1       -0.0001
      7 C         -10.9814  -16.1661   22.7746 C.ar    1  UNL1       -0.0007
      8 C          -9.9716  -16.9859   23.5218 C.ar    1  UNL1        0.0200
      9 N          -7.9496  -16.0033   24.8240 N.3     1  UNL1       -0.2676
     10 C          -6.4959  -15.6372   24.8807 C.3     1  UNL1        0.0896
     11 C          -5.9104  -15.0851   26.1465 C.3     1  UNL1        0.0862
     12 N          -6.7783  -14.8989   27.3556 N.3     1  UNL1       -0.2951
     13 C          -8.2319  -15.2649   27.2990 C.3     1  UNL1        0.0862
     14 C          -8.8175  -15.8171   26.0332 C.3     1  UNL1        0.0896
     15 H          -6.7331  -13.9099   27.6011 H       1  UNL1        0.1233
     16 C          -7.6843  -16.6772   22.3289 C.3     1  UNL1        0.0500
     17 C          -7.1295  -18.0124   21.9300 C.ar    1  UNL1        0.0137
     18 C          -8.0241  -19.0383   21.2996 C.ar    1  UNL1       -0.0012
     19 C          -7.4694  -20.3736   20.9006 C.ar    1  UNL1       -0.0001
     20 C          -6.0200  -20.6831   21.1321 C.ar    1  UNL1        0.0031
     21 C          -5.1254  -19.6573   21.7625 C.ar    1  UNL1        0.0369
     22 C          -5.6802  -18.3220   22.1615 C.ar    1  UNL1        0.1428
     23 O          -4.7856  -17.2962   22.7919 O.3     1  UNL1       -0.4048
     24 C          -3.3601  -17.6381   23.1100 C.3     1  UNL1        0.5753
     25 F          -1.9347  -17.9800   23.4280 F       1  UNL1       -0.1328
     26 F          -3.7575  -17.9895   24.5130 F       1  UNL1       -0.1328
     27 F          -2.9627  -17.2867   21.7069 F       1  UNL1       -0.1328
@<TRIPOS>BOND
     1     2     3    1
     2     3     4   ar
     3     4     5   ar
     4     5     6   ar
     5     6     7   ar
     6     7     8   ar
     7     8     1    1
     8     1    16    1
     9    16    17    1
    10    17    18   ar
    11    18    19   ar
    12    19    20   ar
    13    20    21   ar
    14    21    22   ar
    15    22    23    1
    16    23    24    1
    17    24    25    1
    18    24    26    1
    19    24    27    1
    20     1     9    1
    21     9    10    1
    22    10    11    1
    23    11    12    1
    24    12    13    1
    25    13    14    1
    26     8     3   ar
    27    22    17   ar
    28    14     9    1
    29    12    15    1
@<TRIPOS>MOLECULE
*****
 27 29 0 0 0
SMALL
GASTEIGER

@<TRIPOS>ATOM
      1 C          -8.7335  -18.0010   22.9743 C.3     1  UNL1        0.0868
      2 F         -11.0407  -18.9744   24.6265 F       1  UNL1       -0.2045
      3 C         -11.2929  -18.2871   23.3173 C.ar    1  UNL1        0.1374
      4 C         -12.6987  -18.0864   22.8341 C.ar    1  UNL1        0.0294
      5 C         -12.9509  -17.3991   21.5249 C.ar    1  UNL1        0.0023
      6 C         -11.7974  -16.9124   20.6989 C.ar    1  UNL1       -0.0001
      7 C         -10.3916  -17.1131   21.1820 C.ar    1  UNL1       -0.0007
      8 C         -10.1394  -17.8004   22.4912 C.ar    1  UNL1        0.0200
      9 N          -8.0533  -16.9265   23.7697 N.3     1  UNL1       -0.2676
     10 C          -8.5998  -16.5236   25.1073 C.3     1  UNL1        0.0896
     11 C          -7.9196  -15.4491   25.9027 C.3     1  UNL1        0.0862
     12 N          -6.6928  -14.7775   25.3606 N.3     1  UNL1       -0.2951
     13 C          -6.1462  -15.1803   24.0231 C.3     1  UNL1        0.0862
     14 C          -6.8265  -16.2549   23.2276 C.3     1  UNL1        0.0896
     15 H          -5.9484  -14.9303   26.0410 H       1  UNL1        0.1233
     16 C          -8.0079  -19.2762   22.6620 C.3     1  UNL1        0.0500
     17 C          -6.7283  -19.2388   21.8803 C.ar    1  UNL1        0.0137
     18 C          -5.4134  -19.3902   22.5863 C.ar    1  UNL1       -0.0012
     19 C          -4.1338  -19.3529   21.8046 C.ar    1  UNL1       -0.0001
     20 C          -4.1689  -19.1642   20.3170 C.ar    1  UNL1        0.0031
     21 C          -5.4837  -19.0128   19.6110 C.ar    1  UNL1        0.0369
     22 C          -6.7634  -19.0502   20.3927 C.ar    1  UNL1        0.1428
     23 O          -8.0782  -18.8988   19.6867 O.3     1  UNL1       -0.4048
     24 C          -8.6992  -20.0773   18.9971 C.3     1  UNL1        0.5753
     25 F          -9.3202  -21.2557   18.3075 F       1  UNL1       -0.1328
     26 F          -7.4348  -20.8596   19.1953 F       1  UNL1       -0.1328
     27 F          -9.9636  -19.2950   18.7988 F       1  UNL1       -0.1328
@<TRIPOS>BOND
     1     2     3    1
     2     3     4   ar
     3     4     5   ar
     4     5     6   ar
     5     6     7   ar
     6     7     8   ar
     7     8     1    1
     8     1    16    1
     9    16    17    1
    10    17    18   ar
    11    18    19   ar
    12    19    20   ar
    13    20    21   ar
    14    21    22   ar
    15    22    23    1
    16    23    24    1
    17    24    25    1
    18    24    26    1
    19    24    27    1
    20     1     9    1
    21     9    10    1
    22    10    11    1
    23    11    12    1
    24    12    13    1
    25    13    14    1
    26     8     3   ar
    27    22    17   ar
    28    14     9    1
    29    12    15    1
@<TRIPOS>MOLECULE
*****
 27 29 0 0 0
SMALL
GASTEIGER

@<TRIPOS>ATOM
      1 C          -9.0074  -17.9891   23.5270 C.3     1  UNL1        0.0868
      2 F         -10.4164  -15.9305   21.8606 F       1  UNL1       -0.2045
      3 C         -11.2072  -16.8512   22.7420 C.ar    1  UNL1        0.1374
      4 C         -12.7024  -16.7427   22.7901 C.ar    1  UNL1        0.0294
      5 C         -13.4933  -17.6634   23.6715 C.ar    1  UNL1        0.0023
      6 C         -12.7888  -18.6927   24.5047 C.ar    1  UNL1       -0.0001
      7 C         -11.2936  -18.8013   24.4565 C.ar    1  UNL1       -0.0007
      8 C         -10.5027  -17.8805   23.5752 C.ar    1  UNL1        0.0200
      9 N          -8.1571  -16.8905   24.0928 N.3     1  UNL1       -0.2676
     10 C          -6.9423  -16.4228   23.3473 C.3     1  UNL1        0.0896
     11 C          -6.0920  -15.3242   23.9130 C.3     1  UNL1        0.0862
     12 N          -6.4563  -14.6934   25.2242 N.3     1  UNL1       -0.2951
     13 C          -7.6710  -15.1611   25.9697 C.3     1  UNL1        0.0862
     14 C          -8.5214  -16.2597   25.4040 C.3     1  UNL1        0.0896
     15 H          -6.5856  -13.6975   25.0460 H       1  UNL1        0.1233
     16 C          -8.3625  -19.1962   22.9131 C.3     1  UNL1        0.0500
     17 C          -8.5652  -19.4962   21.4575 C.ar    1  UNL1        0.0137
     18 C          -9.8941  -19.2299   20.8148 C.ar    1  UNL1       -0.0012
     19 C         -10.0968  -19.5299   19.3592 C.ar    1  UNL1       -0.0001
     20 C          -8.9706  -20.0962   18.5462 C.ar    1  UNL1        0.0031
     21 C          -7.6417  -20.3625   19.1888 C.ar    1  UNL1        0.0369
     22 C          -7.4389  -20.0625   20.6446 C.ar    1  UNL1        0.1428
     23 O          -6.1100  -20.3288   21.2872 O.3     1  UNL1       -0.4048
     24 C          -5.0814  -19.2397   21.3620 C.3     1  UNL1        0.5753
     25 F          -4.0527  -18.1505   21.4368 F       1  UNL1       -0.1328
     26 F          -4.9389  -19.4755   22.8365 F       1  UNL1       -0.1328
     27 F          -5.2239  -19.0038   19.8876 F       1  UNL1       -0.1328
@<TRIPOS>BOND
     1     2     3    1
     2     3     4   ar
     3     4     5   ar
     4     5     6   ar
     5     6     7   ar
     6     7     8   ar
     7     8     1    1
     8     1    16    1
     9    16    17    1
    10    17    18   ar
    11    18    19   ar
    12    19    20   ar
    13    20    21   ar
    14    21    22   ar
    15    22    23    1
    16    23    24    1
    17    24    25    1
    18    24    26    1
    19    24    27    1
    20     1     9    1
    21     9    10    1
    22    10    11    1
    23    11    12    1
    24    12    13    1
    25    13    14    1
    26     8     3   ar
    27    22    17   ar
    28    14     9    1
    29    12    15    1
@<TRIPOS>MOLECULE
*****
 27 29 0 0 0
SMALL
GASTEIGER

@<TRIPOS>ATOM
      1 C          -8.6171  -16.6373   23.4765 C.3     1  UNL1        0.0868
      2 F          -6.1236  -14.9713   23.5582 F       1  UNL1       -0.2045
      3 C          -6.7884  -15.3893   24.8362 C.ar    1  UNL1        0.1374
      4 C          -6.2066  -14.9743   26.1549 C.ar    1  UNL1        0.0294
      5 C          -6.8715  -15.3924   27.4329 C.ar    1  UNL1        0.0023
      6 C          -8.1182  -16.2254   27.3921 C.ar    1  UNL1       -0.0001
      7 C          -8.7001  -16.6403   26.0733 C.ar    1  UNL1       -0.0007
      8 C          -8.0352  -16.2223   24.7954 C.ar    1  UNL1        0.0200
      9 N         -10.0738  -16.9802   23.3741 N.3     1  UNL1       -0.2676
     10 C         -11.0129  -16.0571   22.6557 C.3     1  UNL1        0.0896
     11 C         -12.4695  -16.4000   22.5533 C.3     1  UNL1        0.0862
     12 N         -12.9872  -17.6659   23.1693 N.3     1  UNL1       -0.2951
     13 C         -12.0481  -18.5890   23.8877 C.3     1  UNL1        0.0862
     14 C         -10.5914  -18.2462   23.9901 C.3     1  UNL1        0.0896
     15 H         -13.4134  -18.2067   22.4167 H       1  UNL1        0.1233
     16 C          -7.7423  -16.7094   22.2602 C.3     1  UNL1        0.0500
     17 C          -7.1809  -18.0279   21.8172 C.ar    1  UNL1        0.0137
     18 C          -8.0207  -18.9639   20.9993 C.ar    1  UNL1       -0.0012
     19 C          -7.4594  -20.2824   20.5563 C.ar    1  UNL1       -0.0001
     20 C          -6.0582  -20.6651   20.9311 C.ar    1  UNL1        0.0031
     21 C          -5.2185  -19.7292   21.7489 C.ar    1  UNL1        0.0369
     22 C          -5.7798  -18.4106   22.1920 C.ar    1  UNL1        0.1428
     23 O          -4.9401  -17.4747   23.0098 O.3     1  UNL1       -0.4048
     24 C          -3.4690  -17.7253   23.1617 C.3     1  UNL1        0.5753
     25 F          -1.9979  -17.9759   23.3135 F       1  UNL1       -0.1328
     26 F          -3.6677  -18.0074   24.6214 F       1  UNL1       -0.1328
     27 F          -3.2702  -17.4432   21.7019 F       1  UNL1       -0.1328
@<TRIPOS>BOND
     1     2     3    1
     2     3     4   ar
     3     4     5   ar
     4     5     6   ar
     5     6     7   ar
     6     7     8   ar
     7     8     1    1
     8     1    16    1
     9    16    17    1
    10    17    18   ar
    11    18    19   ar
    12    19    20   ar
    13    20    21   ar
    14    21    22   ar
    15    22    23    1
    16    23    24    1
    17    24    25    1
    18    24    26    1
    19    24    27    1
    20     1     9    1
    21     9    10    1
    22    10    11    1
    23    11    12    1
    24    12    13    1
    25    13    14    1
    26     8     3   ar
    27    22    17   ar
    28    14     9    1
    29    12    15    1
