@<TRIPOS>MOLECULE
*****
 21 24 0 0 0
SMALL
GASTEIGER

@<TRIPOS>ATOM
      1 C          -3.7945  -18.9152   22.7320 C.3     1  UNL1        0.0310
      2 C          -5.0936  -19.0582   21.9958 C.ar    1  UNL1       -0.0221
      3 C          -5.2054  -20.0220   20.8520 C.ar    1  UNL1       -0.0046
      4 C          -6.5045  -20.1649   20.1159 C.ar    1  UNL1       -0.0048
      5 C          -7.6918  -19.3440   20.5236 C.ar    1  UNL1       -0.0237
      6 C          -7.5800  -18.3801   21.6675 C.ar    1  UNL1       -0.0018
      7 C          -6.2809  -18.2372   22.4036 C.ar    1  UNL1       -0.0067
      8 C          -8.6327  -17.4731   22.2325 C.3     1  UNL1        0.1314
      9 C         -10.0572  -17.3059   21.7932 C.ar    1  UNL1        0.0160
     10 C         -10.7735  -16.2890   22.6315 C.ar    1  UNL1        0.0006
     11 C         -12.2133  -15.9707   22.3570 C.ar    1  UNL1        0.0204
     12 C         -12.9369  -16.6693   21.2442 C.ar    1  UNL1        0.0984
     13 N         -12.2206  -17.6861   20.4058 N.ar    1  UNL1       -0.2484
     14 C         -10.7808  -18.0045   20.6803 C.ar    1  UNL1        0.0574
     15 C         -10.2586  -19.0427   19.7320 C.3     1  UNL1        0.0502
     16 C          -8.8839  -19.6389   19.6622 C.3     1  UNL1        0.0324
     17 N          -8.2043  -16.6205   23.3899 N.ar    1  UNL1       -0.3190
     18 C          -8.5293  -16.8657   24.8336 C.ar    1  UNL1        0.0764
     19 C          -7.9015  -15.7697   25.6427 C.ar    1  UNL1        0.0202
     20 C          -7.1885  -14.8471   24.6991 C.ar    1  UNL1        0.0202
     21 C          -7.3756  -15.3730   23.3068 C.ar    1  UNL1        0.0764
@<TRIPOS>BOND
     1     1     2    1
     2     2     3   ar
     3     3     4   ar
     4     4     5   ar
     5     5     6   ar
     6     6     7   ar
     7     6     8    1
     8     8    17    1
     9    17    18   ar
    10    18    19   ar
    11    19    20   ar
    12    20    21   ar
    13     8     9    1
    14     9    10   ar
    15    10    11   ar
    16    11    12   ar
    17    12    13   ar
    18    13    14   ar
    19    14    15    1
    20    15    16    1
    21     7     2   ar
    22    21    17   ar
    23    14     9   ar
    24    16     5    1
@<TRIPOS>MOLECULE
*****
 21 24 0 0 0
SMALL
GASTEIGER

@<TRIPOS>ATOM
      1 C         -12.4567  -16.9070   21.5912 C.3     1  UNL1        0.0310
      2 C         -11.2394  -17.6725   21.1647 C.ar    1  UNL1       -0.0221
      3 C         -11.3312  -18.6624   20.0416 C.ar    1  UNL1       -0.0046
      4 C         -10.1137  -19.4280   19.6151 C.ar    1  UNL1       -0.0048
      5 C          -8.8045  -19.2035   20.3118 C.ar    1  UNL1       -0.0237
      6 C          -8.7127  -18.2135   21.4350 C.ar    1  UNL1       -0.0018
      7 C          -9.9301  -17.4480   21.8614 C.ar    1  UNL1       -0.0067
      8 C          -7.5148  -17.8405   22.2573 C.3     1  UNL1        0.1314
      9 C          -6.1130  -18.3653   22.1595 C.ar    1  UNL1        0.0160
     10 C          -5.2154  -17.7234   23.1754 C.ar    1  UNL1        0.0006
     11 C          -3.7676  -18.1088   23.2471 C.ar    1  UNL1        0.0204
     12 C          -3.2174  -19.1363   22.3028 C.ar    1  UNL1        0.0984
     13 N          -4.1150  -19.7783   21.2869 N.ar    1  UNL1       -0.2484
     14 C          -5.5628  -19.3928   21.2153 C.ar    1  UNL1        0.0574
     15 C          -6.2786  -20.1492   20.1356 C.3     1  UNL1        0.0502
     16 C          -7.7212  -20.0650   19.7335 C.3     1  UNL1        0.0324
     17 N          -7.7499  -16.8059   23.3176 N.ar    1  UNL1       -0.3190
     18 C          -8.4053  -17.0384   24.6466 C.ar    1  UNL1        0.0764
     19 C          -8.4313  -15.7333   25.3854 C.ar    1  UNL1        0.0202
     20 C          -7.7919  -14.6940   24.5129 C.ar    1  UNL1        0.0202
     21 C          -7.3708  -15.3569   23.2350 C.ar    1  UNL1        0.0764
@<TRIPOS>BOND
     1     1     2    1
     2     2     3   ar
     3     3     4   ar
     4     4     5   ar
     5     5     6   ar
     6     6     7   ar
     7     6     8    1
     8     8    17    1
     9    17    18   ar
    10    18    19   ar
    11    19    20   ar
    12    20    21   ar
    13     8     9    1
    14     9    10   ar
    15    10    11   ar
    16    11    12   ar
    17    12    13   ar
    18    13    14   ar
    19    14    15    1
    20    15    16    1
    21     7     2   ar
    22    21    17   ar
    23    14     9   ar
    24    16     5    1
@<TRIPOS>MOLECULE
*****
 21 24 0 0 0
SMALL
GASTEIGER

@<TRIPOS>ATOM
      1 C         -10.3964   -0.7697   17.0791 C.3     1  UNL1        0.0310
      2 C         -10.6030   -2.2553   17.0936 C.ar    1  UNL1       -0.0221
      3 C          -9.5360   -3.1662   16.5628 C.ar    1  UNL1       -0.0046
      4 C          -9.7427   -4.6518   16.5774 C.ar    1  UNL1       -0.0048
      5 C         -11.0165   -5.2265   17.1227 C.ar    1  UNL1       -0.0237
      6 C         -12.0835   -4.3155   17.6535 C.ar    1  UNL1       -0.0018
      7 C         -11.8767   -2.8300   17.6389 C.ar    1  UNL1       -0.0067
      8 C         -13.4169   -4.6777   18.2371 C.3     1  UNL1        0.1314
      9 C         -14.0129   -6.0401   18.4342 C.ar    1  UNL1        0.0160
     10 C         -15.3759   -5.9575   19.0548 C.ar    1  UNL1        0.0006
     11 C         -16.1485   -7.2118   19.3374 C.ar    1  UNL1        0.0204
     12 C         -15.5580   -8.5486   18.9994 C.ar    1  UNL1        0.0984
     13 N         -14.1949   -8.6312   18.3788 N.ar    1  UNL1       -0.2484
     14 C         -13.4224   -7.3769   18.0962 C.ar    1  UNL1        0.0574
     15 C         -12.0902   -7.6814   17.4777 C.3     1  UNL1        0.0502
     16 C         -11.0194   -6.7245   17.0444 C.3     1  UNL1        0.0324
     17 N         -14.2670   -3.5249   18.6827 N.ar    1  UNL1       -0.3190
     18 C         -15.2935   -2.8134   17.8519 C.ar    1  UNL1        0.0764
     19 C         -15.9007   -1.7301   18.6931 C.ar    1  UNL1        0.0202
     20 C         -15.2495   -1.7719   20.0437 C.ar    1  UNL1        0.0202
     21 C         -14.2399   -2.8812   20.0373 C.ar    1  UNL1        0.0764
@<TRIPOS>BOND
     1     1     2    1
     2     2     3   ar
     3     3     4   ar
     4     4     5   ar
     5     5     6   ar
     6     6     7   ar
     7     6     8    1
     8     8    17    1
     9    17    18   ar
    10    18    19   ar
    11    19    20   ar
    12    20    21   ar
    13     8     9    1
    14     9    10   ar
    15    10    11   ar
    16    11    12   ar
    17    12    13   ar
    18    13    14   ar
    19    14    15    1
    20    15    16    1
    21     7     2   ar
    22    21    17   ar
    23    14     9   ar
    24    16     5    1
@<TRIPOS>MOLECULE
*****
 21 24 0 0 0
SMALL
GASTEIGER

@<TRIPOS>ATOM
      1 C         -15.8627  -10.3110   18.2405 C.3     1  UNL1        0.0310
      2 C         -15.9223   -8.8593   18.6130 C.ar    1  UNL1       -0.0221
      3 C         -17.1798   -8.2853   19.1952 C.ar    1  UNL1       -0.0046
      4 C         -17.2394   -6.8335   19.5677 C.ar    1  UNL1       -0.0048
      5 C         -16.0413   -5.9557   19.3580 C.ar    1  UNL1       -0.0237
      6 C         -14.7836   -6.5297   18.7758 C.ar    1  UNL1       -0.0018
      7 C         -14.7242   -7.9815   18.4033 C.ar    1  UNL1       -0.0067
      8 C         -13.4856   -5.8359   18.4863 C.3     1  UNL1        0.1314
      9 C         -13.1245   -4.3969   18.7075 C.ar    1  UNL1        0.0160
     10 C         -11.7151   -4.1135   18.2794 C.ar    1  UNL1        0.0006
     11 C         -11.1536   -2.7294   18.4167 C.ar    1  UNL1        0.0204
     12 C         -12.0015   -1.6287   18.9820 C.ar    1  UNL1        0.0984
     13 N         -13.4108   -1.9121   19.4101 N.ar    1  UNL1       -0.2484
     14 C         -13.9724   -3.2962   19.2728 C.ar    1  UNL1        0.0574
     15 C         -15.3907   -3.3627   19.7566 C.3     1  UNL1        0.0502
     16 C         -16.3115   -4.5462   19.7945 C.3     1  UNL1        0.0324
     17 N         -12.4058   -6.6948   17.8978 N.ar    1  UNL1       -0.3190
     18 C         -11.2131   -7.2362   18.6289 C.ar    1  UNL1        0.0764
     19 C         -10.3993   -8.0390   17.6578 C.ar    1  UNL1        0.0202
     20 C         -11.0890   -7.9939   16.3265 C.ar    1  UNL1        0.0202
     21 C         -12.3290   -7.1631   16.4749 C.ar    1  UNL1        0.0764
@<TRIPOS>BOND
     1     1     2    1
     2     2     3   ar
     3     3     4   ar
     4     4     5   ar
     5     5     6   ar
     6     6     7   ar
     7     6     8    1
     8     8    17    1
     9    17    18   ar
    10    18    19   ar
    11    19    20   ar
    12    20    21   ar
    13     8     9    1
    14     9    10   ar
    15    10    11   ar
    16    11    12   ar
    17    12    13   ar
    18    13    14   ar
    19    14    15    1
    20    15    16    1
    21     7     2   ar
    22    21    17   ar
    23    14     9   ar
    24    16     5    1
@<TRIPOS>MOLECULE
*****
 21 24 0 0 0
SMALL
GASTEIGER

@<TRIPOS>ATOM
      1 C           0.9877    0.2590   19.2549 C.3     1  UNL1        0.0310
      2 C           1.6132    0.0199   20.5972 C.ar    1  UNL1       -0.0221
      3 C           1.1641    0.8160   21.7865 C.ar    1  UNL1       -0.0046
      4 C           1.7896    0.5769   23.1287 C.ar    1  UNL1       -0.0048
      5 C           2.8642   -0.4584   23.2816 C.ar    1  UNL1       -0.0237
      6 C           3.3133   -1.2546   22.0923 C.ar    1  UNL1       -0.0018
      7 C           2.6878   -1.0154   20.7501 C.ar    1  UNL1       -0.0067
      8 C           4.3607   -2.3262   22.0257 C.3     1  UNL1        0.1314
      9 C           5.2178   -2.8664   23.1319 C.ar    1  UNL1        0.0160
     10 C           6.1418   -3.9387   22.6355 C.ar    1  UNL1        0.0006
     11 C           7.0870   -4.6129   23.5851 C.ar    1  UNL1        0.0204
     12 C           7.1083   -4.2149   25.0312 C.ar    1  UNL1        0.0984
     13 N           6.1843   -3.1426   25.5276 N.ar    1  UNL1       -0.2484
     14 C           5.2391   -2.4684   24.5779 C.ar    1  UNL1        0.0574
     15 C           4.4085   -1.4318   25.2749 C.3     1  UNL1        0.0502
     16 C           3.3516   -0.5373   24.6981 C.3     1  UNL1        0.0324
     17 N           4.5802   -2.9387   20.6741 N.ar    1  UNL1       -0.3190
     18 C           3.9798   -4.2211   20.1792 C.ar    1  UNL1        0.0764
     19 C           4.4671   -4.4512   18.7794 C.ar    1  UNL1        0.0202
     20 C           5.3687   -3.3110   18.4091 C.ar    1  UNL1        0.0202
     21 C           5.4386   -2.3762   19.5801 C.ar    1  UNL1        0.0764
@<TRIPOS>BOND
     1     1     2    1
     2     2     3   ar
     3     3     4   ar
     4     4     5   ar
     5     5     6   ar
     6     6     7   ar
     7     6     8    1
     8     8    17    1
     9    17    18   ar
    10    18    19   ar
    11    19    20   ar
    12    20    21   ar
    13     8     9    1
    14     9    10   ar
    15    10    11   ar
    16    11    12   ar
    17    12    13   ar
    18    13    14   ar
    19    14    15    1
    20    15    16    1
    21     7     2   ar
    22    21    17   ar
    23    14     9   ar
    24    16     5    1
@<TRIPOS>MOLECULE
*****
 21 24 0 0 0
SMALL
GASTEIGER

@<TRIPOS>ATOM
      1 C         -18.8351   -3.7034   19.1942 C.3     1  UNL1        0.0310
      2 C         -17.3656   -3.4132   19.2727 C.ar    1  UNL1       -0.0221
      3 C         -16.8911   -2.0312   19.6115 C.ar    1  UNL1       -0.0046
      4 C         -15.4215   -1.7410   19.6900 C.ar    1  UNL1       -0.0048
      5 C         -14.4264   -2.8328   19.4296 C.ar    1  UNL1       -0.0237
      6 C         -14.9010   -4.2148   19.0907 C.ar    1  UNL1       -0.0018
      7 C         -16.3706   -4.5050   19.0123 C.ar    1  UNL1       -0.0067
      8 C         -14.0843   -5.4383   18.7973 C.3     1  UNL1        0.1314
      9 C         -12.5914   -5.5821   18.7703 C.ar    1  UNL1        0.0160
     10 C         -12.1820   -6.9846   18.4311 C.ar    1  UNL1        0.0006
     11 C         -10.7276   -7.3429   18.3517 C.ar    1  UNL1        0.0204
     12 C          -9.6827   -6.2985   18.6114 C.ar    1  UNL1        0.0984
     13 N         -10.0921   -4.8959   18.9506 N.ar    1  UNL1       -0.2484
     14 C         -11.5465   -4.5377   19.0300 C.ar    1  UNL1        0.0574
     15 C         -11.7364   -3.0917   19.3809 C.3     1  UNL1        0.0502
     16 C         -13.0181   -2.3329   19.5587 C.3     1  UNL1        0.0324
     17 N         -14.8636   -6.6827   18.4903 N.ar    1  UNL1       -0.3190
     18 C         -15.4033   -7.6558   19.4963 C.ar    1  UNL1        0.0764
     19 C         -16.1132   -8.7469   18.7511 C.ar    1  UNL1        0.0202
     20 C         -16.0122   -8.4483   17.2846 C.ar    1  UNL1        0.0202
     21 C         -15.2399   -7.1726   17.1234 C.ar    1  UNL1        0.0764
@<TRIPOS>BOND
     1     1     2    1
     2     2     3   ar
     3     3     4   ar
     4     4     5   ar
     5     5     6   ar
     6     6     7   ar
     7     6     8    1
     8     8    17    1
     9    17    18   ar
    10    18    19   ar
    11    19    20   ar
    12    20    21   ar
    13     8     9    1
    14     9    10   ar
    15    10    11   ar
    16    11    12   ar
    17    12    13   ar
    18    13    14   ar
    19    14    15    1
    20    15    16    1
    21     7     2   ar
    22    21    17   ar
    23    14     9   ar
    24    16     5    1
@<TRIPOS>MOLECULE
*****
 21 24 0 0 0
SMALL
GASTEIGER

@<TRIPOS>ATOM
      1 C           7.4488   -4.7331   23.5294 C.3     1  UNL1        0.0310
      2 C           6.4039   -3.6807   23.7547 C.ar    1  UNL1       -0.0221
      3 C           6.2205   -3.0859   25.1194 C.ar    1  UNL1       -0.0046
      4 C           5.1756   -2.0335   25.3446 C.ar    1  UNL1       -0.0048
      5 C           4.3141   -1.5760   24.2051 C.ar    1  UNL1       -0.0237
      6 C           4.4975   -2.1709   22.8404 C.ar    1  UNL1       -0.0018
      7 C           5.5424   -3.2232   22.6152 C.ar    1  UNL1       -0.0067
      8 C           3.7513   -1.8602   21.5768 C.3     1  UNL1        0.1314
      9 C           2.6374   -0.8779   21.3658 C.ar    1  UNL1        0.0160
     10 C           2.1690   -0.8784   19.9409 C.ar    1  UNL1        0.0006
     11 C           1.0577    0.0353   19.5165 C.ar    1  UNL1        0.0204
     12 C           0.4149    0.9495   20.5170 C.ar    1  UNL1        0.0984
     13 N           0.8834    0.9499   21.9420 N.ar    1  UNL1       -0.2484
     14 C           1.9946    0.0362   22.3663 C.ar    1  UNL1        0.0574
     15 C           2.3070    0.1939   23.8250 C.3     1  UNL1        0.0502
     16 C           3.3392   -0.5235   24.6434 C.3     1  UNL1        0.0324
     17 N           4.1750   -2.6341   20.3637 N.ar    1  UNL1       -0.3190
     18 C           3.6981   -4.0037   19.9806 C.ar    1  UNL1        0.0764
     19 C           4.3784   -4.3903   18.7009 C.ar    1  UNL1        0.0202
     20 C           5.2758   -3.2596   18.2930 C.ar    1  UNL1        0.0202
     21 C           5.1501   -2.1743   19.3207 C.ar    1  UNL1        0.0764
@<TRIPOS>BOND
     1     1     2    1
     2     2     3   ar
     3     3     4   ar
     4     4     5   ar
     5     5     6   ar
     6     6     7   ar
     7     6     8    1
     8     8    17    1
     9    17    18   ar
    10    18    19   ar
    11    19    20   ar
    12    20    21   ar
    13     8     9    1
    14     9    10   ar
    15    10    11   ar
    16    11    12   ar
    17    12    13   ar
    18    13    14   ar
    19    14    15    1
    20    15    16    1
    21     7     2   ar
    22    21    17   ar
    23    14     9   ar
    24    16     5    1
@<TRIPOS>MOLECULE
*****
 21 24 0 0 0
SMALL
GASTEIGER

@<TRIPOS>ATOM
      1 C         -17.7516   -7.2013   19.7402 C.3     1  UNL1        0.0310
      2 C         -16.3728   -7.3371   19.1653 C.ar    1  UNL1       -0.0221
      3 C         -15.8432   -8.6917   18.7985 C.ar    1  UNL1       -0.0046
      4 C         -14.4644   -8.8274   18.2236 C.ar    1  UNL1       -0.0048
      5 C         -13.6153   -7.6086   18.0154 C.ar    1  UNL1       -0.0237
      6 C         -14.1449   -6.2540   18.3822 C.ar    1  UNL1       -0.0018
      7 C         -15.5237   -6.1183   18.9571 C.ar    1  UNL1       -0.0067
      8 C         -13.4694   -4.9205   18.2574 C.3     1  UNL1        0.1314
      9 C         -12.0975   -4.6122   17.7350 C.ar    1  UNL1        0.0160
     10 C         -11.8106   -3.1407   17.7834 C.ar    1  UNL1        0.0006
     11 C         -10.4883   -2.6184   17.3052 C.ar    1  UNL1        0.0204
     12 C          -9.4530   -3.5675   16.7786 C.ar    1  UNL1        0.0984
     13 N          -9.7400   -5.0390   16.7302 N.ar    1  UNL1       -0.2484
     14 C         -11.0622   -5.5613   17.2084 C.ar    1  UNL1        0.0574
     15 C         -11.1432   -7.0531   17.0742 C.3     1  UNL1        0.0502
     16 C         -12.2793   -7.9643   17.4333 C.3     1  UNL1        0.0324
     17 N         -14.2720   -3.7390   18.7156 N.ar    1  UNL1       -0.3190
     18 C         -14.2656   -3.1502   20.0952 C.ar    1  UNL1        0.0764
     19 C         -15.2115   -1.9862   20.1068 C.ar    1  UNL1        0.0202
     20 C         -15.8026   -1.8555   18.7344 C.ar    1  UNL1        0.0202
     21 C         -15.2220   -2.9388   17.8746 C.ar    1  UNL1        0.0764
@<TRIPOS>BOND
     1     1     2    1
     2     2     3   ar
     3     3     4   ar
     4     4     5   ar
     5     5     6   ar
     6     6     7   ar
     7     6     8    1
     8     8    17    1
     9    17    18   ar
    10    18    19   ar
    11    19    20   ar
    12    20    21   ar
    13     8     9    1
    14     9    10   ar
    15    10    11   ar
    16    11    12   ar
    17    12    13   ar
    18    13    14   ar
    19    14    15    1
    20    15    16    1
    21     7     2   ar
    22    21    17   ar
    23    14     9   ar
    24    16     5    1
@<TRIPOS>MOLECULE
*****
 21 24 0 0 0
SMALL
GASTEIGER

@<TRIPOS>ATOM
      1 C         -19.3458   -5.3419   19.4567 C.3     1  UNL1        0.0310
      2 C         -17.9328   -5.8334   19.3481 C.ar    1  UNL1       -0.0221
      3 C         -17.6467   -7.3056   19.3746 C.ar    1  UNL1       -0.0046
      4 C         -16.2336   -7.7971   19.2660 C.ar    1  UNL1       -0.0048
      5 C         -15.1067   -6.8163   19.1308 C.ar    1  UNL1       -0.0237
      6 C         -15.3929   -5.3441   19.1043 C.ar    1  UNL1       -0.0018
      7 C         -16.8060   -4.8527   19.2130 C.ar    1  UNL1       -0.0067
      8 C         -14.4248   -4.2054   18.9778 C.3     1  UNL1        0.1314
      9 C         -12.9314   -4.2575   18.8465 C.ar    1  UNL1        0.0160
     10 C         -12.3418   -2.8820   18.7453 C.ar    1  UNL1        0.0006
     11 C         -10.8582   -2.7104   18.6069 C.ar    1  UNL1        0.0204
     12 C          -9.9641   -3.9142   18.5697 C.ar    1  UNL1        0.0984
     13 N         -10.5537   -5.2897   18.6709 N.ar    1  UNL1       -0.2484
     14 C         -12.0374   -5.4614   18.8093 C.ar    1  UNL1        0.0574
     15 C         -12.4159   -6.9104   18.8942 C.3     1  UNL1        0.0502
     16 C         -13.7818   -7.5134   19.0373 C.3     1  UNL1        0.0324
     17 N         -15.0301   -2.8329   18.9833 N.ar    1  UNL1       -0.3190
     18 C         -15.5606   -2.0984   17.7878 C.ar    1  UNL1        0.0764
     19 C         -16.0694   -0.7656   18.2510 C.ar    1  UNL1        0.0202
     20 C         -15.8535   -0.6763   19.7327 C.ar    1  UNL1        0.0202
     21 C         -15.2111   -1.9540   20.1852 C.ar    1  UNL1        0.0764
@<TRIPOS>BOND
     1     1     2    1
     2     2     3   ar
     3     3     4   ar
     4     4     5   ar
     5     5     6   ar
     6     6     7   ar
     7     6     8    1
     8     8    17    1
     9    17    18   ar
    10    18    19   ar
    11    19    20   ar
    12    20    21   ar
    13     8     9    1
    14     9    10   ar
    15    10    11   ar
    16    11    12   ar
    17    12    13   ar
    18    13    14   ar
    19    14    15    1
    20    15    16    1
    21     7     2   ar
    22    21    17   ar
    23    14     9   ar
    24    16     5    1
