@<TRIPOS>MOLECULE
*****
 38 42 0 0 0
SMALL
GASTEIGER

@<TRIPOS>ATOM
      1 C         -10.1717  -17.2460   22.9024 C.ar    1  UNL1        0.0354
      2 C         -11.2880  -16.3333   22.4894 C.ar    1  UNL1        0.0144
      3 C         -12.3019  -16.7952   21.4850 C.ar    1  UNL1        0.0579
      4 CL        -13.4182  -15.8824   21.0720 Cl      1  UNL1       -0.0822
      5 C         -12.1995  -18.1700   20.8938 C.ar    1  UNL1        0.0145
      6 C         -11.0831  -19.0828   21.3069 C.ar    1  UNL1        0.0384
      7 C         -10.0693  -18.6208   22.3112 C.ar    1  UNL1        0.1454
      8 N          -4.8303  -14.7455   22.9942 N.pl3   1  UNL1       -0.3400
      9 C          -5.5038  -15.0777   24.2927 C.ar    1  UNL1        0.1674
     10 N          -4.9453  -14.8338   25.6632 N.ar    1  UNL1       -0.0623
     11 O          -5.9504  -15.3174   26.6661 O.2     1  UNL1       -0.3522
     12 C          -7.1301  -15.8603   25.9154 C.ar    1  UNL1        0.1781
     13 C          -8.4199  -16.4704   26.3780 C.ar    1  UNL1        0.0403
     14 C          -9.4338  -16.9323   25.3737 C.ar    1  UNL1        0.0033
     15 C          -9.1578  -16.7841   23.9068 C.ar    1  UNL1        0.0033
     16 C          -7.8679  -16.1740   23.4442 C.ar    1  UNL1        0.0061
     17 C          -6.8541  -15.7121   24.4485 C.ar    1  UNL1        0.0715
     18 H          -3.9387  -14.3280   22.9948 H       1  UNL1        0.1438
     19 H          -5.2798  -14.9451   22.1413 H       1  UNL1        0.1438
     20 O          -8.9529  -19.5336   22.7243 O.3     1  UNL1       -0.4511
     21 C          -7.6365  -19.4807   22.0072 C.ar    1  UNL1        0.1748
     22 C          -6.3814  -19.1650   22.7656 C.ar    1  UNL1        0.0708
     23 C          -5.0650  -19.1121   22.0484 C.ar    1  UNL1        0.1621
     24 F          -3.8100  -18.7964   22.8067 F       1  UNL1       -0.2026
     25 C          -5.0037  -19.3749   20.5728 C.ar    1  UNL1        0.1549
     26 C          -6.2588  -19.6905   19.8145 C.ar    1  UNL1        0.0553
     27 C          -7.5752  -19.7435   20.5317 C.ar    1  UNL1        0.1759
     28 F          -8.8303  -20.0591   19.7733 F       1  UNL1       -0.2009
     29 S          -3.6874  -19.3220   19.8556 S.O2    1  UNL1        0.0773
     30 O          -3.1960  -20.4804   20.6721 O.2     1  UNL1       -0.1498
     31 O          -4.1787  -18.1635   19.0392 O.2     1  UNL1       -0.1498
     32 N          -2.3710  -19.2690   19.1385 N.pl3   1  UNL1       -0.1925
     33 H          -2.2180  -19.8354   18.3478 H       1  UNL1        0.1758
     34 C          -1.2876  -18.3532   19.6260 C.ar    1  UNL1        0.1977
     35 N           0.1850  -18.6375   19.6004 N.ar    1  UNL1       -0.1997
     36 C           0.8961  -17.4523   20.1832 C.ar    1  UNL1        0.2082
     37 N          -0.1370  -16.4355   20.5690 N.ar    1  UNL1       -0.1840
     38 S          -1.4866  -16.9923   20.2246 S.2     1  UNL1        0.0508
@<TRIPOS>BOND
     1     8     9    1
     2     9    10   ar
     3    10    11   ar
     4    11    12   ar
     5    12    13   ar
     6    13    14   ar
     7    14    15   ar
     8    15     1    1
     9     1     2   ar
    10     2     3   ar
    11     3     4    1
    12     3     5   ar
    13     5     6   ar
    14     6     7   ar
    15     7    20    1
    16    20    21    1
    17    21    22   ar
    18    22    23   ar
    19    23    24    1
    20    23    25   ar
    21    25    29    1
    22    29    30    2
    23    29    31    2
    24    29    32    1
    25    32    34    1
    26    34    35   ar
    27    35    36   ar
    28    36    37   ar
    29    37    38   ar
    30    25    26   ar
    31    26    27   ar
    32    27    28    1
    33    15    16   ar
    34    16    17   ar
    35    17     9   ar
    36    17    12   ar
    37     7     1   ar
    38    27    21   ar
    39    38    34   ar
    40     8    18    1
    41     8    19    1
    42    32    33    1
@<TRIPOS>MOLECULE
*****
 38 42 0 0 0
SMALL
GASTEIGER

@<TRIPOS>ATOM
      1 C           5.6910    1.3713   36.2225 C.ar    1  UNL1        0.0354
      2 C           6.9526    2.0893   36.6005 C.ar    1  UNL1        0.0144
      3 C           8.2740    1.6102   36.0766 C.ar    1  UNL1        0.0579
      4 CL          9.5355    2.3281   36.4545 Cl      1  UNL1       -0.0822
      5 C           8.3337    0.4131   35.1747 C.ar    1  UNL1        0.0145
      6 C           7.0721   -0.3049   34.7967 C.ar    1  UNL1        0.0384
      7 C           5.7508    0.1742   35.3206 C.ar    1  UNL1        0.1454
      8 N           1.3917   -0.4951   39.8035 N.pl3   1  UNL1       -0.3400
      9 C           1.2630    0.8465   39.1451 C.ar    1  UNL1        0.1674
     10 N           0.1167    1.8007   39.3046 N.ar    1  UNL1       -0.0623
     11 O           0.4034    3.0133   38.4696 O.2     1  UNL1       -0.3522
     12 C           1.7269    2.8087   37.7941 C.ar    1  UNL1        0.1781
     13 C           2.5170    3.6688   36.8528 C.ar    1  UNL1        0.0403
     14 C           3.8383    3.1896   36.3289 C.ar    1  UNL1        0.0033
     15 C           4.3696    1.8504   36.7464 C.ar    1  UNL1        0.0033
     16 C           3.5796    0.9904   37.6877 C.ar    1  UNL1        0.0061
     17 C           2.2582    1.4695   38.2115 C.ar    1  UNL1        0.0715
     18 H           0.6816   -0.8190   40.4036 H       1  UNL1        0.1438
     19 H           2.1862   -1.0517   39.6356 H       1  UNL1        0.1438
     20 O           4.4891   -0.5438   34.9427 O.3     1  UNL1       -0.4511
     21 C           3.9298   -0.3991   33.5584 C.ar    1  UNL1        0.1748
     22 C           3.1914    0.8489   33.1745 C.ar    1  UNL1        0.0708
     23 C           2.6320    0.9936   31.7902 C.ar    1  UNL1        0.1621
     24 F           1.8936    2.2415   31.4063 F       1  UNL1       -0.2026
     25 C           2.8111   -0.1097   30.7898 C.ar    1  UNL1        0.1549
     26 C           3.5495   -1.3576   31.1737 C.ar    1  UNL1        0.0553
     27 C           4.1088   -1.5023   32.5580 C.ar    1  UNL1        0.1759
     28 F           4.8472   -2.7502   32.9419 F       1  UNL1       -0.2009
     29 S           2.2518    0.0350   29.4055 S.O2    1  UNL1        0.0773
     30 O           0.9086   -0.4120   29.9016 O.2     1  UNL1       -0.1498
     31 O           3.5950    0.4820   28.9095 O.2     1  UNL1       -0.1498
     32 N           1.6925    0.1797   28.0213 N.pl3   1  UNL1       -0.1925
     33 H           1.9610   -0.4498   27.3136 H       1  UNL1        0.1758
     34 C           0.7240    1.2836   27.7153 C.ar    1  UNL1        0.1977
     35 N          -0.6324    1.1200   27.0961 N.ar    1  UNL1       -0.1997
     36 C          -1.2528    2.4801   26.9729 C.ar    1  UNL1        0.2082
     37 N          -0.2797    3.4843   27.5159 N.ar    1  UNL1       -0.1840
     38 S           0.9420    2.7448   27.9747 S.2     1  UNL1        0.0508
@<TRIPOS>BOND
     1     8     9    1
     2     9    10   ar
     3    10    11   ar
     4    11    12   ar
     5    12    13   ar
     6    13    14   ar
     7    14    15   ar
     8    15     1    1
     9     1     2   ar
    10     2     3   ar
    11     3     4    1
    12     3     5   ar
    13     5     6   ar
    14     6     7   ar
    15     7    20    1
    16    20    21    1
    17    21    22   ar
    18    22    23   ar
    19    23    24    1
    20    23    25   ar
    21    25    29    1
    22    29    30    2
    23    29    31    2
    24    29    32    1
    25    32    34    1
    26    34    35   ar
    27    35    36   ar
    28    36    37   ar
    29    37    38   ar
    30    25    26   ar
    31    26    27   ar
    32    27    28    1
    33    15    16   ar
    34    16    17   ar
    35    17     9   ar
    36    17    12   ar
    37     7     1   ar
    38    27    21   ar
    39    38    34   ar
    40     8    18    1
    41     8    19    1
    42    32    33    1
@<TRIPOS>MOLECULE
*****
 38 42 0 0 0
SMALL
GASTEIGER

@<TRIPOS>ATOM
      1 C          -2.6122  -17.7289   21.9644 C.ar    1  UNL1        0.0354
      2 C          -1.5286  -16.8126   21.4786 C.ar    1  UNL1        0.0144
      3 C          -0.5919  -17.2655   20.3980 C.ar    1  UNL1        0.0579
      4 CL          0.4917  -16.3491   19.9122 Cl      1  UNL1       -0.0822
      5 C          -0.7389  -18.6347   19.8033 C.ar    1  UNL1        0.0145
      6 C          -1.8226  -19.5510   20.2891 C.ar    1  UNL1        0.0384
      7 C          -2.7592  -19.0981   21.3696 C.ar    1  UNL1        0.1454
      8 N          -7.7057  -14.8007   22.4881 N.pl3   1  UNL1       -0.3400
      9 C          -7.0234  -15.3066   23.7244 C.ar    1  UNL1        0.1674
     10 N          -7.5145  -15.1425   25.1322 N.ar    1  UNL1       -0.0623
     11 O          -6.5249  -15.7999   26.0479 O.2     1  UNL1       -0.3522
     12 C          -5.4222  -16.3704   25.2060 C.ar    1  UNL1        0.1781
     13 C          -4.1775  -17.1281   25.5615 C.ar    1  UNL1        0.0403
     14 C          -3.2408  -17.5809   24.4809 C.ar    1  UNL1        0.0033
     15 C          -3.5490  -17.2761   23.0449 C.ar    1  UNL1        0.0033
     16 C          -4.7937  -16.5184   22.6895 C.ar    1  UNL1        0.0061
     17 C          -5.7304  -16.0656   23.7700 C.ar    1  UNL1        0.0715
     18 H          -8.5563  -14.3104   22.5609 H       1  UNL1        0.1438
     19 H          -7.3028  -14.9590   21.6038 H       1  UNL1        0.1438
     20 O          -3.8429  -20.0145   21.8555 O.3     1  UNL1       -0.4511
     21 C          -5.2789  -19.7053   21.5512 C.ar    1  UNL1        0.1748
     22 C          -6.3308  -19.9217   22.5985 C.ar    1  UNL1        0.0708
     23 C          -7.7667  -19.6126   22.2942 C.ar    1  UNL1        0.1621
     24 F          -8.8187  -19.8290   23.3413 F       1  UNL1       -0.2026
     25 C          -8.1507  -19.0870   20.9427 C.ar    1  UNL1        0.1549
     26 C          -7.0988  -18.8706   19.8956 C.ar    1  UNL1        0.0553
     27 C          -5.6628  -19.1797   20.1999 C.ar    1  UNL1        0.1759
     28 F          -4.6109  -18.9633   19.1527 F       1  UNL1       -0.2009
     29 S          -9.5866  -18.7778   20.6385 S.O2    1  UNL1        0.0773
     30 O          -9.4108  -17.4012   21.2077 O.2     1  UNL1       -0.1498
     31 O          -9.7624  -20.1545   20.0693 O.2     1  UNL1       -0.1498
     32 N         -11.0225  -18.4687   20.3342 N.pl3   1  UNL1       -0.1925
     33 H         -11.3900  -18.6651   19.4423 H       1  UNL1        0.1758
     34 C         -11.8985  -17.8602   21.3890 C.ar    1  UNL1        0.1977
     35 N         -12.3671  -18.5360   22.6436 N.ar    1  UNL1       -0.1997
     36 C         -13.2178  -17.5627   23.4044 C.ar    1  UNL1        0.2082
     37 N         -13.2750  -16.2853   22.6200 N.ar    1  UNL1       -0.1840
     38 S         -12.4596  -16.4692   21.3745 S.2     1  UNL1        0.0508
@<TRIPOS>BOND
     1     8     9    1
     2     9    10   ar
     3    10    11   ar
     4    11    12   ar
     5    12    13   ar
     6    13    14   ar
     7    14    15   ar
     8    15     1    1
     9     1     2   ar
    10     2     3   ar
    11     3     4    1
    12     3     5   ar
    13     5     6   ar
    14     6     7   ar
    15     7    20    1
    16    20    21    1
    17    21    22   ar
    18    22    23   ar
    19    23    24    1
    20    23    25   ar
    21    25    29    1
    22    29    30    2
    23    29    31    2
    24    29    32    1
    25    32    34    1
    26    34    35   ar
    27    35    36   ar
    28    36    37   ar
    29    37    38   ar
    30    25    26   ar
    31    26    27   ar
    32    27    28    1
    33    15    16   ar
    34    16    17   ar
    35    17     9   ar
    36    17    12   ar
    37     7     1   ar
    38    27    21   ar
    39    38    34   ar
    40     8    18    1
    41     8    19    1
    42    32    33    1
@<TRIPOS>MOLECULE
*****
 38 42 0 0 0
SMALL
GASTEIGER

@<TRIPOS>ATOM
      1 C           3.8623   -1.7417   19.9817 C.ar    1  UNL1        0.0354
      2 C           3.7270   -3.0043   19.1832 C.ar    1  UNL1        0.0144
      3 C           4.7493   -4.0930   19.3225 C.ar    1  UNL1        0.0579
      4 CL          4.6140   -5.3556   18.5240 Cl      1  UNL1       -0.0822
      5 C           5.9070   -3.9192   20.2603 C.ar    1  UNL1        0.0145
      6 C           6.0423   -2.6566   21.0589 C.ar    1  UNL1        0.0384
      7 C           5.0200   -1.5679   20.9195 C.ar    1  UNL1        0.1454
      8 N           3.4820    3.7497   17.8625 N.pl3   1  UNL1       -0.3400
      9 C           2.2686    3.1189   18.4788 C.ar    1  UNL1        0.1674
     10 N           0.9185    3.7571   18.6199 N.ar    1  UNL1       -0.0623
     11 O           0.0079    2.7717   19.2905 O.2     1  UNL1       -0.3522
     12 C           0.7952    1.5245   19.5639 C.ar    1  UNL1        0.1781
     13 C           0.4203    0.2212   20.2048 C.ar    1  UNL1        0.0403
     14 C           1.4427   -0.8675   20.3440 C.ar    1  UNL1        0.0033
     15 C           2.8399   -0.6529   19.8424 C.ar    1  UNL1        0.0033
     16 C           3.2148    0.6504   19.2015 C.ar    1  UNL1        0.0061
     17 C           2.1924    1.7391   19.0622 C.ar    1  UNL1        0.0715
     18 H           3.4327    4.6656   17.5049 H       1  UNL1        0.1438
     19 H           4.3277    3.2478   17.8157 H       1  UNL1        0.1438
     20 O           5.1553   -0.3053   21.7181 O.3     1  UNL1       -0.4511
     21 C           4.7617   -0.2875   23.1654 C.ar    1  UNL1        0.1748
     22 C           3.3759    0.1292   23.5607 C.ar    1  UNL1        0.0708
     23 C           2.9823    0.1470   25.0080 C.ar    1  UNL1        0.1621
     24 F           1.5967    0.5636   25.4034 F       1  UNL1       -0.2026
     25 C           3.9745   -0.2518   26.0601 C.ar    1  UNL1        0.1549
     26 C           5.3601   -0.6684   25.6647 C.ar    1  UNL1        0.0553
     27 C           5.7537   -0.6862   24.2174 C.ar    1  UNL1        0.1759
     28 F           7.1394   -1.1028   23.8221 F       1  UNL1       -0.2009
     29 S           3.5809   -0.2340   27.5074 S.O2    1  UNL1        0.0773
     30 O           3.8285    1.2446   27.5565 O.2     1  UNL1       -0.1498
     31 O           3.3332   -1.7126   27.4583 O.2     1  UNL1       -0.1498
     32 N           3.1873   -0.2161   28.9547 N.pl3   1  UNL1       -0.1925
     33 H           3.8185   -0.5332   29.6405 H       1  UNL1        0.1758
     34 C           1.8319    0.2848   29.3572 C.ar    1  UNL1        0.1977
     35 N           0.5328   -0.0509   28.6865 N.ar    1  UNL1       -0.1997
     36 C          -0.5644    0.6662   29.4158 C.ar    1  UNL1        0.2082
     37 N           0.0566    1.4451   30.5373 N.ar    1  UNL1       -0.1840
     38 S           1.5375    1.2094   30.5011 S.2     1  UNL1        0.0508
@<TRIPOS>BOND
     1     8     9    1
     2     9    10   ar
     3    10    11   ar
     4    11    12   ar
     5    12    13   ar
     6    13    14   ar
     7    14    15   ar
     8    15     1    1
     9     1     2   ar
    10     2     3   ar
    11     3     4    1
    12     3     5   ar
    13     5     6   ar
    14     6     7   ar
    15     7    20    1
    16    20    21    1
    17    21    22   ar
    18    22    23   ar
    19    23    24    1
    20    23    25   ar
    21    25    29    1
    22    29    30    2
    23    29    31    2
    24    29    32    1
    25    32    34    1
    26    34    35   ar
    27    35    36   ar
    28    36    37   ar
    29    37    38   ar
    30    25    26   ar
    31    26    27   ar
    32    27    28    1
    33    15    16   ar
    34    16    17   ar
    35    17     9   ar
    36    17    12   ar
    37     7     1   ar
    38    27    21   ar
    39    38    34   ar
    40     8    18    1
    41     8    19    1
    42    32    33    1
@<TRIPOS>MOLECULE
*****
 38 42 0 0 0
SMALL
GASTEIGER

@<TRIPOS>ATOM
      1 C           7.6567   -4.3961   24.5794 C.ar    1  UNL1        0.0354
      2 C           7.3313   -5.4879   25.5550 C.ar    1  UNL1        0.0144
      3 C           7.6718   -6.9118   25.2283 C.ar    1  UNL1        0.0579
      4 CL          7.3464   -8.0036   26.2039 Cl      1  UNL1       -0.0822
      5 C           8.3378   -7.2437   23.9259 C.ar    1  UNL1        0.0145
      6 C           8.6633   -6.1518   22.9502 C.ar    1  UNL1        0.0384
      7 C           8.3227   -4.7280   23.2770 C.ar    1  UNL1        0.1454
      8 N           2.9627   -0.8248   24.5165 N.pl3   1  UNL1       -0.3400
      9 C           4.2853   -0.2849   24.9740 C.ar    1  UNL1        0.1674
     10 N           4.5536    1.1172   25.4345 N.ar    1  UNL1       -0.0623
     11 O           6.0059    1.2163   25.7965 O.2     1  UNL1       -0.3522
     12 C           6.6352   -0.1246   25.5597 C.ar    1  UNL1        0.1781
     13 C           8.0391   -0.6206   25.7412 C.ar    1  UNL1        0.0403
     14 C           8.3796   -2.0444   25.4145 C.ar    1  UNL1        0.0033
     15 C           7.3162   -2.9722   24.9062 C.ar    1  UNL1        0.0033
     16 C           5.9123   -2.4762   24.7246 C.ar    1  UNL1        0.0061
     17 C           5.5718   -1.0524   25.0514 C.ar    1  UNL1        0.0715
     18 H           2.1710   -0.2398   24.5010 H       1  UNL1        0.1438
     19 H           2.8864   -1.7641   24.2318 H       1  UNL1        0.1438
     20 O           8.6482   -3.6361   22.3013 O.3     1  UNL1       -0.4511
     21 C           7.5817   -3.0993   21.3933 C.ar    1  UNL1        0.1748
     22 C           6.8459   -4.0256   20.4710 C.ar    1  UNL1        0.0708
     23 C           5.7794   -3.4889   19.5629 C.ar    1  UNL1        0.1621
     24 F           5.0436   -4.4151   18.6407 F       1  UNL1       -0.2026
     25 C           5.4488   -2.0258   19.5772 C.ar    1  UNL1        0.1549
     26 C           6.1846   -1.0995   20.4994 C.ar    1  UNL1        0.0553
     27 C           7.2511   -1.6363   21.4075 C.ar    1  UNL1        0.1759
     28 F           7.9869   -0.7101   22.3297 F       1  UNL1       -0.2009
     29 S           4.3824   -1.4890   18.6691 S.O2    1  UNL1        0.0773
     30 O           5.3979   -1.3160   17.5788 O.2     1  UNL1       -0.1498
     31 O           3.3669   -1.6620   19.7594 O.2     1  UNL1       -0.1498
     32 N           3.3159   -0.9523   17.7610 N.pl3   1  UNL1       -0.1925
     33 H           3.0835   -1.4353   16.9353 H       1  UNL1        0.1758
     34 C           2.6036    0.3206   18.1111 C.ar    1  UNL1        0.1977
     35 N           1.1171    0.5063   18.1888 N.ar    1  UNL1       -0.1997
     36 C           0.8474    1.9316   18.5707 C.ar    1  UNL1        0.2082
     37 N           2.1672    2.6267   18.7290 N.ar    1  UNL1       -0.1840
     38 S           3.2525    1.6310   18.4450 S.2     1  UNL1        0.0508
@<TRIPOS>BOND
     1     8     9    1
     2     9    10   ar
     3    10    11   ar
     4    11    12   ar
     5    12    13   ar
     6    13    14   ar
     7    14    15   ar
     8    15     1    1
     9     1     2   ar
    10     2     3   ar
    11     3     4    1
    12     3     5   ar
    13     5     6   ar
    14     6     7   ar
    15     7    20    1
    16    20    21    1
    17    21    22   ar
    18    22    23   ar
    19    23    24    1
    20    23    25   ar
    21    25    29    1
    22    29    30    2
    23    29    31    2
    24    29    32    1
    25    32    34    1
    26    34    35   ar
    27    35    36   ar
    28    36    37   ar
    29    37    38   ar
    30    25    26   ar
    31    26    27   ar
    32    27    28    1
    33    15    16   ar
    34    16    17   ar
    35    17     9   ar
    36    17    12   ar
    37     7     1   ar
    38    27    21   ar
    39    38    34   ar
    40     8    18    1
    41     8    19    1
    42    32    33    1
@<TRIPOS>MOLECULE
*****
 38 42 0 0 0
SMALL
GASTEIGER

@<TRIPOS>ATOM
      1 C           0.4995    1.5253   26.5137 C.ar    1  UNL1        0.0354
      2 C          -0.7396    1.0874   27.2368 C.ar    1  UNL1        0.0144
      3 C          -0.6291    0.3951   28.5629 C.ar    1  UNL1        0.0579
      4 CL         -1.8682   -0.0428   29.2859 Cl      1  UNL1       -0.0822
      5 C           0.7206    0.1406   29.1658 C.ar    1  UNL1        0.0145
      6 C           1.9597    0.5785   28.4427 C.ar    1  UNL1        0.0384
      7 C           1.8491    1.2708   27.1166 C.ar    1  UNL1        0.1454
      8 N           0.0053    0.1328   20.8033 N.pl3   1  UNL1       -0.3400
      9 C           0.0454    1.5783   21.2019 C.ar    1  UNL1        0.1674
     10 N          -0.0294    2.7520   20.2709 N.ar    1  UNL1       -0.0623
     11 O           0.0463    4.0029   21.0951 O.2     1  UNL1       -0.3522
     12 C           0.1678    3.6024   22.5356 C.ar    1  UNL1        0.1781
     13 C           0.2789    4.4086   23.7956 C.ar    1  UNL1        0.0403
     14 C           0.3895    3.7162   25.1216 C.ar    1  UNL1        0.0033
     15 C           0.3889    2.2176   25.1876 C.ar    1  UNL1        0.0033
     16 C           0.2778    1.4115   23.9276 C.ar    1  UNL1        0.0061
     17 C           0.1673    2.1038   22.6016 C.ar    1  UNL1        0.0715
     18 H          -0.0769   -0.1139   19.8538 H       1  UNL1        0.1438
     19 H           0.0612   -0.5693   21.4912 H       1  UNL1        0.1438
     20 O           3.0883    1.7087   26.3935 O.3     1  UNL1       -0.4511
     21 C           3.4373    1.1004   25.0675 C.ar    1  UNL1        0.1748
     22 C           3.4835   -0.3912   24.9156 C.ar    1  UNL1        0.0708
     23 C           3.8325   -0.9995   23.5896 C.ar    1  UNL1        0.1621
     24 F           3.8787   -2.4911   23.4376 F       1  UNL1       -0.2026
     25 C           4.1354   -0.1162   22.4156 C.ar    1  UNL1        0.1549
     26 C           4.0892    1.3753   22.5677 C.ar    1  UNL1        0.0553
     27 C           3.7402    1.9836   23.8936 C.ar    1  UNL1        0.1759
     28 F           3.6940    3.4751   24.0456 F       1  UNL1       -0.2009
     29 S           4.4844   -0.7245   21.0897 S.O2    1  UNL1        0.0773
     30 O           3.0264   -0.8259   20.7524 O.2     1  UNL1       -0.1498
     31 O           5.9425   -0.6232   21.4270 O.2     1  UNL1       -0.1498
     32 N           4.8335   -1.3328   19.7637 N.pl3   1  UNL1       -0.1925
     33 H           5.1409   -0.7595   19.0248 H       1  UNL1        0.1758
     34 C           4.7140   -2.8147   19.5637 C.ar    1  UNL1        0.1977
     35 N           3.5211   -3.5363   19.0103 N.ar    1  UNL1       -0.1997
     36 C           3.8363   -5.0026   18.9864 C.ar    1  UNL1        0.2082
     37 N           5.2240   -5.1872   19.5251 N.ar    1  UNL1       -0.1840
     38 S           5.7665   -3.8350   19.8818 S.2     1  UNL1        0.0508
@<TRIPOS>BOND
     1     8     9    1
     2     9    10   ar
     3    10    11   ar
     4    11    12   ar
     5    12    13   ar
     6    13    14   ar
     7    14    15   ar
     8    15     1    1
     9     1     2   ar
    10     2     3   ar
    11     3     4    1
    12     3     5   ar
    13     5     6   ar
    14     6     7   ar
    15     7    20    1
    16    20    21    1
    17    21    22   ar
    18    22    23   ar
    19    23    24    1
    20    23    25   ar
    21    25    29    1
    22    29    30    2
    23    29    31    2
    24    29    32    1
    25    32    34    1
    26    34    35   ar
    27    35    36   ar
    28    36    37   ar
    29    37    38   ar
    30    25    26   ar
    31    26    27   ar
    32    27    28    1
    33    15    16   ar
    34    16    17   ar
    35    17     9   ar
    36    17    12   ar
    37     7     1   ar
    38    27    21   ar
    39    38    34   ar
    40     8    18    1
    41     8    19    1
    42    32    33    1
@<TRIPOS>MOLECULE
*****
 38 42 0 0 0
SMALL
GASTEIGER

@<TRIPOS>ATOM
      1 C           3.8112   -1.7463   20.1196 C.ar    1  UNL1        0.0354
      2 C           3.7291   -3.0188   19.3298 C.ar    1  UNL1        0.0144
      3 C           4.7431   -4.1028   19.5463 C.ar    1  UNL1        0.0579
      4 CL          4.6610   -5.3753   18.7566 Cl      1  UNL1       -0.0822
      5 C           5.8393   -3.9140   20.5527 C.ar    1  UNL1        0.0145
      6 C           5.9214   -2.6414   21.3425 C.ar    1  UNL1        0.0384
      7 C           4.9074   -1.5575   21.1259 C.ar    1  UNL1        0.1454
      8 N           3.5475    3.7093   17.8926 N.pl3   1  UNL1       -0.3400
      9 C           2.3011    3.0855   18.4471 C.ar    1  UNL1        0.1674
     10 N           0.9441    3.7227   18.4986 N.ar    1  UNL1       -0.0623
     11 O          -0.0027    2.7460   19.1307 O.2     1  UNL1       -0.3522
     12 C           0.7690    1.5054   19.4700 C.ar    1  UNL1        0.1781
     13 C           0.3592    0.2117   20.1090 C.ar    1  UNL1        0.0403
     14 C           1.3732   -0.8722   20.3255 C.ar    1  UNL1        0.0033
     15 C           2.7971   -0.6623   19.9030 C.ar    1  UNL1        0.0033
     16 C           3.2070    0.6313   19.2640 C.ar    1  UNL1        0.0061
     17 C           2.1929    1.7152   19.0475 C.ar    1  UNL1        0.0715
     18 H           3.5179    4.6191   17.5178 H       1  UNL1        0.1438
     19 H           4.3952    3.2087   17.9035 H       1  UNL1        0.1438
     20 O           4.9895   -0.2849   21.9157 O.3     1  UNL1       -0.4511
     21 C           4.5304   -0.2573   23.3435 C.ar    1  UNL1        0.1748
     22 C           5.3676   -0.8942   24.4129 C.ar    1  UNL1        0.0708
     23 C           4.9084   -0.8666   25.8407 C.ar    1  UNL1        0.1621
     24 F           5.7455   -1.5034   26.9101 F       1  UNL1       -0.2026
     25 C           3.6121   -0.2022   26.1989 C.ar    1  UNL1        0.1549
     26 C           2.7751    0.4346   25.1295 C.ar    1  UNL1        0.0553
     27 C           3.2342    0.4070   23.7018 C.ar    1  UNL1        0.1759
     28 F           2.3971    1.0438   22.6323 F       1  UNL1       -0.2009
     29 S           3.1530   -0.1747   27.6267 S.O2    1  UNL1        0.0773
     30 O           3.3295    1.3146   27.6547 O.2     1  UNL1       -0.1498
     31 O           2.9765   -1.6640   27.5987 O.2     1  UNL1       -0.1498
     32 N           2.6939   -0.1471   29.0544 N.pl3   1  UNL1       -0.1925
     33 H           1.7994    0.1985   29.2773 H       1  UNL1        0.1758
     34 C           3.5977   -0.6462   30.1426 C.ar    1  UNL1        0.1977
     35 N           3.1611   -1.2889   31.4258 N.ar    1  UNL1       -0.1997
     36 C           4.3902   -1.6302   32.2150 C.ar    1  UNL1        0.2082
     37 N           5.5864   -1.1984   31.4195 N.ar    1  UNL1       -0.1840
     38 S           5.0966   -0.5904   30.1388 S.2     1  UNL1        0.0508
@<TRIPOS>BOND
     1     8     9    1
     2     9    10   ar
     3    10    11   ar
     4    11    12   ar
     5    12    13   ar
     6    13    14   ar
     7    14    15   ar
     8    15     1    1
     9     1     2   ar
    10     2     3   ar
    11     3     4    1
    12     3     5   ar
    13     5     6   ar
    14     6     7   ar
    15     7    20    1
    16    20    21    1
    17    21    22   ar
    18    22    23   ar
    19    23    24    1
    20    23    25   ar
    21    25    29    1
    22    29    30    2
    23    29    31    2
    24    29    32    1
    25    32    34    1
    26    34    35   ar
    27    35    36   ar
    28    36    37   ar
    29    37    38   ar
    30    25    26   ar
    31    26    27   ar
    32    27    28    1
    33    15    16   ar
    34    16    17   ar
    35    17     9   ar
    36    17    12   ar
    37     7     1   ar
    38    27    21   ar
    39    38    34   ar
    40     8    18    1
    41     8    19    1
    42    32    33    1
@<TRIPOS>MOLECULE
*****
 38 42 0 0 0
SMALL
GASTEIGER

@<TRIPOS>ATOM
      1 C           2.0002    1.5331   19.1756 C.ar    1  UNL1        0.0354
      2 C           1.8000    2.9683   18.7883 C.ar    1  UNL1        0.0144
      3 C           0.6263    3.7332   19.3246 C.ar    1  UNL1        0.0579
      4 CL          0.4261    5.1684   18.9373 Cl      1  UNL1       -0.0822
      5 C          -0.3471    3.0628   20.2482 C.ar    1  UNL1        0.0145
      6 C          -0.1468    1.6275   20.6354 C.ar    1  UNL1        0.0384
      7 C           1.0268    0.8627   20.0991 C.ar    1  UNL1        0.1454
      8 N           7.7293    0.7821   20.3606 N.pl3   1  UNL1       -0.3400
      9 C           7.1213    0.0507   19.2007 C.ar    1  UNL1        0.1674
     10 N           7.8392   -0.8860   18.2748 N.ar    1  UNL1       -0.0623
     11 O           6.8501   -1.3879   17.2649 O.2     1  UNL1       -0.3522
     12 C           5.5210   -0.7614   17.5666 C.ar    1  UNL1        0.1781
     13 C           4.1799   -0.8857   16.9065 C.ar    1  UNL1        0.0403
     14 C           3.0063   -0.1209   17.4429 C.ar    1  UNL1        0.0033
     15 C           3.1739    0.7683   18.6393 C.ar    1  UNL1        0.0033
     16 C           4.5151    0.8926   19.2993 C.ar    1  UNL1        0.0061
     17 C           5.6886    0.1277   18.7630 C.ar    1  UNL1        0.0715
     18 H           8.6843    0.6660   20.5697 H       1  UNL1        0.1438
     19 H           7.1734    1.3782   20.9127 H       1  UNL1        0.1438
     20 O           1.2271   -0.5726   20.4864 O.3     1  UNL1       -0.4511
     21 C           2.4754   -0.9878   21.2070 C.ar    1  UNL1        0.1748
     22 C           2.8842   -0.2826   22.4663 C.ar    1  UNL1        0.0708
     23 C           4.1325   -0.6978   23.1870 C.ar    1  UNL1        0.1621
     24 F           4.5413    0.0073   24.4462 F       1  UNL1       -0.2026
     25 C           4.9720   -1.8182   22.6483 C.ar    1  UNL1        0.1549
     26 C           4.5632   -2.5233   21.3891 C.ar    1  UNL1        0.0553
     27 C           3.3149   -2.1081   20.6685 C.ar    1  UNL1        0.1759
     28 F           2.9061   -2.8132   19.4093 F       1  UNL1       -0.2009
     29 S           6.2203   -2.2334   23.3690 S.O2    1  UNL1        0.0773
     30 O           7.0468   -1.4695   22.3774 O.2     1  UNL1       -0.1498
     31 O           5.3938   -2.9973   24.3606 O.2     1  UNL1       -0.1498
     32 N           7.4686   -2.6486   24.0896 N.pl3   1  UNL1       -0.1925
     33 H           8.1028   -1.9665   24.4087 H       1  UNL1        0.1758
     34 C           7.7507   -4.1031   24.3241 C.ar    1  UNL1        0.1977
     35 N           7.6168   -5.2015   23.3114 N.ar    1  UNL1       -0.1997
     36 C           7.9996   -6.4918   23.9737 C.ar    1  UNL1        0.2082
     37 N           8.3701   -6.1907   25.3958 N.ar    1  UNL1       -0.1840
     38 S           8.2163   -4.7144   25.6123 S.2     1  UNL1        0.0508
@<TRIPOS>BOND
     1     8     9    1
     2     9    10   ar
     3    10    11   ar
     4    11    12   ar
     5    12    13   ar
     6    13    14   ar
     7    14    15   ar
     8    15     1    1
     9     1     2   ar
    10     2     3   ar
    11     3     4    1
    12     3     5   ar
    13     5     6   ar
    14     6     7   ar
    15     7    20    1
    16    20    21    1
    17    21    22   ar
    18    22    23   ar
    19    23    24    1
    20    23    25   ar
    21    25    29    1
    22    29    30    2
    23    29    31    2
    24    29    32    1
    25    32    34    1
    26    34    35   ar
    27    35    36   ar
    28    36    37   ar
    29    37    38   ar
    30    25    26   ar
    31    26    27   ar
    32    27    28    1
    33    15    16   ar
    34    16    17   ar
    35    17     9   ar
    36    17    12   ar
    37     7     1   ar
    38    27    21   ar
    39    38    34   ar
    40     8    18    1
    41     8    19    1
    42    32    33    1
@<TRIPOS>MOLECULE
*****
 38 42 0 0 0
SMALL
GASTEIGER

@<TRIPOS>ATOM
      1 C           1.8604    1.0406   22.1020 C.ar    1  UNL1        0.0354
      2 C           2.4051   -0.3070   21.7316 C.ar    1  UNL1        0.0144
      3 C           2.2590   -0.8149   20.3278 C.ar    1  UNL1        0.0579
      4 CL          2.8037   -2.1625   19.9573 Cl      1  UNL1       -0.0822
      5 C           1.5683    0.0248   19.2944 C.ar    1  UNL1        0.0145
      6 C           1.0236    1.3724   19.6649 C.ar    1  UNL1        0.0384
      7 C           1.1697    1.8803   21.0687 C.ar    1  UNL1        0.1454
      8 N          -0.5890    0.2110   27.4033 N.pl3   1  UNL1       -0.3400
      9 C           0.5309    1.1989   27.2626 C.ar    1  UNL1        0.1674
     10 N           1.1173    2.0299   28.3651 N.ar    1  UNL1       -0.0623
     11 O           2.2098    2.8739   27.7785 O.2     1  UNL1       -0.3522
     12 C           2.2985    2.5646   26.3134 C.ar    1  UNL1        0.1781
     13 C           3.1901    3.0918   25.2285 C.ar    1  UNL1        0.0403
     14 C           3.0441    2.5838   23.8247 C.ar    1  UNL1        0.0033
     15 C           2.0064    1.5486   23.5059 C.ar    1  UNL1        0.0033
     16 C           1.1148    1.0214   24.5908 C.ar    1  UNL1        0.0061
     17 C           1.2609    1.5294   25.9945 C.ar    1  UNL1        0.0715
     18 H          -1.0070    0.0626   28.2823 H       1  UNL1        0.1438
     19 H          -0.9061   -0.2891   26.6168 H       1  UNL1        0.1438
     20 O           0.6250    3.2280   21.4392 O.3     1  UNL1       -0.4511
     21 C          -0.8181    3.3745   21.8214 C.ar    1  UNL1        0.1748
     22 C          -1.8928    3.1043   20.8105 C.ar    1  UNL1        0.0708
     23 C          -3.3359    3.2507   21.1928 C.ar    1  UNL1        0.1621
     24 F          -4.4107    2.9806   20.1819 F       1  UNL1       -0.2026
     25 C          -3.7042    3.6674   22.5859 C.ar    1  UNL1        0.1549
     26 C          -2.6294    3.9375   23.5968 C.ar    1  UNL1        0.0553
     27 C          -1.1863    3.7911   23.2145 C.ar    1  UNL1        0.1759
     28 F          -0.1116    4.0612   24.2254 F       1  UNL1       -0.2009
     29 S          -5.1472    3.8138   22.9682 S.O2    1  UNL1        0.0773
     30 O          -5.2055    5.1268   22.2453 O.2     1  UNL1       -0.1498
     31 O          -5.0890    2.5008   23.6911 O.2     1  UNL1       -0.1498
     32 N          -6.5903    3.9603   23.3504 N.pl3   1  UNL1       -0.1925
     33 H          -7.2798    3.4392   22.8789 H       1  UNL1        0.1758
     34 C          -6.9829    4.9007   24.4512 C.ar    1  UNL1        0.1977
     35 N          -6.1624    5.2316   25.6626 N.ar    1  UNL1       -0.1997
     36 C          -6.9372    6.2106   26.4939 C.ar    1  UNL1        0.2082
     37 N          -8.2366    6.4848   25.7963 N.ar    1  UNL1       -0.1840
     38 S          -8.2647    5.6752   24.5339 S.2     1  UNL1        0.0508
@<TRIPOS>BOND
     1     8     9    1
     2     9    10   ar
     3    10    11   ar
     4    11    12   ar
     5    12    13   ar
     6    13    14   ar
     7    14    15   ar
     8    15     1    1
     9     1     2   ar
    10     2     3   ar
    11     3     4    1
    12     3     5   ar
    13     5     6   ar
    14     6     7   ar
    15     7    20    1
    16    20    21    1
    17    21    22   ar
    18    22    23   ar
    19    23    24    1
    20    23    25   ar
    21    25    29    1
    22    29    30    2
    23    29    31    2
    24    29    32    1
    25    32    34    1
    26    34    35   ar
    27    35    36   ar
    28    36    37   ar
    29    37    38   ar
    30    25    26   ar
    31    26    27   ar
    32    27    28    1
    33    15    16   ar
    34    16    17   ar
    35    17     9   ar
    36    17    12   ar
    37     7     1   ar
    38    27    21   ar
    39    38    34   ar
    40     8    18    1
    41     8    19    1
    42    32    33    1
