@<TRIPOS>MOLECULE
*****
 29 31 0 0 0
SMALL
GASTEIGER

@<TRIPOS>ATOM
      1 N          -4.9440  -17.8093   20.8175 N.am    1  UNL1       -0.2681
      2 C          -5.6435  -18.9926   21.4178 C.2     1  UNL1        0.3077
      3 O          -4.9253  -20.3033   21.5451 O.2     1  UNL1       -0.2522
      4 N          -7.0612  -18.8652   21.8910 N.am    1  UNL1       -0.2640
      5 C          -7.7794  -17.5545   21.7638 C.3     1  UNL1        0.0953
      6 C          -9.1971  -17.4271   22.2369 C.3     1  UNL1        0.0260
      7 C          -9.8966  -18.6104   22.8373 C.3     1  UNL1        0.0257
      8 C          -9.1784  -19.9211   22.9645 C.3     1  UNL1        0.0260
      9 C          -7.7607  -20.0485   22.4913 C.3     1  UNL1        0.0953
     10 H          -5.4154  -16.9490   20.7340 H       1  UNL1        0.1564
     11 C          -2.3932  -17.6450   21.2830 C.ar    1  UNL1        0.0275
     12 C          -0.9756  -17.7724   20.8098 C.ar    1  UNL1        0.0024
     13 C          -0.6909  -18.1914   19.3979 C.ar    1  UNL1        0.0001
     14 C          -1.8239  -18.4831   18.4592 C.ar    1  UNL1        0.0013
     15 C          -3.2416  -18.3557   18.9324 C.ar    1  UNL1        0.0147
     16 C          -3.5262  -17.9367   20.3443 C.ar    1  UNL1        0.0526
     17 O          -3.5808  -16.0587   22.9632 O.co2   1  UNL1       -0.5446
     18 C          -2.6779  -17.2260   22.6949 C.2     1  UNL1        0.0741
     19 O          -2.0596  -17.9743   23.8384 O.co2   1  UNL1       -0.5446
     20 C         -11.3144  -18.4830   23.3104 C.ar    1  UNL1       -0.0185
     21 C         -11.6655  -18.8251   24.7280 C.ar    1  UNL1       -0.0043
     22 C         -13.0832  -18.6978   25.2012 C.ar    1  UNL1       -0.0003
     23 C         -14.1497  -18.2283   24.2568 C.ar    1  UNL1       -0.0001
     24 C         -13.7986  -17.8861   22.8392 C.ar    1  UNL1        0.0035
     25 C         -12.3809  -18.0134   22.3660 C.ar    1  UNL1        0.0675
     26 C         -12.0298  -17.6713   20.9484 C.3     1  UNL1        0.4183
     27 F         -11.6786  -17.3291   19.5308 F       1  UNL1       -0.1659
     28 F         -12.1855  -16.2127   21.2619 F       1  UNL1       -0.1659
     29 F         -11.8741  -19.1299   20.6349 F       1  UNL1       -0.1659
@<TRIPOS>UNITY_ATOM_ATTR
17 1
charge -1
@<TRIPOS>BOND
     1    17    18   ar
     2    18    19   ar
     3    18    11    1
     4    11    12   ar
     5    12    13   ar
     6    13    14   ar
     7    14    15   ar
     8    15    16   ar
     9    16     1    1
    10     1     2   am
    11     2     3    2
    12     2     4   am
    13     4     5    1
    14     5     6    1
    15     6     7    1
    16     7    20    1
    17    20    21   ar
    18    21    22   ar
    19    22    23   ar
    20    23    24   ar
    21    24    25   ar
    22    25    26    1
    23    26    27    1
    24    26    28    1
    25    26    29    1
    26     7     8    1
    27     8     9    1
    28    16    11   ar
    29     9     4    1
    30    25    20   ar
    31     1    10    1
@<TRIPOS>MOLECULE
*****
 29 31 0 0 0
SMALL
GASTEIGER

@<TRIPOS>ATOM
      1 N          -9.5452  -18.1724   22.5921 N.am    1  UNL1       -0.2681
      2 C          -8.4318  -17.5095   23.3477 C.2     1  UNL1        0.3077
      3 O          -8.7184  -16.8048   24.6405 O.2     1  UNL1       -0.2522
      4 N          -7.0319  -17.5512   22.8106 N.am    1  UNL1       -0.2640
      5 C          -6.7454  -18.2560   21.5178 C.3     1  UNL1        0.0953
      6 C          -5.3455  -18.2977   20.9806 C.3     1  UNL1        0.0260
      7 C          -4.2322  -17.6348   21.7362 C.3     1  UNL1        0.0257
      8 C          -4.5187  -16.9301   23.0290 C.3     1  UNL1        0.0260
      9 C          -5.9186  -16.8883   23.5662 C.3     1  UNL1        0.0953
     10 H          -9.3571  -18.6349   21.7436 H       1  UNL1        0.1564
     11 C         -11.9914  -17.3117   22.4332 C.ar    1  UNL1        0.0275
     12 C         -13.3912  -17.2699   22.9704 C.ar    1  UNL1        0.0024
     13 C         -13.7448  -18.0472   24.2036 C.ar    1  UNL1        0.0001
     14 C         -12.6986  -18.8662   24.8997 C.ar    1  UNL1        0.0013
     15 C         -11.2987  -18.9079   24.3625 C.ar    1  UNL1        0.0147
     16 C         -10.9451  -18.1306   23.1293 C.ar    1  UNL1        0.0526
     17 O         -12.6429  -16.3790   20.0975 O.co2   1  UNL1       -0.5446
     18 C         -11.6378  -16.5344   21.2000 C.2     1  UNL1        0.0741
     19 O         -10.2791  -15.9126   21.0692 O.co2   1  UNL1       -0.5446
     20 C          -2.8322  -17.6766   21.1991 C.ar    1  UNL1       -0.0185
     21 C          -1.9453  -16.4733   21.3228 C.ar    1  UNL1       -0.0043
     22 C          -0.5454  -16.5150   20.7857 C.ar    1  UNL1       -0.0003
     23 C          -0.0325  -17.7600   20.1248 C.ar    1  UNL1       -0.0001
     24 C          -0.9194  -18.9633   20.0011 C.ar    1  UNL1        0.0035
     25 C          -2.3193  -18.9216   20.5382 C.ar    1  UNL1        0.0675
     26 C          -3.2063  -20.1249   20.4145 C.3     1  UNL1        0.4183
     27 F          -4.0932  -21.3283   20.2908 F       1  UNL1       -0.1659
     28 F          -3.0111  -20.4187   21.8725 F       1  UNL1       -0.1659
     29 F          -3.4014  -19.8312   18.9566 F       1  UNL1       -0.1659
@<TRIPOS>UNITY_ATOM_ATTR
17 1
charge -1
@<TRIPOS>BOND
     1    17    18   ar
     2    18    19   ar
     3    18    11    1
     4    11    12   ar
     5    12    13   ar
     6    13    14   ar
     7    14    15   ar
     8    15    16   ar
     9    16     1    1
    10     1     2   am
    11     2     3    2
    12     2     4   am
    13     4     5    1
    14     5     6    1
    15     6     7    1
    16     7    20    1
    17    20    21   ar
    18    21    22   ar
    19    22    23   ar
    20    23    24   ar
    21    24    25   ar
    22    25    26    1
    23    26    27    1
    24    26    28    1
    25    26    29    1
    26     7     8    1
    27     8     9    1
    28    16    11   ar
    29     9     4    1
    30    25    20   ar
    31     1    10    1
@<TRIPOS>MOLECULE
*****
 29 31 0 0 0
SMALL
GASTEIGER

@<TRIPOS>ATOM
      1 N          -9.8457  -17.9033   23.1171 N.am    1  UNL1       -0.2681
      2 C          -9.3095  -18.7718   22.0179 C.2     1  UNL1        0.3077
      3 O         -10.2180  -19.7339   21.3114 O.2     1  UNL1       -0.2522
      4 N          -7.8648  -18.6783   21.6252 N.am    1  UNL1       -0.2640
      5 C          -6.9564  -17.7162   22.3317 C.3     1  UNL1        0.0953
      6 C          -5.5117  -17.6227   21.9391 C.3     1  UNL1        0.0260
      7 C          -4.9755  -18.4912   20.8399 C.3     1  UNL1        0.0257
      8 C          -5.8840  -19.4532   20.1334 C.3     1  UNL1        0.0260
      9 C          -7.3286  -19.5468   20.5261 C.3     1  UNL1        0.0953
     10 H          -9.2494  -17.2719   23.5808 H       1  UNL1        0.1564
     11 C         -12.3386  -17.3160   22.6806 C.ar    1  UNL1        0.0275
     12 C         -13.7832  -17.4096   23.0733 C.ar    1  UNL1        0.0024
     13 C         -14.1796  -18.1840   24.2952 C.ar    1  UNL1        0.0001
     14 C         -13.1314  -18.8648   25.1245 C.ar    1  UNL1        0.0013
     15 C         -11.6868  -18.7713   24.7317 C.ar    1  UNL1        0.0147
     16 C         -11.2904  -17.9969   23.5098 C.ar    1  UNL1        0.0526
     17 O         -10.6582  -15.7663   21.4458 O.co2   1  UNL1       -0.5446
     18 C         -11.9422  -16.5416   21.4586 C.2     1  UNL1        0.0741
     19 O         -12.8298  -16.5425   20.2495 O.co2   1  UNL1       -0.5446
     20 C          -3.5308  -18.3976   20.4472 C.ar    1  UNL1       -0.0185
     21 C          -3.1437  -18.4321   18.9984 C.ar    1  UNL1       -0.0043
     22 C          -1.6991  -18.3386   18.6057 C.ar    1  UNL1       -0.0003
     23 C          -0.6416  -18.2106   19.6617 C.ar    1  UNL1       -0.0001
     24 C          -1.0287  -18.1761   21.1105 C.ar    1  UNL1        0.0035
     25 C          -2.4733  -18.2696   21.5032 C.ar    1  UNL1        0.0675
     26 C          -2.8605  -18.2351   22.9520 C.3     1  UNL1        0.4183
     27 F          -3.2476  -18.2007   24.4008 F       1  UNL1       -0.1659
     28 F          -2.5433  -16.7699   23.0019 F       1  UNL1       -0.1659
     29 F          -3.1776  -19.7004   22.9021 F       1  UNL1       -0.1659
@<TRIPOS>UNITY_ATOM_ATTR
17 1
charge -1
@<TRIPOS>BOND
     1    17    18   ar
     2    18    19   ar
     3    18    11    1
     4    11    12   ar
     5    12    13   ar
     6    13    14   ar
     7    14    15   ar
     8    15    16   ar
     9    16     1    1
    10     1     2   am
    11     2     3    2
    12     2     4   am
    13     4     5    1
    14     5     6    1
    15     6     7    1
    16     7    20    1
    17    20    21   ar
    18    21    22   ar
    19    22    23   ar
    20    23    24   ar
    21    24    25   ar
    22    25    26    1
    23    26    27    1
    24    26    28    1
    25    26    29    1
    26     7     8    1
    27     8     9    1
    28    16    11   ar
    29     9     4    1
    30    25    20   ar
    31     1    10    1
@<TRIPOS>MOLECULE
*****
 29 31 0 0 0
SMALL
GASTEIGER

@<TRIPOS>ATOM
      1 N           6.5714   -5.2413   25.3766 N.am    1  UNL1       -0.2681
      2 C           7.3813   -4.7078   24.2323 C.2     1  UNL1        0.3077
      3 O           8.8426   -5.0314   24.1326 O.2     1  UNL1       -0.2522
      4 N           6.7300   -3.8507   23.1877 N.am    1  UNL1       -0.2640
      5 C           5.2687   -3.5271   23.2874 C.3     1  UNL1        0.0953
      6 C           4.6173   -2.6700   22.2429 C.3     1  UNL1        0.0260
      7 C           5.4273   -2.1366   21.0986 C.3     1  UNL1        0.0257
      8 C           6.8885   -2.4602   20.9989 C.3     1  UNL1        0.0260
      9 C           7.5399   -3.3172   22.0434 C.3     1  UNL1        0.0953
     10 H           5.6123   -5.0289   25.4420 H       1  UNL1        0.1564
     11 C           7.6107   -5.5051   27.7431 C.ar    1  UNL1        0.0275
     12 C           8.2620   -6.3622   28.7876 C.ar    1  UNL1        0.0024
     13 C           8.5253   -7.8126   28.5103 C.ar    1  UNL1        0.0001
     14 C           8.1374   -8.4059   27.1884 C.ar    1  UNL1        0.0013
     15 C           7.4861   -7.5488   26.1439 C.ar    1  UNL1        0.0147
     16 C           7.2227   -6.0984   26.4212 C.ar    1  UNL1        0.0526
     17 O           6.4823   -3.6577   29.1797 O.co2   1  UNL1       -0.5446
     18 C           7.3474   -4.0547   28.0204 C.2     1  UNL1        0.0741
     19 O           7.9492   -3.0011   27.1384 O.co2   1  UNL1       -0.5446
     20 C           4.7759   -1.2794   20.0540 C.ar    1  UNL1       -0.0185
     21 C           4.6101    0.1928   20.2884 C.ar    1  UNL1       -0.0043
     22 C           3.9588    1.0499   19.2439 C.ar    1  UNL1       -0.0003
     23 C           3.4733    0.4348   17.9649 C.ar    1  UNL1       -0.0001
     24 C           3.6391   -1.0375   17.7304 C.ar    1  UNL1        0.0035
     25 C           4.2904   -1.8946   18.7750 C.ar    1  UNL1        0.0675
     26 C           4.4563   -3.3668   18.5405 C.3     1  UNL1        0.4183
     27 F           4.6221   -4.8391   18.3061 F       1  UNL1       -0.1659
     28 F           3.1364   -3.6215   19.2061 F       1  UNL1       -0.1659
     29 F           5.7762   -3.1122   17.8749 F       1  UNL1       -0.1659
@<TRIPOS>UNITY_ATOM_ATTR
17 1
charge -1
@<TRIPOS>BOND
     1    17    18   ar
     2    18    19   ar
     3    18    11    1
     4    11    12   ar
     5    12    13   ar
     6    13    14   ar
     7    14    15   ar
     8    15    16   ar
     9    16     1    1
    10     1     2   am
    11     2     3    2
    12     2     4   am
    13     4     5    1
    14     5     6    1
    15     6     7    1
    16     7    20    1
    17    20    21   ar
    18    21    22   ar
    19    22    23   ar
    20    23    24   ar
    21    24    25   ar
    22    25    26    1
    23    26    27    1
    24    26    28    1
    25    26    29    1
    26     7     8    1
    27     8     9    1
    28    16    11   ar
    29     9     4    1
    30    25    20   ar
    31     1    10    1
@<TRIPOS>MOLECULE
*****
 29 31 0 0 0
SMALL
GASTEIGER

@<TRIPOS>ATOM
      1 N          -4.3024  -17.8940   21.6973 N.am    1  UNL1       -0.2681
      2 C          -5.2220  -19.0788   21.7193 C.2     1  UNL1        0.3077
      3 O          -4.7050  -20.4366   21.3466 O.2     1  UNL1       -0.2522
      4 N          -6.6588  -18.9058   22.1141 N.am    1  UNL1       -0.2640
      5 C          -7.1759  -17.5479   22.4869 C.3     1  UNL1        0.0953
      6 C          -8.6126  -17.3748   22.8816 C.3     1  UNL1        0.0260
      7 C          -9.5322  -18.5596   22.9037 C.3     1  UNL1        0.0257
      8 C          -9.0152  -19.9174   22.5309 C.3     1  UNL1        0.0260
      9 C          -7.5785  -20.0905   22.1361 C.3     1  UNL1        0.0953
     10 H          -4.6418  -17.0029   21.9419 H       1  UNL1        0.1564
     11 C          -2.4539  -17.8853   19.8716 C.ar    1  UNL1        0.0275
     12 C          -1.0172  -18.0584   19.4769 C.ar    1  UNL1        0.0024
     13 C           0.0078  -18.4132   20.5130 C.ar    1  UNL1        0.0001
     14 C          -0.4039  -18.5949   21.9439 C.ar    1  UNL1        0.0013
     15 C          -1.8406  -18.4219   22.3386 C.ar    1  UNL1        0.0147
     16 C          -2.8656  -18.0671   21.3025 C.ar    1  UNL1        0.0526
     17 O          -4.8456  -18.1461   18.8909 O.co2   1  UNL1       -0.5446
     18 C          -3.4788  -17.5305   18.8355 C.2     1  UNL1        0.0741
     19 O          -3.1371  -16.5601   17.7439 O.co2   1  UNL1       -0.5446
     20 C         -10.9690  -18.3866   23.2985 C.ar    1  UNL1       -0.0185
     21 C         -11.4335  -18.8326   24.6532 C.ar    1  UNL1       -0.0043
     22 C         -12.8701  -18.6596   25.0481 C.ar    1  UNL1       -0.0003
     23 C         -13.8424  -18.0405   24.0881 C.ar    1  UNL1       -0.0001
     24 C         -13.3779  -17.5945   22.7334 C.ar    1  UNL1        0.0035
     25 C         -11.9412  -17.7675   22.3386 C.ar    1  UNL1        0.0675
     26 C         -11.4768  -17.3215   20.9838 C.3     1  UNL1        0.4183
     27 F         -11.0123  -16.8755   19.6291 F       1  UNL1       -0.1659
     28 F         -11.6445  -18.7193   20.4661 F       1  UNL1       -0.1659
     29 F         -11.3091  -15.9237   21.5015 F       1  UNL1       -0.1659
@<TRIPOS>UNITY_ATOM_ATTR
17 1
charge -1
@<TRIPOS>BOND
     1    17    18   ar
     2    18    19   ar
     3    18    11    1
     4    11    12   ar
     5    12    13   ar
     6    13    14   ar
     7    14    15   ar
     8    15    16   ar
     9    16     1    1
    10     1     2   am
    11     2     3    2
    12     2     4   am
    13     4     5    1
    14     5     6    1
    15     6     7    1
    16     7    20    1
    17    20    21   ar
    18    21    22   ar
    19    22    23   ar
    20    23    24   ar
    21    24    25   ar
    22    25    26    1
    23    26    27    1
    24    26    28    1
    25    26    29    1
    26     7     8    1
    27     8     9    1
    28    16    11   ar
    29     9     4    1
    30    25    20   ar
    31     1    10    1
@<TRIPOS>MOLECULE
*****
 29 31 0 0 0
SMALL
GASTEIGER

@<TRIPOS>ATOM
      1 N           6.1611   -4.2634   26.0315 N.am    1  UNL1       -0.2681
      2 C           6.9896   -3.3824   25.1442 C.2     1  UNL1        0.3077
      3 O           8.3970   -3.0382   25.5323 O.2     1  UNL1       -0.2522
      4 N           6.4107   -2.8456   23.8687 N.am    1  UNL1       -0.2640
      5 C           5.0033   -3.1898   23.4806 C.3     1  UNL1        0.0953
      6 C           4.4244   -2.6530   22.2052 C.3     1  UNL1        0.0260
      7 C           5.2529   -1.7720   21.3179 C.3     1  UNL1        0.0257
      8 C           6.6603   -1.4278   21.7060 C.3     1  UNL1        0.0260
      9 C           7.2392   -1.9646   22.9814 C.3     1  UNL1        0.0953
     10 H           5.2373   -4.4893   25.7767 H       1  UNL1        0.1564
     11 C           7.3599   -6.1659   27.3328 C.ar    1  UNL1        0.0275
     12 C           7.9388   -6.7026   28.6083 C.ar    1  UNL1        0.0024
     13 C           7.8976   -5.8738   29.8578 C.ar    1  UNL1        0.0001
     14 C           7.2776   -4.5082   29.8319 C.ar    1  UNL1        0.0013
     15 C           6.6988   -3.9714   28.5565 C.ar    1  UNL1        0.0147
     16 C           6.7399   -4.8003   27.3069 C.ar    1  UNL1        0.0526
     17 O           6.9110   -8.4121   26.1070 O.co2   1  UNL1       -0.5446
     18 C           7.4011   -6.9947   26.0833 C.2     1  UNL1        0.0741
     19 O           7.9323   -6.4061   24.8100 O.co2   1  UNL1       -0.5446
     20 C           4.6740   -1.2352   20.0424 C.ar    1  UNL1       -0.0185
     21 C           4.2785    0.2086   19.9476 C.ar    1  UNL1       -0.0043
     22 C           3.6996    0.7455   18.6722 C.ar    1  UNL1       -0.0003
     23 C           3.5163   -0.1615   17.4916 C.ar    1  UNL1       -0.0001
     24 C           3.9118   -1.6053   17.5865 C.ar    1  UNL1        0.0035
     25 C           4.4906   -2.1422   18.8619 C.ar    1  UNL1        0.0675
     26 C           4.8861   -3.5860   18.9567 C.3     1  UNL1        0.4183
     27 F           5.2816   -5.0298   19.0515 F       1  UNL1       -0.1659
     28 F           6.3010   -3.2206   18.6182 F       1  UNL1       -0.1659
     29 F           3.4712   -3.9513   19.2952 F       1  UNL1       -0.1659
@<TRIPOS>UNITY_ATOM_ATTR
17 1
charge -1
@<TRIPOS>BOND
     1    17    18   ar
     2    18    19   ar
     3    18    11    1
     4    11    12   ar
     5    12    13   ar
     6    13    14   ar
     7    14    15   ar
     8    15    16   ar
     9    16     1    1
    10     1     2   am
    11     2     3    2
    12     2     4   am
    13     4     5    1
    14     5     6    1
    15     6     7    1
    16     7    20    1
    17    20    21   ar
    18    21    22   ar
    19    22    23   ar
    20    23    24   ar
    21    24    25   ar
    22    25    26    1
    23    26    27    1
    24    26    28    1
    25    26    29    1
    26     7     8    1
    27     8     9    1
    28    16    11   ar
    29     9     4    1
    30    25    20   ar
    31     1    10    1
@<TRIPOS>MOLECULE
*****
 29 31 0 0 0
SMALL
GASTEIGER

@<TRIPOS>ATOM
      1 N          -1.7133    2.3544   20.5096 N.am    1  UNL1       -0.2681
      2 C          -0.3423    2.6046   21.0644 C.2     1  UNL1        0.3077
      3 O          -0.0251    3.9179   21.7161 O.2     1  UNL1       -0.2522
      4 N           0.7115    1.5414   20.9676 N.am    1  UNL1       -0.2640
      5 C           0.3943    0.2282   20.3159 C.3     1  UNL1        0.0953
      6 C           1.4480   -0.8349   20.2191 C.3     1  UNL1        0.0260
      7 C           2.8190   -0.5848   20.7739 C.3     1  UNL1        0.0257
      8 C           3.1362    0.7285   21.4255 C.3     1  UNL1        0.0260
      9 C           2.0824    1.7916   21.5224 C.3     1  UNL1        0.0953
     10 H          -1.9215    1.4924   20.0819 H       1  UNL1        0.1564
     11 C          -3.0989    4.2561   19.4079 C.ar    1  UNL1        0.0275
     12 C          -4.1526    5.3191   19.5047 C.ar    1  UNL1        0.0024
     13 C          -4.8746    5.5436   20.8002 C.ar    1  UNL1        0.0001
     14 C          -4.5429    4.7051   21.9988 C.ar    1  UNL1        0.0013
     15 C          -3.4891    3.6420   21.9020 C.ar    1  UNL1        0.0147
     16 C          -2.7671    3.4175   20.6065 C.ar    1  UNL1        0.0526
     17 O          -3.1508    3.7110   16.8682 O.co2   1  UNL1       -0.5446
     18 C          -2.3768    4.0316   18.1124 C.2     1  UNL1        0.0741
     19 O          -0.8808    4.1276   18.0611 O.co2   1  UNL1       -0.5446
     20 C           3.8728   -1.6479   20.6770 C.ar    1  UNL1       -0.0185
     21 C           4.0214   -2.6588   21.7752 C.ar    1  UNL1       -0.0043
     22 C           5.0752   -3.7219   21.6784 C.ar    1  UNL1       -0.0003
     23 C           5.9803   -3.7740   20.4835 C.ar    1  UNL1       -0.0001
     24 C           5.8316   -2.7632   19.3853 C.ar    1  UNL1        0.0035
     25 C           4.7779   -1.7001   19.4821 C.ar    1  UNL1        0.0675
     26 C           4.6293   -0.6892   18.3839 C.3     1  UNL1        0.4183
     27 F           4.4806    0.3217   17.2857 F       1  UNL1       -0.1659
     28 F           3.6606   -1.5941   17.6820 F       1  UNL1       -0.1659
     29 F           5.5979    0.2158   19.0858 F       1  UNL1       -0.1659
@<TRIPOS>UNITY_ATOM_ATTR
17 1
charge -1
@<TRIPOS>BOND
     1    17    18   ar
     2    18    19   ar
     3    18    11    1
     4    11    12   ar
     5    12    13   ar
     6    13    14   ar
     7    14    15   ar
     8    15    16   ar
     9    16     1    1
    10     1     2   am
    11     2     3    2
    12     2     4   am
    13     4     5    1
    14     5     6    1
    15     6     7    1
    16     7    20    1
    17    20    21   ar
    18    21    22   ar
    19    22    23   ar
    20    23    24   ar
    21    24    25   ar
    22    25    26    1
    23    26    27    1
    24    26    28    1
    25    26    29    1
    26     7     8    1
    27     8     9    1
    28    16    11   ar
    29     9     4    1
    30    25    20   ar
    31     1    10    1
@<TRIPOS>MOLECULE
*****
 29 31 0 0 0
SMALL
GASTEIGER

@<TRIPOS>ATOM
      1 N         -11.7308   -3.8785   18.3832 N.am    1  UNL1       -0.2681
      2 C         -12.9435   -3.6631   19.2393 C.2     1  UNL1        0.3077
      3 O         -13.4067   -4.7448   20.1694 O.2     1  UNL1       -0.2522
      4 N         -13.6930   -2.3658   19.1652 N.am    1  UNL1       -0.2640
      5 C         -13.2298   -1.2840   18.2351 C.3     1  UNL1        0.0953
      6 C         -13.9793    0.0131   18.1610 C.3     1  UNL1        0.0260
      7 C         -15.1920    0.2285   19.0170 C.3     1  UNL1        0.0257
      8 C         -15.6552   -0.8533   19.9472 C.3     1  UNL1        0.0260
      9 C         -14.9057   -2.1504   20.0213 C.3     1  UNL1        0.0953
     10 H         -11.4267   -3.1684   17.7727 H       1  UNL1        0.1564
     11 C         -11.4801   -6.3742   17.7058 C.ar    1  UNL1        0.0275
     12 C         -10.7306   -7.6713   17.7799 C.ar    1  UNL1        0.0024
     13 C          -9.4821   -7.7700   18.6054 C.ar    1  UNL1        0.0001
     14 C          -8.9831   -6.5715   19.3568 C.ar    1  UNL1        0.0013
     15 C          -9.7327   -5.2744   19.2828 C.ar    1  UNL1        0.0147
     16 C         -10.9812   -5.1757   18.4573 C.ar    1  UNL1        0.0526
     17 O         -13.7635   -7.3589   16.9532 O.co2   1  UNL1       -0.5446
     18 C         -12.7287   -6.2755   16.8803 C.2     1  UNL1        0.0741
     19 O         -12.9424   -5.0934   15.9820 O.co2   1  UNL1       -0.5446
     20 C         -15.9416    1.5258   18.9430 C.ar    1  UNL1       -0.0185
     21 C         -15.5528    2.6685   19.8335 C.ar    1  UNL1       -0.0043
     22 C         -16.3023    3.9657   19.7594 C.ar    1  UNL1       -0.0003
     23 C         -17.4406    4.1201   18.7949 C.ar    1  UNL1       -0.0001
     24 C         -17.8294    2.9774   17.9044 C.ar    1  UNL1        0.0035
     25 C         -17.0799    1.6802   17.9784 C.ar    1  UNL1        0.0675
     26 C         -17.4687    0.5375   17.0879 C.3     1  UNL1        0.4183
     27 F         -17.8575   -0.6053   16.1974 F       1  UNL1       -0.1659
     28 F         -16.5054    1.0222   16.0453 F       1  UNL1       -0.1659
     29 F         -18.4320    0.0528   18.1306 F       1  UNL1       -0.1659
@<TRIPOS>UNITY_ATOM_ATTR
17 1
charge -1
@<TRIPOS>BOND
     1    17    18   ar
     2    18    19   ar
     3    18    11    1
     4    11    12   ar
     5    12    13   ar
     6    13    14   ar
     7    14    15   ar
     8    15    16   ar
     9    16     1    1
    10     1     2   am
    11     2     3    2
    12     2     4   am
    13     4     5    1
    14     5     6    1
    15     6     7    1
    16     7    20    1
    17    20    21   ar
    18    21    22   ar
    19    22    23   ar
    20    23    24   ar
    21    24    25   ar
    22    25    26    1
    23    26    27    1
    24    26    28    1
    25    26    29    1
    26     7     8    1
    27     8     9    1
    28    16    11   ar
    29     9     4    1
    30    25    20   ar
    31     1    10    1
@<TRIPOS>MOLECULE
*****
 29 31 0 0 0
SMALL
GASTEIGER

@<TRIPOS>ATOM
      1 N           2.4005    0.4129   26.8891 N.am    1  UNL1       -0.2681
      2 C           2.7387    1.4652   25.8752 C.2     1  UNL1        0.3077
      3 O           2.8427    2.9024   26.2920 O.2     1  UNL1       -0.2522
      4 N           2.9728    1.0804   24.4444 N.am    1  UNL1       -0.2640
      5 C           2.8688   -0.3567   24.0276 C.3     1  UNL1        0.0953
      6 C           3.1029   -0.7415   22.5968 C.3     1  UNL1        0.0260
      7 C           3.4411    0.3108   21.5829 C.3     1  UNL1        0.0257
      8 C           3.5452    1.7480   21.9997 C.3     1  UNL1        0.0260
      9 C           3.3110    2.1328   23.4304 C.3     1  UNL1        0.0953
     10 H           2.3322   -0.5304   26.6155 H       1  UNL1        0.1564
     11 C           0.7684    0.8627   28.8600 C.ar    1  UNL1        0.0275
     12 C           0.5343    1.2475   30.2907 C.ar    1  UNL1        0.0024
     13 C           1.6981    1.5672   31.1815 C.ar    1  UNL1        0.0001
     14 C           3.0960    1.5021   30.6414 C.ar    1  UNL1        0.0013
     15 C           3.3301    1.1174   29.2107 C.ar    1  UNL1        0.0147
     16 C           2.1663    0.7976   28.3200 C.ar    1  UNL1        0.0526
     17 O          -1.3480   -0.5532   28.3444 O.co2   1  UNL1       -0.5446
     18 C          -0.3953    0.5430   27.9692 C.2     1  UNL1        0.0741
     19 O          -0.6065    1.3195   26.7034 O.co2   1  UNL1       -0.5446
     20 C           3.6753   -0.0740   20.1521 C.ar    1  UNL1       -0.0185
     21 C           5.0509   -0.4589   19.6944 C.ar    1  UNL1       -0.0043
     22 C           5.2851   -0.8436   18.2637 C.ar    1  UNL1       -0.0003
     23 C           4.1436   -0.8435   17.2906 C.ar    1  UNL1       -0.0001
     24 C           2.7680   -0.4586   17.7482 C.ar    1  UNL1        0.0035
     25 C           2.5338   -0.0738   19.1789 C.ar    1  UNL1        0.0675
     26 C           1.1581    0.3111   19.6365 C.3     1  UNL1        0.4183
     27 F          -0.2175    0.6960   20.0942 F       1  UNL1       -0.1659
     28 F           0.8884   -1.1128   20.0234 F       1  UNL1       -0.1659
     29 F           1.4279    1.7350   19.2497 F       1  UNL1       -0.1659
@<TRIPOS>UNITY_ATOM_ATTR
17 1
charge -1
@<TRIPOS>BOND
     1    17    18   ar
     2    18    19   ar
     3    18    11    1
     4    11    12   ar
     5    12    13   ar
     6    13    14   ar
     7    14    15   ar
     8    15    16   ar
     9    16     1    1
    10     1     2   am
    11     2     3    2
    12     2     4   am
    13     4     5    1
    14     5     6    1
    15     6     7    1
    16     7    20    1
    17    20    21   ar
    18    21    22   ar
    19    22    23   ar
    20    23    24   ar
    21    24    25   ar
    22    25    26    1
    23    26    27    1
    24    26    28    1
    25    26    29    1
    26     7     8    1
    27     8     9    1
    28    16    11   ar
    29     9     4    1
    30    25    20   ar
    31     1    10    1
