@<TRIPOS>MOLECULE
*****
 30 33 0 0 0
SMALL
GASTEIGER

@<TRIPOS>ATOM
      1 C          -6.6852  -16.4891   23.9877 C.3     1  UNL1        0.1025
      2 C          -7.7899  -15.9211   24.8286 C.3     1  UNL1        0.0259
      3 C          -9.2209  -16.1799   24.4612 C.3     1  UNL1        0.0450
      4 C          -9.5473  -17.0068   23.2530 C.ar    1  UNL1        0.0335
      5 C         -10.8538  -17.4274   22.6477 C.ar    1  UNL1       -0.0035
      6 C         -10.5565  -18.2553   21.4328 C.ar    1  UNL1        0.0134
      7 C         -11.4502  -18.9381   20.4402 C.ar    1  UNL1        0.0035
      8 C         -10.8537  -19.7119   19.3020 C.ar    1  UNL1        0.0297
      9 C          -9.3635  -19.8030   19.1564 C.ar    1  UNL1        0.1416
     10 F          -8.7670  -20.5768   18.0183 F       1  UNL1       -0.2041
     11 C          -8.4699  -19.1202   20.1490 C.ar    1  UNL1        0.0468
     12 C          -9.0664  -18.3464   21.2872 C.ar    1  UNL1        0.0616
     13 N          -8.4427  -17.5747   22.4121 N.ar    1  UNL1       -0.3294
     14 C          -7.0116  -17.3159   22.7795 C.3     1  UNL1        0.1233
     15 C          -4.9240  -15.5399   25.6452 C.3     1  UNL1        0.1149
     16 N          -5.2541  -16.2302   24.3551 N.3     1  UNL1       -0.1535
     17 S          -4.1531  -16.6617   23.4323 S.O2    1  UNL1        0.0633
     18 O          -4.1568  -15.3046   22.7933 O.2     1  UNL1       -0.1528
     19 O          -4.1494  -18.0188   24.0712 O.2     1  UNL1       -0.1528
     20 C          -3.0521  -17.0932   22.5094 C.ar    1  UNL1        0.1223
     21 C          -2.2058  -16.0650   21.8192 C.ar    1  UNL1        0.0222
     22 C          -1.1048  -16.4965   20.8964 C.ar    1  UNL1        0.0310
     23 C          -0.8501  -17.9562   20.6638 C.ar    1  UNL1        0.1402
     24 F           0.2509  -18.3877   19.7409 F       1  UNL1       -0.2042
     25 C          -1.6964  -18.9846   21.3540 C.ar    1  UNL1        0.0310
     26 C          -2.7974  -18.5531   22.2768 C.ar    1  UNL1        0.0222
     27 C         -12.2180  -17.0809   23.1663 C.3     1  UNL1        0.0691
     28 C         -12.9551  -18.0490   24.0435 C.2     1  UNL1        0.0548
     29 O         -12.1939  -18.9582   24.9622 O.co2   1  UNL1       -0.5488
     30 O         -14.4533  -18.1078   24.0020 O.co2   1  UNL1       -0.5488
@<TRIPOS>UNITY_ATOM_ATTR
29 1
charge -1
@<TRIPOS>BOND
     1    15    16    1
     2     1    16    1
     3     1     2    1
     4     2     3    1
     5     3     4    1
     6     4     5   ar
     7     5    27    1
     8    27    28    1
     9    28    29   ar
    10    28    30   ar
    11     5     6   ar
    12     6     7   ar
    13     7     8   ar
    14     8     9   ar
    15     9    10    1
    16     9    11   ar
    17    11    12   ar
    18    12    13   ar
    19    13    14    1
    20    16    17    1
    21    17    18    2
    22    17    19    2
    23    17    20    1
    24    20    21   ar
    25    21    22   ar
    26    22    23   ar
    27    23    24    1
    28    23    25   ar
    29    25    26   ar
    30    14     1    1
    31    26    20   ar
    32    13     4   ar
    33    12     6   ar
@<TRIPOS>MOLECULE
*****
 30 33 0 0 0
SMALL
GASTEIGER

@<TRIPOS>ATOM
      1 C          -6.8643  -19.1758   21.0240 C.3     1  UNL1        0.1025
      2 C          -8.2094  -19.1457   20.3609 C.3     1  UNL1        0.0259
      3 C          -9.3255  -18.3461   20.9649 C.3     1  UNL1        0.0450
      4 C          -9.0965  -17.5765   22.2319 C.ar    1  UNL1        0.0335
      5 C          -9.9994  -16.7055   23.0544 C.ar    1  UNL1       -0.0035
      6 C          -9.2122  -16.1974   24.2257 C.ar    1  UNL1        0.0134
      7 C          -9.5810  -15.2995   25.3693 C.ar    1  UNL1        0.0035
      8 C          -8.5604  -14.9585   26.4145 C.ar    1  UNL1        0.0297
      9 C          -7.1711  -15.5154   26.3160 C.ar    1  UNL1        0.1416
     10 F          -6.1505  -15.1744   27.3611 F       1  UNL1       -0.2041
     11 C          -6.8023  -16.4133   25.1723 C.ar    1  UNL1        0.0468
     12 C          -7.8229  -16.7543   24.1272 C.ar    1  UNL1        0.0616
     13 N          -7.7514  -17.6066   22.8950 N.ar    1  UNL1       -0.3294
     14 C          -6.6353  -18.4063   22.2910 C.3     1  UNL1        0.1233
     15 C          -6.0070  -21.3655   19.9193 C.3     1  UNL1        0.1149
     16 N          -5.7481  -19.9755   20.4201 N.3     1  UNL1       -0.1535
     17 S          -4.3730  -19.3851   20.3170 S.O2    1  UNL1        0.0633
     18 O          -4.8550  -18.4491   19.2485 O.2     1  UNL1       -0.1528
     19 O          -3.8910  -20.3211   21.3855 O.2     1  UNL1       -0.1528
     20 C          -2.9979  -18.7947   20.2139 C.ar    1  UNL1        0.1223
     21 C          -2.4725  -18.3455   18.8827 C.ar    1  UNL1        0.0222
     22 C          -1.0974  -17.7551   18.7796 C.ar    1  UNL1        0.0310
     23 C          -0.2478  -17.6140   20.0077 C.ar    1  UNL1        0.1402
     24 F           1.1273  -17.0236   19.9046 F       1  UNL1       -0.2042
     25 C          -0.7732  -18.0633   21.3389 C.ar    1  UNL1        0.0310
     26 C          -2.1483  -18.6537   21.4420 C.ar    1  UNL1        0.0222
     27 C         -11.4369  -16.3970   22.7575 C.3     1  UNL1        0.0691
     28 C         -12.4260  -17.5132   22.5973 C.2     1  UNL1        0.0548
     29 O         -13.0032  -17.8157   21.2462 O.co2   1  UNL1       -0.5488
     30 O         -12.8379  -18.3269   23.7881 O.co2   1  UNL1       -0.5488
@<TRIPOS>UNITY_ATOM_ATTR
29 1
charge -1
@<TRIPOS>BOND
     1    15    16    1
     2     1    16    1
     3     1     2    1
     4     2     3    1
     5     3     4    1
     6     4     5   ar
     7     5    27    1
     8    27    28    1
     9    28    29   ar
    10    28    30   ar
    11     5     6   ar
    12     6     7   ar
    13     7     8   ar
    14     8     9   ar
    15     9    10    1
    16     9    11   ar
    17    11    12   ar
    18    12    13   ar
    19    13    14    1
    20    16    17    1
    21    17    18    2
    22    17    19    2
    23    17    20    1
    24    20    21   ar
    25    21    22   ar
    26    22    23   ar
    27    23    24    1
    28    23    25   ar
    29    25    26   ar
    30    14     1    1
    31    26    20   ar
    32    13     4   ar
    33    12     6   ar
@<TRIPOS>MOLECULE
*****
 30 33 0 0 0
SMALL
GASTEIGER

@<TRIPOS>ATOM
      1 C          -6.4964  -16.5574   23.9078 C.3     1  UNL1        0.1025
      2 C          -5.1233  -16.0407   24.2198 C.3     1  UNL1        0.0259
      3 C          -3.9224  -16.6642   23.5726 C.3     1  UNL1        0.0450
      4 C          -4.0946  -17.8045   22.6134 C.ar    1  UNL1        0.0335
      5 C          -3.1054  -18.6134   21.8277 C.ar    1  UNL1       -0.0035
      6 C          -3.8672  -19.6300   21.0302 C.ar    1  UNL1        0.0134
      7 C          -3.4201  -20.6968   20.0752 C.ar    1  UNL1        0.0035
      8 C          -4.4330  -21.5831   19.4129 C.ar    1  UNL1        0.0297
      9 C          -5.8931  -21.4026   19.7057 C.ar    1  UNL1        0.1416
     10 F          -6.9060  -22.2888   19.0435 F       1  UNL1       -0.2041
     11 C          -6.3402  -20.3357   20.6608 C.ar    1  UNL1        0.0468
     12 C          -5.3273  -19.4495   21.3230 C.ar    1  UNL1        0.0616
     13 N          -5.4678  -18.3213   22.3014 N.ar    1  UNL1       -0.3294
     14 C          -6.6687  -17.6977   22.9487 C.3     1  UNL1        0.1233
     15 C          -7.5236  -14.8095   25.5326 C.3     1  UNL1        0.1149
     16 N          -7.6974  -15.9339   24.5551 N.3     1  UNL1       -0.1535
     17 S          -9.0722  -16.4347   24.2247 S.O2    1  UNL1        0.0633
     18 O          -9.0707  -17.2635   25.4749 O.2     1  UNL1       -0.1528
     19 O          -9.0738  -15.6058   22.9745 O.2     1  UNL1       -0.1528
     20 C         -10.4470  -16.9355   23.8944 C.ar    1  UNL1        0.1223
     21 C         -11.3058  -16.1829   22.9217 C.ar    1  UNL1        0.0222
     22 C         -12.6805  -16.6837   22.5913 C.ar    1  UNL1        0.0310
     23 C         -13.1966  -17.9372   23.2336 C.ar    1  UNL1        0.1402
     24 F         -14.5714  -18.4380   22.9033 F       1  UNL1       -0.2042
     25 C         -12.3378  -18.6898   24.2064 C.ar    1  UNL1        0.0310
     26 C         -10.9630  -18.1890   24.5367 C.ar    1  UNL1        0.0222
     27 C          -1.6159  -18.4366   21.8378 C.3     1  UNL1        0.0691
     28 C          -0.9204  -17.8643   20.6383 C.2     1  UNL1        0.0548
     29 O          -0.9245  -16.3826   20.4049 O.co2   1  UNL1       -0.5488
     30 O          -0.2208  -18.7738   19.6722 O.co2   1  UNL1       -0.5488
@<TRIPOS>UNITY_ATOM_ATTR
29 1
charge -1
@<TRIPOS>BOND
     1    15    16    1
     2     1    16    1
     3     1     2    1
     4     2     3    1
     5     3     4    1
     6     4     5   ar
     7     5    27    1
     8    27    28    1
     9    28    29   ar
    10    28    30   ar
    11     5     6   ar
    12     6     7   ar
    13     7     8   ar
    14     8     9   ar
    15     9    10    1
    16     9    11   ar
    17    11    12   ar
    18    12    13   ar
    19    13    14    1
    20    16    17    1
    21    17    18    2
    22    17    19    2
    23    17    20    1
    24    20    21   ar
    25    21    22   ar
    26    22    23   ar
    27    23    24    1
    28    23    25   ar
    29    25    26   ar
    30    14     1    1
    31    26    20   ar
    32    13     4   ar
    33    12     6   ar
@<TRIPOS>MOLECULE
*****
 30 33 0 0 0
SMALL
GASTEIGER

@<TRIPOS>ATOM
      1 C           0.5363    2.2852   19.9432 C.3     1  UNL1        0.1025
      2 C           0.7780    1.7354   18.5687 C.3     1  UNL1        0.0259
      3 C           1.6420    0.5228   18.3872 C.3     1  UNL1        0.0450
      4 C           2.2643   -0.1401   19.5802 C.ar    1  UNL1        0.0335
      5 C           3.1552   -1.3398   19.7109 C.ar    1  UNL1       -0.0035
      6 C           3.4640   -1.5315   21.1661 C.ar    1  UNL1        0.0134
      7 C           4.2922   -2.5509   21.8906 C.ar    1  UNL1        0.0035
      8 C           4.4205   -2.4891   23.3839 C.ar    1  UNL1        0.0297
      9 C           3.7205   -1.4079   24.1527 C.ar    1  UNL1        0.1416
     10 F           3.8487   -1.3460   25.6459 F       1  UNL1       -0.2041
     11 C           2.8923   -0.3884   23.4281 C.ar    1  UNL1        0.0468
     12 C           2.7641   -0.4503   21.9349 C.ar    1  UNL1        0.0616
     13 N           2.0226    0.4097   20.9547 N.ar    1  UNL1       -0.3294
     14 C           1.1586    1.6223   21.1362 C.3     1  UNL1        0.1233
     15 C          -0.1347    4.6953   19.2422 C.3     1  UNL1        0.1149
     16 N          -0.3278    3.4979   20.1247 N.3     1  UNL1       -0.1535
     17 S          -1.3850    3.5130   21.1887 S.O2    1  UNL1        0.0633
     18 O          -0.6127    4.5558   21.9412 O.2     1  UNL1       -0.1528
     19 O          -2.1572    2.4702   20.4363 O.2     1  UNL1       -0.1528
     20 C          -2.4421    3.5282   22.2528 C.ar    1  UNL1        0.1223
     21 C          -2.0528    3.6634   23.6950 C.ar    1  UNL1        0.0222
     22 C          -3.1099    3.6786   24.7590 C.ar    1  UNL1        0.0310
     23 C          -4.5565    3.5585   24.3809 C.ar    1  UNL1        0.1402
     24 F          -5.6136    3.5737   25.4449 F       1  UNL1       -0.2042
     25 C          -4.9459    3.4232   22.9386 C.ar    1  UNL1        0.0310
     26 C          -3.8887    3.4081   21.8745 C.ar    1  UNL1        0.0222
     27 C           3.6502   -2.1973   18.5841 C.3     1  UNL1        0.0691
     28 C           4.5254   -1.6050   17.5195 C.2     1  UNL1        0.0548
     29 O           6.0159   -1.6041   17.6885 O.co2   1  UNL1       -0.5488
     30 O           3.9101   -1.0137   16.2860 O.co2   1  UNL1       -0.5488
@<TRIPOS>UNITY_ATOM_ATTR
29 1
charge -1
@<TRIPOS>BOND
     1    15    16    1
     2     1    16    1
     3     1     2    1
     4     2     3    1
     5     3     4    1
     6     4     5   ar
     7     5    27    1
     8    27    28    1
     9    28    29   ar
    10    28    30   ar
    11     5     6   ar
    12     6     7   ar
    13     7     8   ar
    14     8     9   ar
    15     9    10    1
    16     9    11   ar
    17    11    12   ar
    18    12    13   ar
    19    13    14    1
    20    16    17    1
    21    17    18    2
    22    17    19    2
    23    17    20    1
    24    20    21   ar
    25    21    22   ar
    26    22    23   ar
    27    23    24    1
    28    23    25   ar
    29    25    26   ar
    30    14     1    1
    31    26    20   ar
    32    13     4   ar
    33    12     6   ar
@<TRIPOS>MOLECULE
*****
 30 33 0 0 0
SMALL
GASTEIGER

@<TRIPOS>ATOM
      1 C           0.7269    2.3094   20.1050 C.3     1  UNL1        0.1025
      2 C           0.9139    1.7736   18.7165 C.3     1  UNL1        0.0259
      3 C           1.7298    0.5347   18.4943 C.3     1  UNL1        0.0450
      4 C           2.3588   -0.1683   19.6605 C.ar    1  UNL1        0.0335
      5 C           3.2101   -1.4002   19.7498 C.ar    1  UNL1       -0.0035
      6 C           3.5491   -1.6257   21.1934 C.ar    1  UNL1        0.0134
      7 C           4.3593   -2.6847   21.8806 C.ar    1  UNL1        0.0035
      8 C           4.5278   -2.6512   23.3708 C.ar    1  UNL1        0.0297
      9 C           3.8862   -1.5587   24.1737 C.ar    1  UNL1        0.1416
     10 F           4.0546   -1.5252   25.6639 F       1  UNL1       -0.2041
     11 C           3.0760   -0.4997   23.4865 C.ar    1  UNL1        0.0468
     12 C           2.9075   -0.5332   21.9964 C.ar    1  UNL1        0.0616
     13 N           2.1719    0.3675   21.0490 N.ar    1  UNL1       -0.3294
     14 C           1.3559    1.6064   21.2712 C.3     1  UNL1        0.1233
     15 C           0.5509    4.7734   20.9100 C.3     1  UNL1        0.1149
     16 N          -0.0891    3.5483   20.3273 N.3     1  UNL1       -0.1535
     17 S          -1.5451    3.5621   19.9668 S.O2    1  UNL1        0.0633
     18 O          -1.2615    4.5319   18.8582 O.2     1  UNL1       -0.1528
     19 O          -1.8287    2.5923   21.0755 O.2     1  UNL1       -0.1528
     20 C          -3.0010    3.5758   19.6064 C.ar    1  UNL1        0.1223
     21 C          -4.0373    3.3255   20.6616 C.ar    1  UNL1        0.0222
     22 C          -5.4933    3.3392   20.3011 C.ar    1  UNL1        0.0310
     23 C          -5.9130    3.6033   18.8855 C.ar    1  UNL1        0.1402
     24 F          -7.3690    3.6171   18.5251 F       1  UNL1       -0.2042
     25 C          -4.8767    3.8537   17.8303 C.ar    1  UNL1        0.0310
     26 C          -3.4208    3.8400   18.1907 C.ar    1  UNL1        0.0222
     27 C           3.6457   -2.2563   18.5976 C.3     1  UNL1        0.0691
     28 C           4.5374   -1.6861   17.5347 C.2     1  UNL1        0.0548
     29 O           6.0278   -1.7616   17.6861 O.co2   1  UNL1       -0.5488
     30 O           3.9385   -1.0405   16.3204 O.co2   1  UNL1       -0.5488
@<TRIPOS>UNITY_ATOM_ATTR
29 1
charge -1
@<TRIPOS>BOND
     1    15    16    1
     2     1    16    1
     3     1     2    1
     4     2     3    1
     5     3     4    1
     6     4     5   ar
     7     5    27    1
     8    27    28    1
     9    28    29   ar
    10    28    30   ar
    11     5     6   ar
    12     6     7   ar
    13     7     8   ar
    14     8     9   ar
    15     9    10    1
    16     9    11   ar
    17    11    12   ar
    18    12    13   ar
    19    13    14    1
    20    16    17    1
    21    17    18    2
    22    17    19    2
    23    17    20    1
    24    20    21   ar
    25    21    22   ar
    26    22    23   ar
    27    23    24    1
    28    23    25   ar
    29    25    26   ar
    30    14     1    1
    31    26    20   ar
    32    13     4   ar
    33    12     6   ar
@<TRIPOS>MOLECULE
*****
 30 33 0 0 0
SMALL
GASTEIGER

@<TRIPOS>ATOM
      1 C          -8.7263  -19.1226   20.6228 C.3     1  UNL1        0.1025
      2 C          -7.9028  -19.9637   19.6931 C.3     1  UNL1        0.0259
      3 C          -6.4151  -20.0386   19.8687 C.3     1  UNL1        0.0450
      4 C          -5.7508  -19.2724   20.9740 C.ar    1  UNL1        0.0335
      5 C          -4.3145  -19.1527   21.3900 C.ar    1  UNL1       -0.0035
      6 C          -4.2505  -18.2376   22.5767 C.ar    1  UNL1        0.0134
      7 C          -3.1009  -17.7527   23.4094 C.ar    1  UNL1        0.0035
      8 C          -3.3478  -16.8219   24.5595 C.ar    1  UNL1        0.0297
      9 C          -4.7444  -16.3760   24.8769 C.ar    1  UNL1        0.1416
     10 F          -4.9914  -15.4452   26.0270 F       1  UNL1       -0.2041
     11 C          -5.8941  -16.8609   24.0442 C.ar    1  UNL1        0.0468
     12 C          -5.6471  -17.7917   22.8942 C.ar    1  UNL1        0.0616
     13 N          -6.5743  -18.4312   21.9036 N.ar    1  UNL1       -0.3294
     14 C          -8.0621  -18.3564   21.7280 C.3     1  UNL1        0.1233
     15 C         -10.8133  -19.1436   19.0754 C.3     1  UNL1        0.1149
     16 N         -10.2142  -19.0477   20.4472 N.3     1  UNL1       -0.1535
     17 S         -11.1029  -18.8769   21.6435 S.O2    1  UNL1        0.0633
     18 O         -11.3165  -17.4376   21.2792 O.2     1  UNL1       -0.1528
     19 O         -10.8892  -20.3163   22.0077 O.2     1  UNL1       -0.1528
     20 C         -11.9916  -18.7062   22.8397 C.ar    1  UNL1        0.1223
     21 C         -13.3563  -18.1044   22.6804 C.ar    1  UNL1        0.0222
     22 C         -14.2450  -17.9336   23.8767 C.ar    1  UNL1        0.0310
     23 C         -13.7689  -18.3646   25.2323 C.ar    1  UNL1        0.1402
     24 F         -14.6576  -18.1938   26.4285 F       1  UNL1       -0.2042
     25 C         -12.4042  -18.9664   25.3916 C.ar    1  UNL1        0.0310
     26 C         -11.5155  -19.1372   24.1954 C.ar    1  UNL1        0.0222
     27 C          -3.1474  -19.8293   20.7343 C.3     1  UNL1        0.0691
     28 C          -2.0982  -19.0111   20.0417 C.2     1  UNL1        0.0548
     29 O          -2.4064  -18.3505   18.7308 O.co2   1  UNL1       -0.5488
     30 O          -0.7408  -18.8534   20.6602 O.co2   1  UNL1       -0.5488
@<TRIPOS>UNITY_ATOM_ATTR
29 1
charge -1
@<TRIPOS>BOND
     1    15    16    1
     2     1    16    1
     3     1     2    1
     4     2     3    1
     5     3     4    1
     6     4     5   ar
     7     5    27    1
     8    27    28    1
     9    28    29   ar
    10    28    30   ar
    11     5     6   ar
    12     6     7   ar
    13     7     8   ar
    14     8     9   ar
    15     9    10    1
    16     9    11   ar
    17    11    12   ar
    18    12    13   ar
    19    13    14    1
    20    16    17    1
    21    17    18    2
    22    17    19    2
    23    17    20    1
    24    20    21   ar
    25    21    22   ar
    26    22    23   ar
    27    23    24    1
    28    23    25   ar
    29    25    26   ar
    30    14     1    1
    31    26    20   ar
    32    13     4   ar
    33    12     6   ar
@<TRIPOS>MOLECULE
*****
 30 33 0 0 0
SMALL
GASTEIGER

@<TRIPOS>ATOM
      1 C           0.0592    2.5756   21.6244 C.3     1  UNL1        0.1025
      2 C           1.0468    2.2155   22.6943 C.3     1  UNL1        0.0259
      3 C           0.6702    2.3533   24.1397 C.3     1  UNL1        0.0450
      4 C          -0.6941    2.8511   24.5151 C.ar    1  UNL1        0.0335
      5 C          -1.3448    3.0888   25.8456 C.ar    1  UNL1       -0.0035
      6 C          -2.7346    3.5958   25.5978 C.ar    1  UNL1        0.0134
      7 C          -3.8374    3.9984   26.5315 C.ar    1  UNL1        0.0035
      8 C          -5.1486    4.4767   25.9815 C.ar    1  UNL1        0.0297
      9 C          -5.3568    4.5523   24.4980 C.ar    1  UNL1        0.1416
     10 F          -6.6678    5.0306   23.9480 F       1  UNL1       -0.2041
     11 C          -4.2539    4.1497   23.5643 C.ar    1  UNL1        0.0468
     12 C          -2.9428    3.6715   24.1143 C.ar    1  UNL1        0.0616
     13 N          -1.6817    3.2112   23.4451 N.ar    1  UNL1       -0.3294
     14 C          -1.3051    3.0735   21.9998 C.3     1  UNL1        0.1233
     15 C          -0.0817    3.4219   19.1720 C.3     1  UNL1        0.1149
     16 N           0.4358    2.4379   20.1789 N.3     1  UNL1       -0.1535
     17 S           1.3299    1.3162   19.7405 S.O2    1  UNL1        0.0633
     18 O           2.4250    2.3006   19.4547 O.2     1  UNL1       -0.1528
     19 O           0.2349    0.3317   20.0262 O.2     1  UNL1       -0.1528
     20 C           2.2240    0.1944   19.3020 C.ar    1  UNL1        0.1223
     21 C           2.9890    0.3037   18.0164 C.ar    1  UNL1        0.0222
     22 C           3.8831   -0.8180   17.5780 C.ar    1  UNL1        0.0310
     23 C           4.0123   -2.0491   18.4251 C.ar    1  UNL1        0.1402
     24 F           4.9064   -3.1709   17.9867 F       1  UNL1       -0.2042
     25 C           3.2473   -2.1585   19.7108 C.ar    1  UNL1        0.0310
     26 C           2.3532   -1.0367   20.1493 C.ar    1  UNL1        0.0222
     27 C          -0.7161    2.8597   27.1881 C.3     1  UNL1        0.0691
     28 C          -0.4651    1.4616   27.6699 C.2     1  UNL1        0.0548
     29 O          -1.5219    0.7353   28.4480 O.co2   1  UNL1       -0.5488
     30 O           0.8429    0.7898   27.3736 O.co2   1  UNL1       -0.5488
@<TRIPOS>UNITY_ATOM_ATTR
29 1
charge -1
@<TRIPOS>BOND
     1    15    16    1
     2     1    16    1
     3     1     2    1
     4     2     3    1
     5     3     4    1
     6     4     5   ar
     7     5    27    1
     8    27    28    1
     9    28    29   ar
    10    28    30   ar
    11     5     6   ar
    12     6     7   ar
    13     7     8   ar
    14     8     9   ar
    15     9    10    1
    16     9    11   ar
    17    11    12   ar
    18    12    13   ar
    19    13    14    1
    20    16    17    1
    21    17    18    2
    22    17    19    2
    23    17    20    1
    24    20    21   ar
    25    21    22   ar
    26    22    23   ar
    27    23    24    1
    28    23    25   ar
    29    25    26   ar
    30    14     1    1
    31    26    20   ar
    32    13     4   ar
    33    12     6   ar
@<TRIPOS>MOLECULE
*****
 30 33 0 0 0
SMALL
GASTEIGER

@<TRIPOS>ATOM
      1 C           2.3544    0.2130   19.2739 C.3     1  UNL1        0.1025
      2 C           1.5783    1.0385   18.2909 C.3     1  UNL1        0.0259
      3 C           0.5238    1.9882   18.7766 C.3     1  UNL1        0.0450
      4 C           0.2454    2.1125   20.2453 C.ar    1  UNL1        0.0335
      5 C          -0.7264    2.9575   21.0147 C.ar    1  UNL1       -0.0035
      6 C          -0.5508    2.6542   22.4731 C.ar    1  UNL1        0.0134
      7 C          -1.2350    3.1846   23.6981 C.ar    1  UNL1        0.0035
      8 C          -0.8391    2.6827   25.0551 C.ar    1  UNL1        0.0297
      9 C           0.2412    1.6503   25.1871 C.ar    1  UNL1        0.1416
     10 F           0.6372    1.1484   26.5440 F       1  UNL1       -0.2041
     11 C           0.9254    1.1199   23.9621 C.ar    1  UNL1        0.0468
     12 C           0.5294    1.6218   22.6052 C.ar    1  UNL1        0.0616
     13 N           1.0215    1.2871   21.2283 N.ar    1  UNL1       -0.3294
     14 C           2.0759    0.3373   20.7426 C.3     1  UNL1        0.1233
     15 C           3.7058   -0.8418   17.3217 C.3     1  UNL1        0.1149
     16 N           3.4089   -0.7369   18.7882 N.3     1  UNL1       -0.1535
     17 S           4.1665   -1.5818   19.7691 S.O2    1  UNL1        0.0633
     18 O           5.1908   -0.4955   19.9137 O.2     1  UNL1       -0.1528
     19 O           3.1422   -2.6680   19.6246 O.2     1  UNL1       -0.1528
     20 C           4.9241   -2.4267   20.7500 C.ar    1  UNL1        0.1223
     21 C           6.2406   -3.0305   20.3601 C.ar    1  UNL1        0.0222
     22 C           6.9981   -3.8754   21.3410 C.ar    1  UNL1        0.0310
     23 C           6.4392   -4.1165   22.7119 C.ar    1  UNL1        0.1402
     24 F           7.1968   -4.9614   23.6928 F       1  UNL1       -0.2042
     25 C           5.1226   -3.5126   23.1019 C.ar    1  UNL1        0.0310
     26 C           4.3650   -2.6677   22.1210 C.ar    1  UNL1        0.0222
     27 C          -1.7022    3.9342   20.4285 C.3     1  UNL1        0.0691
     28 C          -3.1008    3.4965   20.1083 C.2     1  UNL1        0.0548
     29 O          -3.9207    2.7874   21.1452 O.co2   1  UNL1       -0.5488
     30 O          -3.6794    3.7679   18.7513 O.co2   1  UNL1       -0.5488
@<TRIPOS>UNITY_ATOM_ATTR
29 1
charge -1
@<TRIPOS>BOND
     1    15    16    1
     2     1    16    1
     3     1     2    1
     4     2     3    1
     5     3     4    1
     6     4     5   ar
     7     5    27    1
     8    27    28    1
     9    28    29   ar
    10    28    30   ar
    11     5     6   ar
    12     6     7   ar
    13     7     8   ar
    14     8     9   ar
    15     9    10    1
    16     9    11   ar
    17    11    12   ar
    18    12    13   ar
    19    13    14    1
    20    16    17    1
    21    17    18    2
    22    17    19    2
    23    17    20    1
    24    20    21   ar
    25    21    22   ar
    26    22    23   ar
    27    23    24    1
    28    23    25   ar
    29    25    26   ar
    30    14     1    1
    31    26    20   ar
    32    13     4   ar
    33    12     6   ar
@<TRIPOS>MOLECULE
*****
 30 33 0 0 0
SMALL
GASTEIGER

@<TRIPOS>ATOM
      1 C          -0.6994    2.9827   22.0639 C.3     1  UNL1        0.1025
      2 C          -0.3648    2.8335   23.5184 C.3     1  UNL1        0.0259
      3 C          -1.4081    3.1097   24.5601 C.3     1  UNL1        0.0450
      4 C          -2.7860    3.5351   24.1473 C.ar    1  UNL1        0.0335
      5 C          -4.0121    3.8742   24.9422 C.ar    1  UNL1       -0.0035
      6 C          -5.1045    4.2330   23.9789 C.ar    1  UNL1        0.0134
      7 C          -6.5297    4.6514   24.1880 C.ar    1  UNL1        0.0035
      8 C          -7.4040    4.9525   23.0068 C.ar    1  UNL1        0.0297
      9 C          -6.8530    4.8352   21.6166 C.ar    1  UNL1        0.1416
     10 F          -7.7272    5.1363   20.4355 F       1  UNL1       -0.2041
     11 C          -5.4277    4.4167   21.4075 C.ar    1  UNL1        0.0468
     12 C          -4.5535    4.1156   22.5887 C.ar    1  UNL1        0.0616
     13 N          -3.1206    3.6843   22.6928 N.ar    1  UNL1       -0.3294
     14 C          -2.0773    3.4081   21.6511 C.3     1  UNL1        0.1233
     15 C           0.5534    3.6745   19.8955 C.3     1  UNL1        0.1149
     16 N           0.3439    2.7066   21.0221 N.3     1  UNL1       -0.1535
     17 S           1.1776    1.4625   21.1070 S.O2    1  UNL1        0.0633
     18 O           2.3953    2.2968   21.3739 O.2     1  UNL1       -0.1528
     19 O          -0.0401    0.6283   20.8401 O.2     1  UNL1       -0.1528
     20 C           2.0113    0.2185   21.1918 C.ar    1  UNL1        0.1223
     21 C           2.2031   -0.6402   19.9770 C.ar    1  UNL1        0.0222
     22 C           3.0368   -1.8843   20.0619 C.ar    1  UNL1        0.0310
     23 C           3.6788   -2.2697   21.3616 C.ar    1  UNL1        0.1402
     24 F           4.5125   -3.5137   21.4464 F       1  UNL1       -0.2042
     25 C           3.4871   -1.4110   22.5765 C.ar    1  UNL1        0.0310
     26 C           2.6533   -0.1669   22.4916 C.ar    1  UNL1        0.0222
     27 C          -4.1259    3.8574   26.4378 C.3     1  UNL1        0.0691
     28 C          -4.3044    5.1423   27.1909 C.2     1  UNL1        0.0548
     29 O          -5.6738    5.5720   27.6269 O.co2   1  UNL1       -0.5488
     30 O          -3.1136    5.9975   27.5078 O.co2   1  UNL1       -0.5488
@<TRIPOS>UNITY_ATOM_ATTR
29 1
charge -1
@<TRIPOS>BOND
     1    15    16    1
     2     1    16    1
     3     1     2    1
     4     2     3    1
     5     3     4    1
     6     4     5   ar
     7     5    27    1
     8    27    28    1
     9    28    29   ar
    10    28    30   ar
    11     5     6   ar
    12     6     7   ar
    13     7     8   ar
    14     8     9   ar
    15     9    10    1
    16     9    11   ar
    17    11    12   ar
    18    12    13   ar
    19    13    14    1
    20    16    17    1
    21    17    18    2
    22    17    19    2
    23    17    20    1
    24    20    21   ar
    25    21    22   ar
    26    22    23   ar
    27    23    24    1
    28    23    25   ar
    29    25    26   ar
    30    14     1    1
    31    26    20   ar
    32    13     4   ar
    33    12     6   ar
