@<TRIPOS>MOLECULE
*****
 29 32 0 0 0
SMALL
GASTEIGER

@<TRIPOS>ATOM
      1 C         -13.9664   -4.8854   18.6573 C.3     1  UNL1        0.0510
      2 C         -15.0443   -5.9117   18.4701 C.3     1  UNL1        0.0489
      3 C         -14.6876   -7.3658   18.3794 C.3     1  UNL1        0.1364
      4 C         -16.1220   -6.9380   18.2830 C.3     1  UNL1        0.0571
      5 C         -17.1998   -7.9643   18.0959 C.3     1  UNL1        0.0722
      6 N         -16.8432   -9.4184   18.0051 N.3     1  UNL1       -0.2973
      7 C         -15.4088   -9.8463   18.1015 C.3     1  UNL1        0.0722
      8 C         -14.3310   -8.8200   18.2886 C.3     1  UNL1        0.0571
      9 O         -13.2531   -7.7937   18.4758 O.3     1  UNL1       -0.4828
     10 C         -12.1753   -6.7674   18.6629 C.ar    1  UNL1        0.1345
     11 C         -10.7408   -7.1952   18.7593 C.ar    1  UNL1        0.0366
     12 C          -9.6631   -6.1689   18.9464 C.ar    1  UNL1        0.0031
     13 C         -10.0197   -4.7148   19.0372 C.ar    1  UNL1       -0.0001
     14 C         -11.4541   -4.2869   18.9408 C.ar    1  UNL1       -0.0010
     15 C         -12.5320   -5.3132   18.7537 C.ar    1  UNL1        0.0156
     16 H         -17.1898   -9.7510   17.1053 H       1  UNL1        0.1233
     17 C         -15.0363   -0.5229   18.9295 C.ar    1  UNL1        0.0536
     18 C         -15.0552   -1.3781   20.1617 C.ar    1  UNL1        0.0042
     19 C         -14.6985   -2.8322   20.0710 C.ar    1  UNL1       -0.0038
     20 C         -14.3230   -3.4312   18.7480 C.ar    1  UNL1       -0.0182
     21 C         -14.3042   -2.5760   17.5158 C.ar    1  UNL1       -0.0038
     22 C         -14.6608   -1.1219   17.6065 C.ar    1  UNL1        0.0042
     23 N         -16.8326    1.3523   19.0133 N.am    1  UNL1       -0.2761
     24 C         -15.3930    0.9313   19.0203 C.2     1  UNL1        0.2490
     25 O         -14.3098    1.9644   19.1181 O.2     1  UNL1       -0.2699
     26 C         -17.2783    3.4746   20.4441 C.3     1  UNL1        0.0233
     27 C         -17.1893    2.8064   19.1040 C.3     1  UNL1        0.0938
     28 C         -17.9157    0.3191   18.9155 C.3     1  UNL1        0.0938
     29 C         -18.5938   -0.1766   20.1582 C.3     1  UNL1        0.0233
@<TRIPOS>BOND
     1    26    27    1
     2    27    23    1
     3    23    28    1
     4    28    29    1
     5    23    24   am
     6    24    25    2
     7    24    17    1
     8    17    18   ar
     9    18    19   ar
    10    19    20   ar
    11     1    20    1
    12     1     2    1
    13     2     3    1
    14     3     4    1
    15     4     5    1
    16     5     6    1
    17     6     7    1
    18     7     8    1
    19     3     9    1
    20     9    10    1
    21    10    11   ar
    22    11    12   ar
    23    12    13   ar
    24    13    14   ar
    25    14    15   ar
    26    20    21   ar
    27    21    22   ar
    28    22    17   ar
    29    15     1    1
    30     8     3    1
    31    15    10   ar
    32     6    16    1
@<TRIPOS>MOLECULE
*****
 29 32 0 0 0
SMALL
GASTEIGER

@<TRIPOS>ATOM
      1 C          -7.5781  -17.2057   23.0335 C.3     1  UNL1        0.0510
      2 C          -8.7868  -17.4425   22.1773 C.3     1  UNL1        0.0489
      3 C         -10.1358  -16.9762   22.6386 C.3     1  UNL1        0.1364
      4 C          -9.9954  -17.6792   21.3210 C.3     1  UNL1        0.0571
      5 C         -11.2041  -17.9160   20.4648 C.3     1  UNL1        0.0722
      6 N         -12.5530  -17.4498   20.9262 N.3     1  UNL1       -0.2973
      7 C         -12.6934  -16.7468   22.2438 C.3     1  UNL1        0.0722
      8 C         -11.4848  -16.5100   23.1000 C.3     1  UNL1        0.0571
      9 O         -10.2761  -16.2732   23.9563 O.3     1  UNL1       -0.4828
     10 C          -9.0675  -16.0365   24.8125 C.ar    1  UNL1        0.1345
     11 C          -9.2078  -15.3335   26.1302 C.ar    1  UNL1        0.0366
     12 C          -7.9992  -15.0967   26.9864 C.ar    1  UNL1        0.0031
     13 C          -6.6502  -15.5629   26.5250 C.ar    1  UNL1       -0.0001
     14 C          -6.5099  -16.2659   25.2074 C.ar    1  UNL1       -0.0010
     15 C          -7.7185  -16.5027   24.3511 C.ar    1  UNL1        0.0156
     16 H         -13.1515  -18.2747   20.9674 H       1  UNL1        0.1233
     17 C          -3.5312  -18.6043   21.6494 C.ar    1  UNL1        0.0536
     18 C          -3.6377  -17.5446   22.7056 C.ar    1  UNL1        0.0042
     19 C          -4.9866  -17.0784   23.1670 C.ar    1  UNL1       -0.0038
     20 C          -6.2292  -17.6719   22.5722 C.ar    1  UNL1       -0.0182
     21 C          -6.1227  -18.7317   21.5159 C.ar    1  UNL1       -0.0038
     22 C          -4.7737  -19.1979   21.0545 C.ar    1  UNL1        0.0042
     23 N          -1.3895  -18.2371   20.2252 N.am    1  UNL1       -0.2761
     24 C          -2.1822  -19.0705   21.1880 C.2     1  UNL1        0.2490
     25 O          -1.6259  -20.3703   21.6895 O.2     1  UNL1       -0.2699
     26 C           1.1900  -17.9367   20.1487 C.3     1  UNL1        0.0233
     27 C          -0.0405  -18.7034   19.7639 C.3     1  UNL1        0.0938
     28 C          -1.9458  -16.9374   19.7238 C.3     1  UNL1        0.0938
     29 C          -2.7822  -16.9101   18.4790 C.3     1  UNL1        0.0233
@<TRIPOS>BOND
     1    26    27    1
     2    27    23    1
     3    23    28    1
     4    28    29    1
     5    23    24   am
     6    24    25    2
     7    24    17    1
     8    17    18   ar
     9    18    19   ar
    10    19    20   ar
    11     1    20    1
    12     1     2    1
    13     2     3    1
    14     3     4    1
    15     4     5    1
    16     5     6    1
    17     6     7    1
    18     7     8    1
    19     3     9    1
    20     9    10    1
    21    10    11   ar
    22    11    12   ar
    23    12    13   ar
    24    13    14   ar
    25    14    15   ar
    26    20    21   ar
    27    21    22   ar
    28    22    17   ar
    29    15     1    1
    30     8     3    1
    31    15    10   ar
    32     6    16    1
@<TRIPOS>MOLECULE
*****
 29 32 0 0 0
SMALL
GASTEIGER

@<TRIPOS>ATOM
      1 C           6.7451   -3.7881   25.2583 C.3     1  UNL1        0.0510
      2 C           6.4275   -3.1680   26.5868 C.3     1  UNL1        0.0489
      3 C           6.7724   -3.8923   27.8542 C.3     1  UNL1        0.1364
      4 C           6.1099   -2.5479   27.9152 C.3     1  UNL1        0.0571
      5 C           5.7924   -1.9279   29.2436 C.3     1  UNL1        0.0722
      6 N           6.1374   -2.6522   30.5110 N.3     1  UNL1       -0.2973
      7 C           6.7999   -3.9966   30.4500 C.3     1  UNL1        0.0722
      8 C           7.1174   -4.6166   29.1216 C.3     1  UNL1        0.0571
      9 O           7.4350   -5.2367   27.7932 O.3     1  UNL1       -0.4828
     10 C           7.7525   -5.8567   26.4648 C.ar    1  UNL1        0.1345
     11 C           8.4151   -7.2012   26.4038 C.ar    1  UNL1        0.0366
     12 C           8.7326   -7.8212   25.0754 C.ar    1  UNL1        0.0031
     13 C           8.3877   -7.0969   23.8080 C.ar    1  UNL1       -0.0001
     14 C           7.7251   -5.7525   23.8689 C.ar    1  UNL1       -0.0010
     15 C           7.4076   -5.1324   25.1974 C.ar    1  UNL1        0.0156
     16 H           5.2656   -2.7767   31.0256 H       1  UNL1        0.1233
     17 C           5.7101   -1.6152   21.4561 C.ar    1  UNL1        0.0536
     18 C           7.0999   -1.5302   22.0140 C.ar    1  UNL1        0.0042
     19 C           7.4449   -2.2545   23.2814 C.ar    1  UNL1       -0.0038
     20 C           6.4001   -3.0638   23.9909 C.ar    1  UNL1       -0.0182
     21 C           5.0102   -3.1488   23.4330 C.ar    1  UNL1       -0.0038
     22 C           4.6653   -2.4245   22.1656 C.ar    1  UNL1        0.0042
     23 N           5.4309   -1.6084   18.8731 N.am    1  UNL1       -0.2761
     24 C           5.3652   -0.8909   20.1886 C.2     1  UNL1        0.2490
     25 O           4.9545    0.5511   20.2368 O.2     1  UNL1       -0.2699
     26 C           3.6585   -0.8057   17.1513 C.3     1  UNL1        0.0233
     27 C           5.0859   -0.8841   17.6056 C.3     1  UNL1        0.0938
     28 C           5.8416   -3.0503   18.8249 C.3     1  UNL1        0.0938
     29 C           4.7977   -4.1262   18.7734 C.3     1  UNL1        0.0233
@<TRIPOS>BOND
     1    26    27    1
     2    27    23    1
     3    23    28    1
     4    28    29    1
     5    23    24   am
     6    24    25    2
     7    24    17    1
     8    17    18   ar
     9    18    19   ar
    10    19    20   ar
    11     1    20    1
    12     1     2    1
    13     2     3    1
    14     3     4    1
    15     4     5    1
    16     5     6    1
    17     6     7    1
    18     7     8    1
    19     3     9    1
    20     9    10    1
    21    10    11   ar
    22    11    12   ar
    23    12    13   ar
    24    13    14   ar
    25    14    15   ar
    26    20    21   ar
    27    21    22   ar
    28    22    17   ar
    29    15     1    1
    30     8     3    1
    31    15    10   ar
    32     6    16    1
@<TRIPOS>MOLECULE
*****
 29 32 0 0 0
SMALL
GASTEIGER

@<TRIPOS>ATOM
      1 C           2.2973   -0.0398   22.4900 C.3     1  UNL1        0.0510
      2 C           3.1606   -1.2607   22.3708 C.3     1  UNL1        0.0489
      3 C           3.4493   -1.8462   21.0203 C.3     1  UNL1        0.1364
      4 C           4.0239   -2.4815   22.2516 C.3     1  UNL1        0.0571
      5 C           4.8871   -3.7024   22.1323 C.3     1  UNL1        0.0722
      6 N           5.1758   -4.2879   20.7818 N.3     1  UNL1       -0.2973
      7 C           4.6011   -3.6526   19.5505 C.3     1  UNL1        0.0722
      8 C           3.7379   -2.4317   19.6698 C.3     1  UNL1        0.0571
      9 O           2.8746   -1.2108   19.7889 O.3     1  UNL1       -0.4828
     10 C           2.0113    0.0101   19.9082 C.ar    1  UNL1        0.1345
     11 C           1.4367    0.6455   18.6768 C.ar    1  UNL1        0.0366
     12 C           0.5734    1.8663   18.7961 C.ar    1  UNL1        0.0031
     13 C           0.2848    2.4519   20.1466 C.ar    1  UNL1       -0.0001
     14 C           0.8594    1.8165   21.3779 C.ar    1  UNL1       -0.0010
     15 C           1.7227    0.5956   21.2587 C.ar    1  UNL1        0.0156
     16 H           4.8398   -5.2508   20.8004 H       1  UNL1        0.1233
     17 C           1.4314    1.7168   26.5415 C.ar    1  UNL1        0.0536
     18 C           0.3213    1.5382   25.5486 C.ar    1  UNL1        0.0042
     19 C           0.6100    0.9527   24.1981 C.ar    1  UNL1       -0.0038
     20 C           2.0087    0.5458   23.8405 C.ar    1  UNL1       -0.0182
     21 C           3.1189    0.7243   24.8333 C.ar    1  UNL1       -0.0038
     22 C           2.8302    1.3098   26.1838 C.ar    1  UNL1        0.0042
     23 N           0.5898    1.4342   28.9832 N.am    1  UNL1       -0.2761
     24 C           1.1428    2.3023   27.8920 C.2     1  UNL1        0.2490
     25 O           1.4071    3.7559   28.1513 O.2     1  UNL1       -0.2699
     26 C           1.2977    1.8696   31.4448 C.3     1  UNL1        0.0233
     27 C           0.3012    2.0198   30.3337 C.3     1  UNL1        0.0938
     28 C           0.3255   -0.0194   28.7239 C.3     1  UNL1        0.0938
     29 C          -1.0816   -0.5389   28.7322 C.3     1  UNL1        0.0233
@<TRIPOS>BOND
     1    26    27    1
     2    27    23    1
     3    23    28    1
     4    28    29    1
     5    23    24   am
     6    24    25    2
     7    24    17    1
     8    17    18   ar
     9    18    19   ar
    10    19    20   ar
    11     1    20    1
    12     1     2    1
    13     2     3    1
    14     3     4    1
    15     4     5    1
    16     5     6    1
    17     6     7    1
    18     7     8    1
    19     3     9    1
    20     9    10    1
    21    10    11   ar
    22    11    12   ar
    23    12    13   ar
    24    13    14   ar
    25    14    15   ar
    26    20    21   ar
    27    21    22   ar
    28    22    17   ar
    29    15     1    1
    30     8     3    1
    31    15    10   ar
    32     6    16    1
@<TRIPOS>MOLECULE
*****
 29 32 0 0 0
SMALL
GASTEIGER

@<TRIPOS>ATOM
      1 C         -14.0771   -4.8669   18.4565 C.3     1  UNL1        0.0510
      2 C         -15.1298   -5.9244   18.3018 C.3     1  UNL1        0.0489
      3 C         -14.7442   -7.3739   18.3144 C.3     1  UNL1        0.1364
      4 C         -16.1823   -6.9818   18.1472 C.3     1  UNL1        0.0571
      5 C         -17.2348   -8.0392   17.9925 C.3     1  UNL1        0.0722
      6 N         -16.8492   -9.4888   18.0052 N.3     1  UNL1       -0.2973
      7 C         -15.4111   -9.8809   18.1724 C.3     1  UNL1        0.0722
      8 C         -14.3586   -8.8235   18.3271 C.3     1  UNL1        0.0571
      9 O         -13.3060   -7.7660   18.4818 O.3     1  UNL1       -0.4828
     10 C         -12.2534   -6.7086   18.6364 C.ar    1  UNL1        0.1345
     11 C         -10.8152   -7.1006   18.8037 C.ar    1  UNL1        0.0366
     12 C          -9.7627   -6.0432   18.9584 C.ar    1  UNL1        0.0031
     13 C         -10.1483   -4.5937   18.9457 C.ar    1  UNL1       -0.0001
     14 C         -11.5864   -4.2016   18.7784 C.ar    1  UNL1       -0.0010
     15 C         -12.6390   -5.2590   18.6238 C.ar    1  UNL1        0.0156
     16 H         -17.1609   -9.8841   17.1181 H       1  UNL1        0.1233
     17 C         -15.2339   -0.5183   18.4185 C.ar    1  UNL1        0.0536
     18 C         -15.0704   -1.2395   19.7235 C.ar    1  UNL1        0.0042
     19 C         -14.6848   -2.6891   19.7362 C.ar    1  UNL1       -0.0038
     20 C         -14.4627   -3.4174   18.4438 C.ar    1  UNL1       -0.0182
     21 C         -14.6262   -2.6962   17.1387 C.ar    1  UNL1       -0.0038
     22 C         -15.0118   -1.2466   17.1261 C.ar    1  UNL1        0.0042
     23 N         -14.6068    1.9735   18.0340 N.am    1  UNL1       -0.2761
     24 C         -15.6195    0.9312   18.4059 C.2     1  UNL1        0.2490
     25 O         -17.0177    1.3385   18.7651 O.2     1  UNL1       -0.2699
     26 C         -15.6619    4.0105   16.8144 C.3     1  UNL1        0.0233
     27 C         -14.9924    3.4230   18.0214 C.3     1  UNL1        0.0938
     28 C         -13.2085    1.5662   17.6748 C.3     1  UNL1        0.0938
     29 C         -12.7349    1.6814   16.2562 C.3     1  UNL1        0.0233
@<TRIPOS>BOND
     1    26    27    1
     2    27    23    1
     3    23    28    1
     4    28    29    1
     5    23    24   am
     6    24    25    2
     7    24    17    1
     8    17    18   ar
     9    18    19   ar
    10    19    20   ar
    11     1    20    1
    12     1     2    1
    13     2     3    1
    14     3     4    1
    15     4     5    1
    16     5     6    1
    17     6     7    1
    18     7     8    1
    19     3     9    1
    20     9    10    1
    21    10    11   ar
    22    11    12   ar
    23    12    13   ar
    24    13    14   ar
    25    14    15   ar
    26    20    21   ar
    27    21    22   ar
    28    22    17   ar
    29    15     1    1
    30     8     3    1
    31    15    10   ar
    32     6    16    1
@<TRIPOS>MOLECULE
*****
 29 32 0 0 0
SMALL
GASTEIGER

@<TRIPOS>ATOM
      1 C          -1.7316    3.1850   26.1425 C.3     1  UNL1        0.0510
      2 C          -2.9965    3.9256   26.4615 C.3     1  UNL1        0.0489
      3 C          -3.8287    4.5003   25.3537 C.3     1  UNL1        0.1364
      4 C          -4.2613    4.6663   26.7803 C.3     1  UNL1        0.0571
      5 C          -5.5261    5.4069   27.0992 C.3     1  UNL1        0.0722
      6 N          -6.3583    5.9816   25.9914 N.3     1  UNL1       -0.2973
      7 C          -5.9258    5.8156   24.5648 C.3     1  UNL1        0.0722
      8 C          -4.6610    5.0750   24.2459 C.3     1  UNL1        0.0571
      9 O          -3.3961    4.3343   23.9270 O.3     1  UNL1       -0.4828
     10 C          -2.1313    3.5937   23.6081 C.ar    1  UNL1        0.1345
     11 C          -1.6987    3.4277   22.1815 C.ar    1  UNL1        0.0366
     12 C          -0.4339    2.6870   21.8626 C.ar    1  UNL1        0.0031
     13 C           0.3983    2.1124   22.9704 C.ar    1  UNL1       -0.0001
     14 C          -0.0342    2.2783   24.3970 C.ar    1  UNL1       -0.0010
     15 C          -1.2991    3.0190   24.7159 C.ar    1  UNL1        0.0156
     16 H          -6.4259    6.9846   26.1638 H       1  UNL1        0.1233
     17 C           0.7651    1.4610   29.4658 C.ar    1  UNL1        0.0536
     18 C          -0.3885    0.6790   28.9113 C.ar    1  UNL1        0.0042
     19 C          -1.2207    1.2536   27.8035 C.ar    1  UNL1       -0.0038
     20 C          -0.8994    2.6103   27.2503 C.ar    1  UNL1       -0.0182
     21 C           0.2543    3.3924   27.8049 C.ar    1  UNL1       -0.0038
     22 C           1.0865    2.8178   28.9126 C.ar    1  UNL1        0.0042
     23 N           2.6042   -0.1851   30.2769 N.am    1  UNL1       -0.2761
     24 C           1.5973    0.8863   30.5736 C.2     1  UNL1        0.2490
     25 O           1.4226    1.3832   31.9782 O.2     1  UNL1       -0.2699
     26 C           4.8262   -0.2475   31.6218 C.3     1  UNL1        0.0233
     27 C           3.4365   -0.7598   31.3846 C.3     1  UNL1        0.0938
     28 C           2.7789   -0.6820   28.8723 C.3     1  UNL1        0.0938
     29 C           3.7783   -0.0285   27.9645 C.3     1  UNL1        0.0233
@<TRIPOS>BOND
     1    26    27    1
     2    27    23    1
     3    23    28    1
     4    28    29    1
     5    23    24   am
     6    24    25    2
     7    24    17    1
     8    17    18   ar
     9    18    19   ar
    10    19    20   ar
    11     1    20    1
    12     1     2    1
    13     2     3    1
    14     3     4    1
    15     4     5    1
    16     5     6    1
    17     6     7    1
    18     7     8    1
    19     3     9    1
    20     9    10    1
    21    10    11   ar
    22    11    12   ar
    23    12    13   ar
    24    13    14   ar
    25    14    15   ar
    26    20    21   ar
    27    21    22   ar
    28    22    17   ar
    29    15     1    1
    30     8     3    1
    31    15    10   ar
    32     6    16    1
@<TRIPOS>MOLECULE
*****
 29 32 0 0 0
SMALL
GASTEIGER

@<TRIPOS>ATOM
      1 C          -0.2001    2.1670   21.4741 C.3     1  UNL1        0.0510
      2 C          -1.2981    2.9125   20.7749 C.3     1  UNL1        0.0489
      3 C          -2.3049    3.6869   21.5727 C.3     1  UNL1        0.1364
      4 C          -2.3960    3.6579   20.0758 C.3     1  UNL1        0.0571
      5 C          -3.4940    4.4033   19.3767 C.3     1  UNL1        0.0722
      6 N          -4.5008    5.1778   20.1745 N.3     1  UNL1       -0.2973
      7 C          -4.4097    5.2068   21.6714 C.3     1  UNL1        0.0722
      8 C          -3.3118    4.4613   22.3705 C.3     1  UNL1        0.0571
      9 O          -2.2138    3.7158   23.0697 O.3     1  UNL1       -0.4828
     10 C          -1.1158    2.9704   23.7688 C.ar    1  UNL1        0.1345
     11 C          -1.0247    2.9994   25.2658 C.ar    1  UNL1        0.0366
     12 C           0.0733    2.2539   25.9649 C.ar    1  UNL1        0.0031
     13 C           1.0801    1.4795   25.1671 C.ar    1  UNL1       -0.0001
     14 C           0.9890    1.4505   23.6702 C.ar    1  UNL1       -0.0010
     15 C          -0.1090    2.1960   22.9710 C.ar    1  UNL1        0.0156
     16 H          -5.4175    4.7952   19.9427 H       1  UNL1        0.1233
     17 C           2.8205   -0.1563   19.0806 C.ar    1  UNL1        0.0536
     18 C           1.6462   -0.8608   19.6926 C.ar    1  UNL1        0.0042
     19 C           0.6393   -0.0864   20.4904 C.ar    1  UNL1       -0.0038
     20 C           0.8068    1.3926   20.6763 C.ar    1  UNL1       -0.0182
     21 C           1.9811    2.0972   20.0642 C.ar    1  UNL1       -0.0038
     22 C           2.9880    1.3228   19.2664 C.ar    1  UNL1        0.0042
     23 N           4.9501   -1.6410   18.9791 N.am    1  UNL1       -0.2761
     24 C           3.8273   -0.9307   18.2828 C.2     1  UNL1        0.2490
     25 O           3.7114   -0.9948   16.7886 O.2     1  UNL1       -0.2699
     26 C           7.4195   -2.2805   18.4859 C.3     1  UNL1        0.0233
     27 C           5.9569   -2.4154   18.1812 C.3     1  UNL1        0.0938
     28 C           5.0660   -1.5769   20.4733 C.3     1  UNL1        0.0938
     29 C           4.5226   -2.6922   21.3162 C.3     1  UNL1        0.0233
@<TRIPOS>BOND
     1    26    27    1
     2    27    23    1
     3    23    28    1
     4    28    29    1
     5    23    24   am
     6    24    25    2
     7    24    17    1
     8    17    18   ar
     9    18    19   ar
    10    19    20   ar
    11     1    20    1
    12     1     2    1
    13     2     3    1
    14     3     4    1
    15     4     5    1
    16     5     6    1
    17     6     7    1
    18     7     8    1
    19     3     9    1
    20     9    10    1
    21    10    11   ar
    22    11    12   ar
    23    12    13   ar
    24    13    14   ar
    25    14    15   ar
    26    20    21   ar
    27    21    22   ar
    28    22    17   ar
    29    15     1    1
    30     8     3    1
    31    15    10   ar
    32     6    16    1
@<TRIPOS>MOLECULE
*****
 29 32 0 0 0
SMALL
GASTEIGER

@<TRIPOS>ATOM
      1 C          -1.2875    3.0050   25.3228 C.3     1  UNL1        0.0510
      2 C          -0.5806    2.7866   24.0179 C.3     1  UNL1        0.0489
      3 C          -1.2459    3.1739   22.7305 C.3     1  UNL1        0.1364
      4 C           0.1263    2.5683   22.7131 C.3     1  UNL1        0.0571
      5 C           0.8331    2.3499   21.4083 C.3     1  UNL1        0.0722
      6 N           0.1678    2.7372   20.1208 N.3     1  UNL1       -0.2973
      7 C          -1.2043    3.3427   20.1383 C.3     1  UNL1        0.0722
      8 C          -1.9112    3.5611   21.4431 C.3     1  UNL1        0.0571
      9 O          -2.6182    3.7795   22.7480 O.3     1  UNL1       -0.4828
     10 C          -3.3250    3.9978   24.0528 C.ar    1  UNL1        0.1345
     11 C          -4.6973    4.6034   24.0703 C.ar    1  UNL1        0.0366
     12 C          -5.4041    4.8218   25.3751 C.ar    1  UNL1        0.0031
     13 C          -4.7388    4.4346   26.6625 C.ar    1  UNL1       -0.0001
     14 C          -3.3667    3.8290   26.6451 C.ar    1  UNL1       -0.0010
     15 C          -2.6597    3.6106   25.3402 C.ar    1  UNL1        0.0156
     16 H           0.1092    1.8914   19.5537 H       1  UNL1        0.1233
     17 C           0.7084    1.8433   29.1850 C.ar    1  UNL1        0.0536
     18 C          -0.1141    0.8386   28.4340 C.ar    1  UNL1        0.0042
     19 C          -0.7794    1.2258   27.1465 C.ar    1  UNL1       -0.0038
     20 C          -0.6222    2.6178   26.6102 C.ar    1  UNL1       -0.0182
     21 C           0.2002    3.6226   27.3612 C.ar    1  UNL1       -0.0038
     22 C           0.8655    3.2353   28.6486 C.ar    1  UNL1        0.0042
     23 N           2.7551    0.8719   30.4566 N.am    1  UNL1       -0.2761
     24 C           1.3737    1.4560   30.4724 C.2     1  UNL1        0.2490
     25 O           0.6574    1.6530   31.7756 O.2     1  UNL1       -0.2699
     26 C           3.6810   -0.9609   32.0484 C.3     1  UNL1        0.0233
     27 C           3.4204    0.4846   31.7440 C.3     1  UNL1        0.0938
     28 C           3.4714    0.6749   29.1534 C.3     1  UNL1        0.0938
     29 C           3.3330   -0.6204   28.4099 C.3     1  UNL1        0.0233
@<TRIPOS>BOND
     1    26    27    1
     2    27    23    1
     3    23    28    1
     4    28    29    1
     5    23    24   am
     6    24    25    2
     7    24    17    1
     8    17    18   ar
     9    18    19   ar
    10    19    20   ar
    11     1    20    1
    12     1     2    1
    13     2     3    1
    14     3     4    1
    15     4     5    1
    16     5     6    1
    17     6     7    1
    18     7     8    1
    19     3     9    1
    20     9    10    1
    21    10    11   ar
    22    11    12   ar
    23    12    13   ar
    24    13    14   ar
    25    14    15   ar
    26    20    21   ar
    27    21    22   ar
    28    22    17   ar
    29    15     1    1
    30     8     3    1
    31    15    10   ar
    32     6    16    1
@<TRIPOS>MOLECULE
*****
 29 32 0 0 0
SMALL
GASTEIGER

@<TRIPOS>ATOM
      1 C           0.9671    1.5825   20.5142 C.3     1  UNL1        0.0510
      2 C           0.3372    2.3335   19.3787 C.3     1  UNL1        0.0489
      3 C          -0.7440    3.3368   19.6513 C.3     1  UNL1        0.1364
      4 C          -0.2926    3.0845   18.2433 C.3     1  UNL1        0.0571
      5 C          -0.9225    3.8355   17.1079 C.3     1  UNL1        0.0722
      6 N          -2.0037    4.8388   17.3805 N.3     1  UNL1       -0.2973
      7 C          -2.4550    5.0912   18.7885 C.3     1  UNL1        0.0722
      8 C          -1.8252    4.3402   19.9239 C.3     1  UNL1        0.0571
      9 O          -1.1953    3.5891   21.0594 O.3     1  UNL1       -0.4828
     10 C          -0.5655    2.8381   22.1948 C.ar    1  UNL1        0.1345
     11 C          -1.0168    3.0904   23.6030 C.ar    1  UNL1        0.0366
     12 C          -0.3869    2.3394   24.7384 C.ar    1  UNL1        0.0031
     13 C           0.6943    1.3361   24.4658 C.ar    1  UNL1       -0.0001
     14 C           1.1456    1.0838   23.0578 C.ar    1  UNL1       -0.0010
     15 C           0.5158    1.8348   21.9222 C.ar    1  UNL1        0.0156
     16 H          -2.8254    4.5356   16.8577 H       1  UNL1        0.1233
     17 C           4.2107   -1.4275   19.6964 C.ar    1  UNL1        0.0536
     18 C           2.7865   -1.8780   19.8325 C.ar    1  UNL1        0.0042
     19 C           1.7053   -0.8747   20.1051 C.ar    1  UNL1       -0.0038
     20 C           2.0483    0.5791   20.2416 C.ar    1  UNL1       -0.0182
     21 C           3.4726    1.0297   20.1056 C.ar    1  UNL1       -0.0038
     22 C           4.5538    0.0264   19.8330 C.ar    1  UNL1        0.0042
     23 N           6.0205   -3.0769   20.5647 N.am    1  UNL1       -0.2761
     24 C           5.2919   -2.4309   19.4238 C.2     1  UNL1        0.2490
     25 O           5.6445   -2.7881   18.0102 O.2     1  UNL1       -0.2699
     26 C           8.3210   -4.1248   21.1648 C.3     1  UNL1        0.0233
     27 C           7.1017   -4.0803   20.2921 C.3     1  UNL1        0.0938
     28 C           5.6679   -2.7197   21.9783 C.3     1  UNL1        0.0938
     29 C           4.6611   -3.5389   22.7300 C.3     1  UNL1        0.0233
@<TRIPOS>BOND
     1    26    27    1
     2    27    23    1
     3    23    28    1
     4    28    29    1
     5    23    24   am
     6    24    25    2
     7    24    17    1
     8    17    18   ar
     9    18    19   ar
    10    19    20   ar
    11     1    20    1
    12     1     2    1
    13     2     3    1
    14     3     4    1
    15     4     5    1
    16     5     6    1
    17     6     7    1
    18     7     8    1
    19     3     9    1
    20     9    10    1
    21    10    11   ar
    22    11    12   ar
    23    12    13   ar
    24    13    14   ar
    25    14    15   ar
    26    20    21   ar
    27    21    22   ar
    28    22    17   ar
    29    15     1    1
    30     8     3    1
    31    15    10   ar
    32     6    16    1
