@<TRIPOS>MOLECULE
*****
 41 44 0 0 0
SMALL
GASTEIGER

@<TRIPOS>ATOM
      1 C           4.0828   -0.2967   22.9925 C.3     1  UNL1        0.0311
      2 C           4.3455   -1.4713   22.0973 C.ar    1  UNL1       -0.0188
      3 C           3.6638   -1.5657   20.7645 C.ar    1  UNL1       -0.0030
      4 C           3.9265   -2.7402   19.8693 C.ar    1  UNL1        0.0013
      5 C           4.8709   -3.8204   20.3068 C.ar    1  UNL1        0.0209
      6 C           5.5525   -3.7259   21.6396 C.ar    1  UNL1        0.1021
      7 N           6.5266   -4.6302   22.3351 N.ar    1  UNL1       -0.1690
      8 N           6.8658   -4.0144   23.6601 N.ar    1  UNL1       -0.2472
      9 C           6.1015   -2.7297   23.7836 C.ar    1  UNL1        0.0965
     10 C           5.2898   -2.5514   22.5349 C.ar    1  UNL1        0.0342
     11 C           2.7194   -0.4855   20.3269 C.ar    1  UNL1        0.0103
     12 C           1.2535   -0.6067   20.6207 C.ar    1  UNL1        0.0008
     13 C           0.3090    0.4734   20.1832 C.ar    1  UNL1        0.0039
     14 C           0.8306    1.6747   19.4519 C.ar    1  UNL1        0.0723
     15 C           2.2965    1.7960   19.1582 C.ar    1  UNL1        0.0152
     16 C           3.2409    0.7158   19.5957 C.ar    1  UNL1        0.0576
     17 CL          4.7068    0.8371   19.3020 Cl      1  UNL1       -0.0823
     18 C          -0.1138    2.7549   19.0144 C.3     1  UNL1        0.4186
     19 F          -1.0583    3.8350   18.5770 F       1  UNL1       -0.1659
     20 F           0.8280    3.1307   17.9092 F       1  UNL1       -0.1659
     21 F          -1.0557    2.3790   20.1197 F       1  UNL1       -0.1659
     22 C           7.8047   -4.5835   24.6823 C.3     1  UNL1        0.1274
     23 C           7.5033   -4.4322   26.1439 C.ar    1  UNL1       -0.0001
     24 C           6.7097   -5.4852   26.8590 C.ar    1  UNL1       -0.0023
     25 C           6.4084   -5.3338   28.3206 C.ar    1  UNL1        0.0042
     26 C           6.9008   -4.1295   29.0671 C.ar    1  UNL1        0.0533
     27 C           7.6944   -3.0765   28.3520 C.ar    1  UNL1        0.0042
     28 C           7.9957   -3.2279   26.8904 C.ar    1  UNL1       -0.0023
     29 C           6.5994   -3.9783   30.5287 C.2     1  UNL1        0.2459
     30 O           6.6913   -5.1660   31.4403 O.2     1  UNL1       -0.2701
     31 N           6.2063   -2.6393   31.0788 N.am    1  UNL1       -0.3005
     32 H           6.1460   -1.8597   30.4805 H       1  UNL1        0.1498
     33 C           5.9050   -2.4881   32.5405 C.3     1  UNL1        0.0956
     34 C           4.5073   -2.1812   32.9902 C.3     1  UNL1        0.0629
     35 C           3.8049   -0.9599   32.4753 C.2     1  UNL1        0.0520
     36 O           2.7540   -1.0911   31.4130 O.co2   1  UNL1       -0.5491
     37 O           4.1533    0.3925   33.0226 O.co2   1  UNL1       -0.5491
     38 C           9.0448   -5.3039   24.2428 C.3     1  UNL1        0.0289
     39 C           9.0253   -6.7939   24.0703 C.3     1  UNL1        0.0023
     40 C           9.1549   -7.6891   25.2669 C.3     1  UNL1        0.0001
     41 C           8.8761   -7.3886   22.7014 C.3     1  UNL1        0.0001
@<TRIPOS>UNITY_ATOM_ATTR
36 1
charge -1
@<TRIPOS>BOND
     1     1     2    1
     2     2     3   ar
     3     3    11    1
     4    11    12   ar
     5    12    13   ar
     6    13    14   ar
     7    14    18    1
     8    18    19    1
     9    18    20    1
    10    18    21    1
    11    14    15   ar
    12    15    16   ar
    13    16    17    1
    14     3     4   ar
    15     4     5   ar
    16     5     6   ar
    17     6     7   ar
    18     7     8   ar
    19     8    22    1
    20    22    38    1
    21    38    39    1
    22    39    40    1
    23    39    41    1
    24    22    23    1
    25    23    24   ar
    26    24    25   ar
    27    25    26   ar
    28    26    29    1
    29    29    30    2
    30    29    31   am
    31    31    33    1
    32    33    34    1
    33    34    35    1
    34    35    36   ar
    35    35    37   ar
    36    26    27   ar
    37    27    28   ar
    38     8     9   ar
    39     9    10   ar
    40    10     2   ar
    41    16    11   ar
    42    10     6   ar
    43    28    23   ar
    44    31    32    1
@<TRIPOS>MOLECULE
*****
 41 44 0 0 0
SMALL
GASTEIGER

@<TRIPOS>ATOM
      1 C           1.8499    2.4397   25.8953 C.3     1  UNL1        0.0311
      2 C           0.4374    2.8594   25.6147 C.ar    1  UNL1       -0.0188
      3 C          -0.5199    3.0766   26.7489 C.ar    1  UNL1       -0.0030
      4 C          -1.9323    3.4964   26.4683 C.ar    1  UNL1        0.0013
      5 C          -2.3875    3.6990   25.0534 C.ar    1  UNL1        0.0209
      6 C          -1.4302    3.4819   23.9192 C.ar    1  UNL1        0.1021
      7 N          -1.5910    3.6036   22.4329 N.ar    1  UNL1       -0.1690
      8 N          -0.2779    3.2591   21.7949 N.ar    1  UNL1       -0.2472
      9 C           0.6944    2.9244   22.8869 C.ar    1  UNL1        0.0965
     10 C          -0.0178    3.0621   24.1999 C.ar    1  UNL1        0.0342
     11 C          -0.0647    2.8739   28.1638 C.ar    1  UNL1        0.0103
     12 C           0.5038    4.0242   28.9407 C.ar    1  UNL1        0.0008
     13 C           0.9590    3.8216   30.3555 C.ar    1  UNL1        0.0039
     14 C           0.8458    2.4688   30.9934 C.ar    1  UNL1        0.0723
     15 C           0.2773    1.3185   30.2165 C.ar    1  UNL1        0.0152
     16 C          -0.1779    1.5211   28.8016 C.ar    1  UNL1        0.0576
     17 CL         -0.7464    0.3708   28.0247 Cl      1  UNL1       -0.0823
     18 C           1.3010    2.2662   32.4082 C.3     1  UNL1        0.4186
     19 F           1.7563    2.0636   33.8230 F       1  UNL1       -0.1659
     20 F           2.0770    1.0542   31.9850 F       1  UNL1       -0.1659
     21 F           0.5251    3.4781   32.8314 F       1  UNL1       -0.1659
     22 C           0.0120    3.2507   20.3232 C.3     1  UNL1        0.1274
     23 C           0.8877    2.1830   19.7373 C.ar    1  UNL1       -0.0001
     24 C           0.5792    0.7371   19.9908 C.ar    1  UNL1       -0.0023
     25 C           1.4549   -0.3305   19.4050 C.ar    1  UNL1        0.0042
     26 C           2.6391    0.0476   18.5656 C.ar    1  UNL1        0.0533
     27 C           2.9476    1.4935   18.3120 C.ar    1  UNL1        0.0042
     28 C           2.0719    2.5612   18.8979 C.ar    1  UNL1       -0.0023
     29 C           3.5147   -1.0201   17.9797 C.2     1  UNL1        0.2459
     30 O           3.8879   -0.9709   16.5277 O.2     1  UNL1       -0.2701
     31 N           4.0172   -2.1369   18.8459 N.am    1  UNL1       -0.3005
     32 H           3.7723   -2.1692   19.7989 H       1  UNL1        0.1498
     33 C           4.8929   -3.2046   18.2599 C.3     1  UNL1        0.0956
     34 C           4.7183   -4.6332   18.6824 C.3     1  UNL1        0.0629
     35 C           4.2170   -4.9521   20.0597 C.2     1  UNL1        0.0520
     36 O           3.2661   -6.0937   20.2661 O.co2   1  UNL1       -0.5491
     37 O           4.6665   -4.1294   21.2306 O.co2   1  UNL1       -0.5491
     38 C          -0.5737    4.3100   19.4373 C.3     1  UNL1        0.0289
     39 C          -1.8224    4.0278   18.6556 C.3     1  UNL1        0.0023
     40 C          -1.7955    4.0749   17.1566 C.3     1  UNL1        0.0001
     41 C          -3.0980    3.6984   19.3728 C.3     1  UNL1        0.0001
@<TRIPOS>UNITY_ATOM_ATTR
36 1
charge -1
@<TRIPOS>BOND
     1     1     2    1
     2     2     3   ar
     3     3    11    1
     4    11    12   ar
     5    12    13   ar
     6    13    14   ar
     7    14    18    1
     8    18    19    1
     9    18    20    1
    10    18    21    1
    11    14    15   ar
    12    15    16   ar
    13    16    17    1
    14     3     4   ar
    15     4     5   ar
    16     5     6   ar
    17     6     7   ar
    18     7     8   ar
    19     8    22    1
    20    22    38    1
    21    38    39    1
    22    39    40    1
    23    39    41    1
    24    22    23    1
    25    23    24   ar
    26    24    25   ar
    27    25    26   ar
    28    26    29    1
    29    29    30    2
    30    29    31   am
    31    31    33    1
    32    33    34    1
    33    34    35    1
    34    35    36   ar
    35    35    37   ar
    36    26    27   ar
    37    27    28   ar
    38     8     9   ar
    39     9    10   ar
    40    10     2   ar
    41    16    11   ar
    42    10     6   ar
    43    28    23   ar
    44    31    32    1
@<TRIPOS>MOLECULE
*****
 41 44 0 0 0
SMALL
GASTEIGER

@<TRIPOS>ATOM
      1 C           6.0519   -1.1496   29.6149 C.3     1  UNL1        0.0311
      2 C           6.5585   -2.5458   29.8244 C.ar    1  UNL1       -0.0188
      3 C           6.5918   -3.1323   31.2046 C.ar    1  UNL1       -0.0030
      4 C           7.0984   -4.5285   31.4142 C.ar    1  UNL1        0.0013
      5 C           7.5717   -5.3383   30.2435 C.ar    1  UNL1        0.0209
      6 C           7.5384   -4.7518   28.8634 C.ar    1  UNL1        0.1021
      7 N           7.9365   -5.3058   27.5275 N.ar    1  UNL1       -0.1690
      8 N           7.6759   -4.2520   26.4924 N.ar    1  UNL1       -0.2472
      9 C           7.1167   -3.0467   27.1884 C.ar    1  UNL1        0.0965
     10 C           7.0317   -3.3555   28.6538 C.ar    1  UNL1        0.0342
     11 C           6.1186   -2.3225   32.3752 C.ar    1  UNL1        0.0103
     12 C           4.7057   -2.4597   32.8599 C.ar    1  UNL1        0.0008
     13 C           4.2323   -1.6500   34.0305 C.ar    1  UNL1        0.0039
     14 C           5.1719   -0.7030   34.7164 C.ar    1  UNL1        0.0723
     15 C           6.5848   -0.5658   34.2317 C.ar    1  UNL1        0.0152
     16 C           7.0581   -1.3756   33.0611 C.ar    1  UNL1        0.0576
     17 CL          8.4710   -1.2384   32.5765 Cl      1  UNL1       -0.0823
     18 C           4.6986    0.1067   35.8870 C.3     1  UNL1        0.4186
     19 F           4.2252    0.9165   37.0575 F       1  UNL1       -0.1659
     20 F           5.6781   -0.6030   36.7740 F       1  UNL1       -0.1659
     21 F           3.7191    0.8165   34.9999 F       1  UNL1       -0.1659
     22 C           7.9299   -4.3809   25.0196 C.3     1  UNL1        0.1274
     23 C           7.1436   -3.5521   24.0476 C.ar    1  UNL1       -0.0001
     24 C           7.7541   -2.3210   23.4460 C.ar    1  UNL1       -0.0023
     25 C           6.9678   -1.4922   22.4741 C.ar    1  UNL1        0.0042
     26 C           5.5710   -1.8944   22.1036 C.ar    1  UNL1        0.0533
     27 C           4.9605   -3.1255   22.7051 C.ar    1  UNL1        0.0042
     28 C           5.7469   -3.9543   23.6771 C.ar    1  UNL1       -0.0023
     29 C           4.7848   -1.0656   21.1316 C.2     1  UNL1        0.2459
     30 O           3.3119   -1.2977   20.9676 O.2     1  UNL1       -0.2701
     31 N           5.4713   -0.0047   20.3234 N.am    1  UNL1       -0.3005
     32 H           6.4380    0.1477   20.4310 H       1  UNL1        0.1498
     33 C           4.6850    0.8242   19.3514 C.3     1  UNL1        0.0956
     34 C           5.0160    0.7804   17.8890 C.3     1  UNL1        0.0629
     35 C           5.1455   -0.5396   17.1885 C.2     1  UNL1        0.0520
     36 O           4.0391   -1.0300   16.3024 O.co2   1  UNL1       -0.5491
     37 O           6.3814   -1.3691   17.3741 O.co2   1  UNL1       -0.5491
     38 C           8.9701   -5.3386   24.5189 C.3     1  UNL1        0.0289
     39 C           8.5747   -6.7237   24.1003 C.3     1  UNL1        0.0023
     40 C           8.8720   -7.2003   22.7094 C.3     1  UNL1        0.0001
     41 C           7.8822   -7.6322   25.0724 C.3     1  UNL1        0.0001
@<TRIPOS>UNITY_ATOM_ATTR
36 1
charge -1
@<TRIPOS>BOND
     1     1     2    1
     2     2     3   ar
     3     3    11    1
     4    11    12   ar
     5    12    13   ar
     6    13    14   ar
     7    14    18    1
     8    18    19    1
     9    18    20    1
    10    18    21    1
    11    14    15   ar
    12    15    16   ar
    13    16    17    1
    14     3     4   ar
    15     4     5   ar
    16     5     6   ar
    17     6     7   ar
    18     7     8   ar
    19     8    22    1
    20    22    38    1
    21    38    39    1
    22    39    40    1
    23    39    41    1
    24    22    23    1
    25    23    24   ar
    26    24    25   ar
    27    25    26   ar
    28    26    29    1
    29    29    30    2
    30    29    31   am
    31    31    33    1
    32    33    34    1
    33    34    35    1
    34    35    36   ar
    35    35    37   ar
    36    26    27   ar
    37    27    28   ar
    38     8     9   ar
    39     9    10   ar
    40    10     2   ar
    41    16    11   ar
    42    10     6   ar
    43    28    23   ar
    44    31    32    1
@<TRIPOS>MOLECULE
*****
 41 44 0 0 0
SMALL
GASTEIGER

@<TRIPOS>ATOM
      1 C         -14.0862   -2.8789   20.8284 C.3     1  UNL1        0.0311
      2 C         -14.2022   -2.1706   19.5112 C.ar    1  UNL1       -0.0188
      3 C         -13.3907   -2.6324   18.3373 C.ar    1  UNL1       -0.0030
      4 C         -13.5068   -1.9243   17.0202 C.ar    1  UNL1        0.0013
      5 C         -14.4344   -0.7542   16.8768 C.ar    1  UNL1        0.0209
      6 C         -15.2459   -0.2923   18.0508 C.ar    1  UNL1        0.1021
      7 N         -16.2367    0.8226   18.2096 N.ar    1  UNL1       -0.1690
      8 N         -16.7330    0.8034   19.6250 N.ar    1  UNL1       -0.2472
      9 C         -16.0489   -0.3233   20.3409 C.ar    1  UNL1        0.0965
     10 C         -15.1298   -1.0006   19.3680 C.ar    1  UNL1        0.0342
     11 C         -12.4631   -3.8026   18.4806 C.ar    1  UNL1        0.0103
     12 C         -11.0070   -3.5754   18.7599 C.ar    1  UNL1        0.0008
     13 C         -10.0794   -4.7454   18.9033 C.ar    1  UNL1        0.0039
     14 C         -10.6079   -6.1426   18.7672 C.ar    1  UNL1        0.0723
     15 C         -12.0640   -6.3698   18.4879 C.ar    1  UNL1        0.0152
     16 C         -12.9916   -5.1997   18.3446 C.ar    1  UNL1        0.0576
     17 CL        -14.4478   -5.4269   18.0652 Cl      1  UNL1       -0.0823
     18 C          -9.6803   -7.3127   18.9105 C.3     1  UNL1        0.4186
     19 F          -8.7527   -8.4827   19.0539 F       1  UNL1       -0.1659
     20 F         -10.4783   -8.0702   17.8911 F       1  UNL1       -0.1659
     21 F          -8.8823   -6.5551   19.9300 F       1  UNL1       -0.1659
     22 C         -17.7370    1.7456   20.2201 C.3     1  UNL1        0.1274
     23 C         -17.3428    2.6424   21.3560 C.ar    1  UNL1       -0.0001
     24 C         -18.0511    2.5389   22.6742 C.ar    1  UNL1       -0.0023
     25 C         -17.6568    3.4357   23.8100 C.ar    1  UNL1        0.0042
     26 C         -16.5541    4.4361   23.6278 C.ar    1  UNL1        0.0533
     27 C         -15.8457    4.5397   22.3096 C.ar    1  UNL1        0.0042
     28 C         -16.2401    3.6428   21.1738 C.ar    1  UNL1       -0.0023
     29 C         -16.1598    5.3329   24.7636 C.2     1  UNL1        0.2459
     30 O         -15.3074    6.5398   24.5053 O.2     1  UNL1       -0.2701
     31 N         -16.6179    5.0229   26.1579 N.am    1  UNL1       -0.3005
     32 H         -17.1774    4.2307   26.3275 H       1  UNL1        0.1498
     33 C         -16.2236    5.9198   27.2938 C.3     1  UNL1        0.0956
     34 C         -16.6419    5.5839   28.6946 C.3     1  UNL1        0.0629
     35 C         -18.0873    5.6695   29.0865 C.2     1  UNL1        0.0520
     36 O         -19.1569    5.3801   28.0756 O.co2   1  UNL1       -0.5491
     37 O         -18.4630    6.0445   30.4895 O.co2   1  UNL1       -0.5491
     38 C         -19.1354    1.7910   19.6793 C.3     1  UNL1        0.0289
     39 C         -19.5862    2.9663   18.8634 C.3     1  UNL1        0.0023
     40 C         -19.3523    2.9846   17.3819 C.3     1  UNL1        0.0001
     41 C         -20.2708    4.1231   19.5290 C.3     1  UNL1        0.0001
@<TRIPOS>UNITY_ATOM_ATTR
36 1
charge -1
@<TRIPOS>BOND
     1     1     2    1
     2     2     3   ar
     3     3    11    1
     4    11    12   ar
     5    12    13   ar
     6    13    14   ar
     7    14    18    1
     8    18    19    1
     9    18    20    1
    10    18    21    1
    11    14    15   ar
    12    15    16   ar
    13    16    17    1
    14     3     4   ar
    15     4     5   ar
    16     5     6   ar
    17     6     7   ar
    18     7     8   ar
    19     8    22    1
    20    22    38    1
    21    38    39    1
    22    39    40    1
    23    39    41    1
    24    22    23    1
    25    23    24   ar
    26    24    25   ar
    27    25    26   ar
    28    26    29    1
    29    29    30    2
    30    29    31   am
    31    31    33    1
    32    33    34    1
    33    34    35    1
    34    35    36   ar
    35    35    37   ar
    36    26    27   ar
    37    27    28   ar
    38     8     9   ar
    39     9    10   ar
    40    10     2   ar
    41    16    11   ar
    42    10     6   ar
    43    28    23   ar
    44    31    32    1
@<TRIPOS>MOLECULE
*****
 41 44 0 0 0
SMALL
GASTEIGER

@<TRIPOS>ATOM
      1 C           6.4081   -3.2963   30.8197 C.3     1  UNL1        0.0311
      2 C           6.4499   -2.1245   29.8841 C.ar    1  UNL1       -0.0188
      3 C           6.1935   -0.7408   30.4033 C.ar    1  UNL1       -0.0030
      4 C           6.2353    0.4309   29.4678 C.ar    1  UNL1        0.0013
      5 C           6.5335    0.2190   28.0130 C.ar    1  UNL1        0.0209
      6 C           6.7899   -1.1648   27.4939 C.ar    1  UNL1        0.1021
      7 N           7.1073   -1.6788   26.1210 N.ar    1  UNL1       -0.1690
      8 N           7.2617   -3.1683   26.2080 N.ar    1  UNL1       -0.2472
      9 C           7.0397   -3.5748   27.6347 C.ar    1  UNL1        0.0965
     10 C           6.7481   -2.3365   28.4295 C.ar    1  UNL1        0.0342
     11 C           5.8953   -0.5289   31.8581 C.ar    1  UNL1        0.0103
     12 C           7.0092   -0.2237   32.8152 C.ar    1  UNL1        0.0008
     13 C           6.7111   -0.0118   34.2699 C.ar    1  UNL1        0.0039
     14 C           5.2991   -0.1050   34.7675 C.ar    1  UNL1        0.0723
     15 C           4.1852   -0.4101   33.8104 C.ar    1  UNL1        0.0152
     16 C           4.4834   -0.6221   32.3556 C.ar    1  UNL1        0.0576
     17 CL          3.3695   -0.9272   31.3985 Cl      1  UNL1       -0.0823
     18 C           5.0010    0.1069   36.2222 C.3     1  UNL1        0.4186
     19 F           4.7029    0.3189   37.6769 F       1  UNL1       -0.1659
     20 F           6.1805   -0.7445   36.5879 F       1  UNL1       -0.1659
     21 F           3.8215    0.9584   35.8564 F       1  UNL1       -0.1659
     22 C           7.5819   -4.0896   25.0684 C.3     1  UNL1        0.1274
     23 C           6.9164   -3.8965   23.7381 C.ar    1  UNL1       -0.0001
     24 C           7.7132   -4.0304   22.4743 C.ar    1  UNL1       -0.0023
     25 C           7.0477   -3.8373   21.1440 C.ar    1  UNL1        0.0042
     26 C           5.5853   -3.5101   21.0774 C.ar    1  UNL1        0.0533
     27 C           4.7884   -3.3761   22.3411 C.ar    1  UNL1        0.0042
     28 C           5.4540   -3.5693   23.6715 C.ar    1  UNL1       -0.0023
     29 C           4.9198   -3.3169   19.7471 C.2     1  UNL1        0.2459
     30 O           4.6184   -4.5032   18.8800 O.2     1  UNL1       -0.2701
     31 N           4.5558   -1.9374   19.2838 N.am    1  UNL1       -0.3005
     32 H           4.7537   -1.1588   19.8529 H       1  UNL1        0.1498
     33 C           3.8903   -1.7443   17.9534 C.3     1  UNL1        0.0956
     34 C           4.2710   -0.5811   17.0863 C.3     1  UNL1        0.0629
     35 C           5.6876   -0.0880   17.0721 C.2     1  UNL1        0.0520
     36 O           5.9702    1.3771   16.9191 O.co2   1  UNL1       -0.5491
     37 O           6.8215   -1.0601   17.2111 O.co2   1  UNL1       -0.5491
     38 C           8.5675   -5.2041   25.2591 C.3     1  UNL1        0.0289
     39 C           8.1225   -6.6302   25.1236 C.3     1  UNL1        0.0023
     40 C           8.5189   -7.4280   23.9168 C.3     1  UNL1        0.0001
     41 C           7.2812   -7.2585   26.1948 C.3     1  UNL1        0.0001
@<TRIPOS>UNITY_ATOM_ATTR
36 1
charge -1
@<TRIPOS>BOND
     1     1     2    1
     2     2     3   ar
     3     3    11    1
     4    11    12   ar
     5    12    13   ar
     6    13    14   ar
     7    14    18    1
     8    18    19    1
     9    18    20    1
    10    18    21    1
    11    14    15   ar
    12    15    16   ar
    13    16    17    1
    14     3     4   ar
    15     4     5   ar
    16     5     6   ar
    17     6     7   ar
    18     7     8   ar
    19     8    22    1
    20    22    38    1
    21    38    39    1
    22    39    40    1
    23    39    41    1
    24    22    23    1
    25    23    24   ar
    26    24    25   ar
    27    25    26   ar
    28    26    29    1
    29    29    30    2
    30    29    31   am
    31    31    33    1
    32    33    34    1
    33    34    35    1
    34    35    36   ar
    35    35    37   ar
    36    26    27   ar
    37    27    28   ar
    38     8     9   ar
    39     9    10   ar
    40    10     2   ar
    41    16    11   ar
    42    10     6   ar
    43    28    23   ar
    44    31    32    1
@<TRIPOS>MOLECULE
*****
 41 44 0 0 0
SMALL
GASTEIGER

@<TRIPOS>ATOM
      1 C           4.6307   -3.9416   22.2662 C.3     1  UNL1        0.0311
      2 C           5.4418   -2.7033   22.5085 C.ar    1  UNL1       -0.0188
      3 C           6.6071   -2.7428   23.4522 C.ar    1  UNL1       -0.0030
      4 C           7.4182   -1.5046   23.6945 C.ar    1  UNL1        0.0013
      5 C           7.0640   -0.2267   22.9933 C.ar    1  UNL1        0.0209
      6 C           5.8987   -0.1872   22.0497 C.ar    1  UNL1        0.1021
      7 N           5.3150    0.9188   21.2214 N.ar    1  UNL1       -0.1690
      8 N           4.1432    0.3640   20.4671 N.ar    1  UNL1       -0.2472
      9 C           4.0026   -1.0848   20.8292 C.ar    1  UNL1        0.0965
     10 C           5.0876   -1.4255   21.8073 C.ar    1  UNL1        0.0342
     11 C           6.9613   -4.0207   24.1534 C.ar    1  UNL1        0.0103
     12 C           6.4925   -4.2602   25.5580 C.ar    1  UNL1        0.0008
     13 C           6.8466   -5.5380   26.2592 C.ar    1  UNL1        0.0039
     14 C           7.6696   -6.5763   25.5559 C.ar    1  UNL1        0.0723
     15 C           8.1384   -6.3369   24.1514 C.ar    1  UNL1        0.0152
     16 C           7.7842   -5.0590   23.4501 C.ar    1  UNL1        0.0576
     17 CL          8.2530   -4.8195   22.0455 Cl      1  UNL1       -0.0823
     18 C           8.0237   -7.8541   26.2572 C.3     1  UNL1        0.4186
     19 F           8.3778   -9.1320   26.9585 F       1  UNL1       -0.1659
     20 F           9.4646   -7.4384   26.2871 F       1  UNL1       -0.1659
     21 F           6.5828   -8.2699   26.2273 F       1  UNL1       -0.1659
     22 C           3.2658    1.1246   19.5174 C.3     1  UNL1        0.1274
     23 C           1.9323    1.6366   19.9749 C.ar    1  UNL1       -0.0001
     24 C           1.0098    2.3041   18.9983 C.ar    1  UNL1       -0.0023
     25 C          -0.3237    2.8161   19.4558 C.ar    1  UNL1        0.0042
     26 C          -0.7350    2.6608   20.8900 C.ar    1  UNL1        0.0533
     27 C           0.1874    1.9934   21.8666 C.ar    1  UNL1        0.0042
     28 C           1.5210    1.4813   21.4090 C.ar    1  UNL1       -0.0023
     29 C          -2.0686    3.1728   21.3474 C.2     1  UNL1        0.2459
     30 O          -2.1509    4.1158   22.5111 O.2     1  UNL1       -0.2701
     31 N          -3.3198    2.7420   20.6412 N.am    1  UNL1       -0.3005
     32 H          -3.2658    2.1231   19.8775 H       1  UNL1        0.1498
     33 C          -4.6535    3.2542   21.0988 C.3     1  UNL1        0.0956
     34 C          -5.4282    4.2049   20.2351 C.3     1  UNL1        0.0629
     35 C          -5.8700    3.7834   18.8650 C.2     1  UNL1        0.0520
     36 O          -7.3128    3.9032   18.4724 O.co2   1  UNL1       -0.5491
     37 O          -4.8691    3.2423   17.8876 O.co2   1  UNL1       -0.5491
     38 C           3.7221    1.3731   18.1103 C.3     1  UNL1        0.0289
     39 C           4.4694    0.3071   17.3649 C.3     1  UNL1        0.0023
     40 C           5.9483    0.4381   17.1512 C.3     1  UNL1        0.0001
     41 C           3.7378   -0.8896   16.8334 C.3     1  UNL1        0.0001
@<TRIPOS>UNITY_ATOM_ATTR
36 1
charge -1
@<TRIPOS>BOND
     1     1     2    1
     2     2     3   ar
     3     3    11    1
     4    11    12   ar
     5    12    13   ar
     6    13    14   ar
     7    14    18    1
     8    18    19    1
     9    18    20    1
    10    18    21    1
    11    14    15   ar
    12    15    16   ar
    13    16    17    1
    14     3     4   ar
    15     4     5   ar
    16     5     6   ar
    17     6     7   ar
    18     7     8   ar
    19     8    22    1
    20    22    38    1
    21    38    39    1
    22    39    40    1
    23    39    41    1
    24    22    23    1
    25    23    24   ar
    26    24    25   ar
    27    25    26   ar
    28    26    29    1
    29    29    30    2
    30    29    31   am
    31    31    33    1
    32    33    34    1
    33    34    35    1
    34    35    36   ar
    35    35    37   ar
    36    26    27   ar
    37    27    28   ar
    38     8     9   ar
    39     9    10   ar
    40    10     2   ar
    41    16    11   ar
    42    10     6   ar
    43    28    23   ar
    44    31    32    1
@<TRIPOS>MOLECULE
*****
 41 44 0 0 0
SMALL
GASTEIGER

@<TRIPOS>ATOM
      1 C           3.4457    1.6605   28.1124 C.3     1  UNL1        0.0311
      2 C           1.9697    1.3943   28.0858 C.ar    1  UNL1       -0.0188
      3 C           1.2837    0.8500   29.3037 C.ar    1  UNL1       -0.0030
      4 C          -0.1921    0.5839   29.2772 C.ar    1  UNL1        0.0013
      5 C          -0.9822    0.8620   28.0328 C.ar    1  UNL1        0.0209
      6 C          -0.2963    1.4063   26.8149 C.ar    1  UNL1        0.1021
      7 N          -0.8096    1.7757   25.4547 N.ar    1  UNL1       -0.1690
      8 N           0.3492    2.2701   24.6406 N.ar    1  UNL1       -0.2472
      9 C           1.5786    2.2064   25.4976 C.ar    1  UNL1        0.0965
     10 C           1.1797    1.6725   26.8415 C.ar    1  UNL1        0.0342
     11 C           2.0738    0.5719   30.5481 C.ar    1  UNL1        0.0103
     12 C           2.8248   -0.7192   30.6867 C.ar    1  UNL1        0.0008
     13 C           3.6149   -0.9974   31.9310 C.ar    1  UNL1        0.0039
     14 C           3.6540    0.0155   33.0367 C.ar    1  UNL1        0.0723
     15 C           2.9031    1.3065   32.8981 C.ar    1  UNL1        0.0152
     16 C           2.1130    1.5847   31.6537 C.ar    1  UNL1        0.0576
     17 CL          1.3621    2.8757   31.5151 Cl      1  UNL1       -0.0823
     18 C           4.4441   -0.2627   34.2811 C.3     1  UNL1        0.4186
     19 F           5.2342   -0.5409   35.5254 F       1  UNL1       -0.1659
     20 F           4.8449    1.1811   34.3493 F       1  UNL1       -0.1659
     21 F           4.0433   -1.7066   34.2128 F       1  UNL1       -0.1659
     22 C           0.2891    2.7450   23.2190 C.3     1  UNL1        0.1274
     23 C           1.0467    2.0131   22.1512 C.ar    1  UNL1       -0.0001
     24 C           1.5893    2.7613   20.9697 C.ar    1  UNL1       -0.0023
     25 C           2.3469    2.0293   19.9019 C.ar    1  UNL1        0.0042
     26 C           2.5620    0.5492   20.0154 C.ar    1  UNL1        0.0533
     27 C           2.0194   -0.1991   21.1969 C.ar    1  UNL1        0.0042
     28 C           1.2618    0.5330   22.2647 C.ar    1  UNL1       -0.0023
     29 C           3.3196   -0.1827   18.9476 C.2     1  UNL1        0.2459
     30 O           2.9103   -0.0472   17.5109 O.2     1  UNL1       -0.2701
     31 N           4.4864   -1.0501   19.3164 N.am    1  UNL1       -0.3005
     32 H           4.7551   -1.1391   20.2594 H       1  UNL1        0.1498
     33 C           5.2440   -1.7820   18.2484 C.3     1  UNL1        0.0956
     34 C           5.5442   -3.2428   18.4092 C.3     1  UNL1        0.0629
     35 C           4.4879   -4.1729   18.9280 C.2     1  UNL1        0.0520
     36 O           4.7596   -5.6459   19.0089 O.co2   1  UNL1       -0.5491
     37 O           3.1599   -3.6300   19.3658 O.co2   1  UNL1       -0.5491
     38 C          -0.5285    3.9517   22.8653 C.3     1  UNL1        0.0289
     39 C          -1.9403    3.7868   22.3859 C.3     1  UNL1        0.0023
     40 C          -2.2128    3.5111   20.9369 C.3     1  UNL1        0.0001
     41 C          -3.0795    3.8976   23.3554 C.3     1  UNL1        0.0001
@<TRIPOS>UNITY_ATOM_ATTR
36 1
charge -1
@<TRIPOS>BOND
     1     1     2    1
     2     2     3   ar
     3     3    11    1
     4    11    12   ar
     5    12    13   ar
     6    13    14   ar
     7    14    18    1
     8    18    19    1
     9    18    20    1
    10    18    21    1
    11    14    15   ar
    12    15    16   ar
    13    16    17    1
    14     3     4   ar
    15     4     5   ar
    16     5     6   ar
    17     6     7   ar
    18     7     8   ar
    19     8    22    1
    20    22    38    1
    21    38    39    1
    22    39    40    1
    23    39    41    1
    24    22    23    1
    25    23    24   ar
    26    24    25   ar
    27    25    26   ar
    28    26    29    1
    29    29    30    2
    30    29    31   am
    31    31    33    1
    32    33    34    1
    33    34    35    1
    34    35    36   ar
    35    35    37   ar
    36    26    27   ar
    37    27    28   ar
    38     8     9   ar
    39     9    10   ar
    40    10     2   ar
    41    16    11   ar
    42    10     6   ar
    43    28    23   ar
    44    31    32    1
@<TRIPOS>MOLECULE
*****
 41 44 0 0 0
SMALL
GASTEIGER

@<TRIPOS>ATOM
      1 C           1.2702   -0.3218   20.3152 C.3     1  UNL1        0.0311
      2 C           1.8121    0.8982   19.6311 C.ar    1  UNL1       -0.0188
      3 C           3.2593    0.9590   19.2416 C.ar    1  UNL1       -0.0030
      4 C           3.8012    2.1789   18.5575 C.ar    1  UNL1        0.0013
      5 C           2.8959    3.3381   18.2629 C.ar    1  UNL1        0.0209
      6 C           1.4487    3.2773   18.6525 C.ar    1  UNL1        0.1021
      7 N           0.3244    4.2573   18.4932 N.ar    1  UNL1       -0.1690
      8 N          -0.9124    3.6431   19.0788 N.ar    1  UNL1       -0.2472
      9 C          -0.5525    2.2834   19.6001 C.ar    1  UNL1        0.0965
     10 C           0.9068    2.0573   19.3366 C.ar    1  UNL1        0.0342
     11 C           4.1647   -0.2002   19.5362 C.ar    1  UNL1        0.0103
     12 C           4.8027   -0.3288   20.8876 C.ar    1  UNL1        0.0008
     13 C           5.7080   -1.4879   21.1823 C.ar    1  UNL1        0.0039
     14 C           5.9753   -2.5184   20.1256 C.ar    1  UNL1        0.0723
     15 C           5.3372   -2.3898   18.7742 C.ar    1  UNL1        0.0152
     16 C           4.4319   -1.2306   18.4795 C.ar    1  UNL1        0.0576
     17 CL          3.7938   -1.1020   17.1281 Cl      1  UNL1       -0.0823
     18 C           6.8806   -3.6776   20.4202 C.3     1  UNL1        0.4186
     19 F           7.7859   -4.8367   20.7149 F       1  UNL1       -0.1659
     20 F           7.8482   -2.7505   21.0941 F       1  UNL1       -0.1659
     21 F           5.9129   -4.6046   19.7464 F       1  UNL1       -0.1659
     22 C          -2.2707    4.2772   19.1337 C.3     1  UNL1        0.1274
     23 C          -3.0143    4.3461   20.4346 C.ar    1  UNL1       -0.0001
     24 C          -4.0398    3.3036   20.7686 C.ar    1  UNL1       -0.0023
     25 C          -4.7833    3.3727   22.0695 C.ar    1  UNL1        0.0042
     26 C          -4.5013    4.4842   23.0365 C.ar    1  UNL1        0.0533
     27 C          -3.4758    5.5267   22.7025 C.ar    1  UNL1        0.0042
     28 C          -2.7323    5.4576   21.4015 C.ar    1  UNL1       -0.0023
     29 C          -5.2448    4.5532   24.3374 C.2     1  UNL1        0.2459
     30 O          -5.1487    3.4214   25.3171 O.2     1  UNL1       -0.2701
     31 N          -6.0845    5.7540   24.6586 N.am    1  UNL1       -0.3005
     32 H          -6.1476    6.4968   24.0156 H       1  UNL1        0.1498
     33 C          -6.8280    5.8228   25.9596 C.3     1  UNL1        0.0956
     34 C          -8.2507    6.2974   25.9860 C.3     1  UNL1        0.0629
     35 C          -9.2149    5.8363   24.9336 C.2     1  UNL1        0.0520
     36 O          -8.7644    4.8765   23.8725 O.co2   1  UNL1       -0.5491
     37 O         -10.6296    6.3349   24.9421 O.co2   1  UNL1       -0.5491
     38 C          -2.8855    4.8423   17.8876 C.3     1  UNL1        0.0289
     39 C          -3.9551    4.0775   17.1657 C.3     1  UNL1        0.0023
     40 C          -3.6000    3.2273   15.9820 C.3     1  UNL1        0.0001
     41 C          -5.3797    4.1628   17.6274 C.3     1  UNL1        0.0001
@<TRIPOS>UNITY_ATOM_ATTR
36 1
charge -1
@<TRIPOS>BOND
     1     1     2    1
     2     2     3   ar
     3     3    11    1
     4    11    12   ar
     5    12    13   ar
     6    13    14   ar
     7    14    18    1
     8    18    19    1
     9    18    20    1
    10    18    21    1
    11    14    15   ar
    12    15    16   ar
    13    16    17    1
    14     3     4   ar
    15     4     5   ar
    16     5     6   ar
    17     6     7   ar
    18     7     8   ar
    19     8    22    1
    20    22    38    1
    21    38    39    1
    22    39    40    1
    23    39    41    1
    24    22    23    1
    25    23    24   ar
    26    24    25   ar
    27    25    26   ar
    28    26    29    1
    29    29    30    2
    30    29    31   am
    31    31    33    1
    32    33    34    1
    33    34    35    1
    34    35    36   ar
    35    35    37   ar
    36    26    27   ar
    37    27    28   ar
    38     8     9   ar
    39     9    10   ar
    40    10     2   ar
    41    16    11   ar
    42    10     6   ar
    43    28    23   ar
    44    31    32    1
@<TRIPOS>MOLECULE
*****
 41 44 0 0 0
SMALL
GASTEIGER

@<TRIPOS>ATOM
      1 C           1.3003    3.5443   27.4436 C.3     1  UNL1        0.0311
      2 C           0.7557    2.2286   27.9153 C.ar    1  UNL1       -0.0188
      3 C          -0.5897    1.7616   27.4443 C.ar    1  UNL1       -0.0030
      4 C          -1.1343    0.4460   27.9159 C.ar    1  UNL1        0.0013
      5 C          -0.3335   -0.4027   28.8587 C.ar    1  UNL1        0.0209
      6 C           1.0118    0.0644   29.3297 C.ar    1  UNL1        0.1021
      7 N           2.0219   -0.5517   30.2517 N.ar    1  UNL1       -0.1690
      8 N           3.1908    0.3832   30.3499 N.ar    1  UNL1       -0.2472
      9 C           2.9031    1.5771   29.4885 C.ar    1  UNL1        0.0965
     10 C           1.5564    1.3800   28.8580 C.ar    1  UNL1        0.0342
     11 C          -1.3904    2.6103   26.5016 C.ar    1  UNL1        0.0103
     12 C          -2.5275    3.4395   27.0206 C.ar    1  UNL1        0.0008
     13 C          -3.3282    4.2881   26.0780 C.ar    1  UNL1        0.0039
     14 C          -2.9918    4.3076   24.6163 C.ar    1  UNL1        0.0723
     15 C          -1.8547    3.4784   24.0972 C.ar    1  UNL1        0.0152
     16 C          -1.0540    2.6297   25.0400 C.ar    1  UNL1        0.0576
     17 CL          0.0831    1.8005   24.5209 Cl      1  UNL1       -0.0823
     18 C          -3.7926    5.1563   23.6736 C.3     1  UNL1        0.4186
     19 F          -4.5933    6.0049   22.7310 F       1  UNL1       -0.1659
     20 F          -2.6368    5.1852   22.7179 F       1  UNL1       -0.1659
     21 F          -4.9483    5.1274   24.6294 F       1  UNL1       -0.1659
     22 C           4.4298    0.1629   31.1661 C.3     1  UNL1        0.1274
     23 C           5.1181   -1.1696   31.1399 C.ar    1  UNL1       -0.0001
     24 C           5.6086   -1.7352   29.8401 C.ar    1  UNL1       -0.0023
     25 C           6.2968   -3.0677   29.8140 C.ar    1  UNL1        0.0042
     26 C           6.4947   -3.8347   31.0878 C.ar    1  UNL1        0.0533
     27 C           6.0042   -3.2693   32.3877 C.ar    1  UNL1        0.0042
     28 C           5.3159   -1.9367   32.4137 C.ar    1  UNL1       -0.0023
     29 C           7.1829   -5.1672   31.0616 C.2     1  UNL1        0.2459
     30 O           6.7799   -6.2386   32.0310 O.2     1  UNL1       -0.2701
     31 N           8.2742   -5.4283   30.0661 N.am    1  UNL1       -0.3005
     32 H           8.5387   -4.7251   29.4299 H       1  UNL1        0.1498
     33 C           8.9624   -6.7609   30.0401 C.3     1  UNL1        0.0956
     34 C           9.1628   -7.4761   28.7368 C.3     1  UNL1        0.0629
     35 C           8.0686   -7.4864   27.7110 C.2     1  UNL1        0.0520
     36 O           7.7626   -8.7444   26.9535 O.co2   1  UNL1       -0.5491
     37 O           7.2803   -6.2388   27.4426 O.co2   1  UNL1       -0.5491
     38 C           4.9806    1.2751   32.0085 C.3     1  UNL1        0.0289
     39 C           4.1966    1.7873   33.1802 C.3     1  UNL1        0.0023
     40 C           4.0043    0.9215   34.3900 C.3     1  UNL1        0.0001
     41 C           3.6050    3.1651   33.1423 C.3     1  UNL1        0.0001
@<TRIPOS>UNITY_ATOM_ATTR
36 1
charge -1
@<TRIPOS>BOND
     1     1     2    1
     2     2     3   ar
     3     3    11    1
     4    11    12   ar
     5    12    13   ar
     6    13    14   ar
     7    14    18    1
     8    18    19    1
     9    18    20    1
    10    18    21    1
    11    14    15   ar
    12    15    16   ar
    13    16    17    1
    14     3     4   ar
    15     4     5   ar
    16     5     6   ar
    17     6     7   ar
    18     7     8   ar
    19     8    22    1
    20    22    38    1
    21    38    39    1
    22    39    40    1
    23    39    41    1
    24    22    23    1
    25    23    24   ar
    26    24    25   ar
    27    25    26   ar
    28    26    29    1
    29    29    30    2
    30    29    31   am
    31    31    33    1
    32    33    34    1
    33    34    35    1
    34    35    36   ar
    35    35    37   ar
    36    26    27   ar
    37    27    28   ar
    38     8     9   ar
    39     9    10   ar
    40    10     2   ar
    41    16    11   ar
    42    10     6   ar
    43    28    23   ar
    44    31    32    1
