@<TRIPOS>MOLECULE
*****
 36 39 0 0 0
SMALL
GASTEIGER

@<TRIPOS>ATOM
      1 C          -9.1672  -17.8080   22.6546 C.3     1  UNL1        0.1412
      2 C          -8.1679  -16.7875   22.1964 C.3     1  UNL1        0.0451
      3 C          -7.4653  -15.9223   23.2003 C.3     1  UNL1        0.0297
      4 C          -7.7621  -16.0776   24.6625 C.ar    1  UNL1       -0.0237
      5 C          -7.0595  -15.2124   25.6664 C.ar    1  UNL1        0.0251
      6 C          -7.3563  -15.3677   27.1284 C.ar    1  UNL1        0.1398
      7 F          -6.6538  -14.5025   28.1324 F       1  UNL1       -0.2042
      8 C          -8.3556  -16.3883   27.5866 C.ar    1  UNL1        0.0293
      9 C          -9.0581  -17.2534   26.5827 C.ar    1  UNL1       -0.0022
     10 C          -8.7614  -17.0981   25.1207 C.ar    1  UNL1       -0.0229
     11 C          -9.4639  -17.9633   24.1167 C.3     1  UNL1        0.0588
     12 C         -10.4632  -18.9838   24.5749 C.3     1  UNL1        0.0074
     13 C         -10.0413  -20.4091   24.7758 C.3     1  UNL1        0.0005
     14 C         -11.8845  -18.5790   24.8321 C.3     1  UNL1        0.0005
     15 O         -10.1863  -18.9071   22.5982 O.3     1  UNL1       -0.4537
     16 C         -11.2762  -18.8673   21.5682 C.2     1  UNL1        0.3473
     17 O         -11.4139  -19.9859   20.5785 O.2     1  UNL1       -0.2473
     18 C         -12.2283  -17.7088   21.5282 C.3     1  UNL1        0.2520
     19 C         -11.6055  -15.9639   19.7069 C.3     1  UNL1        0.1748
     20 O         -12.5267  -17.0281   20.2253 O.3     1  UNL1       -0.3403
     21 C          -9.2243  -18.0344   21.1729 C.3     1  UNL1        0.0577
     22 C          -7.9646  -18.3120   20.4073 C.3     1  UNL1        0.0757
     23 N          -7.7619  -19.6476   19.7555 N.3     1  UNL1       -0.2714
     24 C          -8.6949  -20.1032   18.6730 C.3     1  UNL1        0.0896
     25 C          -6.6261  -20.5276   20.1862 C.3     1  UNL1        0.0728
     26 C          -6.4029  -20.8046   21.6435 C.3     1  UNL1        0.0303
     27 C          -5.6528  -19.8178   22.4881 C.3     1  UNL1        0.1252
     28 C          -4.4133  -19.1629   21.9541 C.2     1  UNL1        0.3513
     29 N          -3.3876  -19.8067   21.0689 N.2     1  UNL1       -0.0350
     30 C          -2.3224  -18.7910   20.7792 C.2     1  UNL1        0.2317
     31 C          -1.0654  -18.8596   19.9637 C.2     1  UNL1        0.0498
     32 C          -0.1758  -17.6569   19.8543 C.2     1  UNL1       -0.0002
     33 C          -0.5432  -16.3855   20.5604 C.2     1  UNL1       -0.0172
     34 C          -1.8002  -16.3169   21.3760 C.3     1  UNL1        0.1037
     35 C          -2.6898  -17.5196   21.4854 C.2     1  UNL1        0.2174
     36 N          -3.9821  -17.7495   22.2115 N.2     1  UNL1       -0.0389
@<TRIPOS>BOND
     1    19    20    1
     2    20    18    1
     3    18    16    1
     4    16    17    2
     5    16    15    1
     6    15     1    1
     7     1    21    1
     8    21    22    1
     9    22    23    1
    10    23    24    1
    11    23    25    1
    12    25    26    1
    13    26    27    1
    14    27    28    1
    15    28    29    2
    16    29    30    1
    17    30    31    2
    18    31    32    1
    19    32    33    2
    20    33    34    1
    21    34    35    1
    22    35    36    2
    23     1     2    1
    24     2     3    1
    25     3     4    1
    26     4     5   ar
    27     5     6   ar
    28     6     7    1
    29     6     8   ar
    30     8     9   ar
    31     9    10   ar
    32    10    11    1
    33    11    12    1
    34    12    13    1
    35    12    14    1
    36    11     1    1
    37    36    28    1
    38    10     4   ar
    39    35    30    1
@<TRIPOS>MOLECULE
*****
 36 39 0 0 0
SMALL
GASTEIGER

@<TRIPOS>ATOM
      1 C          -9.1635  -19.0832   21.8413 C.3     1  UNL1        0.1412
      2 C          -8.8726  -19.8957   23.0681 C.3     1  UNL1        0.0451
      3 C          -9.8696  -19.9469   24.1876 C.3     1  UNL1        0.0297
      4 C         -11.1576  -19.1855   24.0803 C.ar    1  UNL1       -0.0237
      5 C         -12.1546  -19.2366   25.1998 C.ar    1  UNL1        0.0251
      6 C         -13.4425  -18.4752   25.0924 C.ar    1  UNL1        0.1398
      7 F         -14.4396  -18.5263   26.2120 F       1  UNL1       -0.2042
      8 C         -13.7334  -17.6627   23.8656 C.ar    1  UNL1        0.0293
      9 C         -12.7364  -17.6116   22.7461 C.ar    1  UNL1       -0.0022
     10 C         -11.4485  -18.3729   22.8534 C.ar    1  UNL1       -0.0229
     11 C         -10.4514  -18.3218   21.7339 C.3     1  UNL1        0.0588
     12 C         -10.7423  -17.5093   20.5070 C.3     1  UNL1        0.0074
     13 C         -10.3057  -16.0760   20.4358 C.3     1  UNL1        0.0005
     14 C         -11.4697  -18.1302   19.3514 C.3     1  UNL1        0.0005
     15 O          -8.9856  -18.4600   20.4886 O.3     1  UNL1       -0.4537
     16 C          -8.4998  -19.2908   19.3380 C.2     1  UNL1        0.3473
     17 O          -7.1738  -18.9914   18.7040 O.2     1  UNL1       -0.2473
     18 C          -9.3401  -20.4210   18.8215 C.3     1  UNL1        0.2520
     19 C          -9.3386  -21.4533   16.4373 C.3     1  UNL1        0.1748
     20 O          -8.7694  -21.3845   17.8235 O.3     1  UNL1       -0.3403
     21 C          -7.8138  -19.6281   21.4789 C.3     1  UNL1        0.0577
     22 C          -6.6248  -19.3209   22.3402 C.3     1  UNL1        0.0757
     23 N          -5.2439  -19.6564   21.8600 N.3     1  UNL1       -0.2714
     24 C          -5.0589  -20.4155   20.5796 C.3     1  UNL1        0.0896
     25 C          -4.0481  -19.2327   22.6603 C.3     1  UNL1        0.0728
     26 C          -3.2255  -18.0597   22.2158 C.3     1  UNL1        0.0303
     27 C          -3.3784  -16.7340   22.9007 C.3     1  UNL1        0.1252
     28 C          -4.6351  -16.4215   23.6579 C.2     1  UNL1        0.3513
     29 N          -4.7280  -16.1120   25.1226 N.2     1  UNL1       -0.0350
     30 C          -6.1697  -15.8629   25.4532 C.2     1  UNL1        0.2317
     31 C          -6.8590  -15.5145   26.7391 C.2     1  UNL1        0.0498
     32 C          -8.3463  -15.3217   26.7646 C.2     1  UNL1       -0.0002
     33 C          -9.1444  -15.4773   25.5041 C.2     1  UNL1       -0.0172
     34 C          -8.4552  -15.8257   24.2182 C.3     1  UNL1        0.1037
     35 C          -6.9679  -16.0185   24.1927 C.2     1  UNL1        0.2174
     36 N          -6.0194  -16.3637   23.0831 N.2     1  UNL1       -0.0389
@<TRIPOS>BOND
     1    19    20    1
     2    20    18    1
     3    18    16    1
     4    16    17    2
     5    16    15    1
     6    15     1    1
     7     1    21    1
     8    21    22    1
     9    22    23    1
    10    23    24    1
    11    23    25    1
    12    25    26    1
    13    26    27    1
    14    27    28    1
    15    28    29    2
    16    29    30    1
    17    30    31    2
    18    31    32    1
    19    32    33    2
    20    33    34    1
    21    34    35    1
    22    35    36    2
    23     1     2    1
    24     2     3    1
    25     3     4    1
    26     4     5   ar
    27     5     6   ar
    28     6     7    1
    29     6     8   ar
    30     8     9   ar
    31     9    10   ar
    32    10    11    1
    33    11    12    1
    34    12    13    1
    35    12    14    1
    36    11     1    1
    37    36    28    1
    38    10     4   ar
    39    35    30    1
@<TRIPOS>MOLECULE
*****
 36 39 0 0 0
SMALL
GASTEIGER

@<TRIPOS>ATOM
      1 C          -6.1770  -17.6205   22.4045 C.3     1  UNL1        0.1412
      2 C          -7.6745  -17.6946   22.3584 C.3     1  UNL1        0.0451
      3 C          -8.4897  -17.0902   23.4630 C.3     1  UNL1        0.0297
      4 C          -7.8074  -16.4117   24.6138 C.ar    1  UNL1       -0.0237
      5 C          -8.6226  -15.8073   25.7184 C.ar    1  UNL1        0.0251
      6 C          -7.9403  -15.1288   26.8691 C.ar    1  UNL1        0.1398
      7 F          -8.7555  -14.5244   27.9737 F       1  UNL1       -0.2042
      8 C          -6.4428  -15.0547   26.9151 C.ar    1  UNL1        0.0293
      9 C          -5.6277  -15.6591   25.8105 C.ar    1  UNL1       -0.0022
     10 C          -6.3099  -16.3376   24.6599 C.ar    1  UNL1       -0.0229
     11 C          -5.4948  -16.9420   23.5552 C.3     1  UNL1        0.0588
     12 C          -3.9973  -16.8679   23.6013 C.3     1  UNL1        0.0074
     13 C          -3.2632  -15.9443   22.6749 C.3     1  UNL1        0.0005
     14 C          -3.2339  -17.7174   24.5738 C.3     1  UNL1        0.0005
     15 O          -4.7437  -17.8041   22.0025 O.3     1  UNL1       -0.4537
     16 C          -4.1845  -19.1852   21.8286 C.2     1  UNL1        0.3473
     17 O          -4.5467  -20.2687   22.8006 O.2     1  UNL1       -0.2473
     18 C          -3.2633  -19.4826   20.6827 C.3     1  UNL1        0.2520
     19 C          -2.5277  -17.6120   19.0366 C.3     1  UNL1        0.1748
     20 O          -3.4306  -18.7599   19.3790 O.3     1  UNL1       -0.3403
     21 C          -6.3615  -18.3628   21.1142 C.3     1  UNL1        0.0577
     22 C          -7.2445  -19.5744   21.0655 C.3     1  UNL1        0.0757
     23 N          -7.1415  -20.5318   19.9154 N.3     1  UNL1       -0.2714
     24 C          -6.2053  -21.7010   19.9944 C.3     1  UNL1        0.0896
     25 C          -7.9748  -20.3198   18.6863 C.3     1  UNL1        0.0728
     26 C          -9.4706  -20.3921   18.7727 C.3     1  UNL1        0.0303
     27 C         -10.2672  -19.1496   19.0405 C.3     1  UNL1        0.1252
     28 C         -10.9270  -18.9545   20.3735 C.2     1  UNL1        0.3513
     29 N         -12.1090  -18.0739   20.6516 N.2     1  UNL1       -0.0350
     30 C         -12.4331  -18.1809   22.1123 C.2     1  UNL1        0.2317
     31 C         -13.4954  -17.5386   22.9544 C.2     1  UNL1        0.0498
     32 C         -13.5759  -17.8430   24.4209 C.2     1  UNL1       -0.0002
     33 C         -12.5942  -18.7897   25.0455 C.2     1  UNL1       -0.0172
     34 C         -11.5320  -19.4320   24.2034 C.3     1  UNL1        0.1037
     35 C         -11.4515  -19.1276   22.7368 C.2     1  UNL1        0.2174
     36 N         -10.5206  -19.6057   21.6622 N.2     1  UNL1       -0.0389
@<TRIPOS>BOND
     1    19    20    1
     2    20    18    1
     3    18    16    1
     4    16    17    2
     5    16    15    1
     6    15     1    1
     7     1    21    1
     8    21    22    1
     9    22    23    1
    10    23    24    1
    11    23    25    1
    12    25    26    1
    13    26    27    1
    14    27    28    1
    15    28    29    2
    16    29    30    1
    17    30    31    2
    18    31    32    1
    19    32    33    2
    20    33    34    1
    21    34    35    1
    22    35    36    2
    23     1     2    1
    24     2     3    1
    25     3     4    1
    26     4     5   ar
    27     5     6   ar
    28     6     7    1
    29     6     8   ar
    30     8     9   ar
    31     9    10   ar
    32    10    11    1
    33    11    12    1
    34    12    13    1
    35    12    14    1
    36    11     1    1
    37    36    28    1
    38    10     4   ar
    39    35    30    1
@<TRIPOS>MOLECULE
*****
 36 39 0 0 0
SMALL
GASTEIGER

@<TRIPOS>ATOM
      1 C         -13.5738   -4.8352   19.0078 C.3     1  UNL1        0.1412
      2 C         -14.9239   -4.7092   19.6490 C.3     1  UNL1        0.0451
      3 C         -15.5554   -3.3580   19.8083 C.3     1  UNL1        0.0297
      4 C         -14.8367   -2.1326   19.3264 C.ar    1  UNL1       -0.0237
      5 C         -15.4681   -0.7814   19.4857 C.ar    1  UNL1        0.0251
      6 C         -14.7494    0.4438   19.0038 C.ar    1  UNL1        0.1398
      7 F         -15.3809    1.7951   19.1631 F       1  UNL1       -0.2042
      8 C         -13.3992    0.3178   18.3626 C.ar    1  UNL1        0.0293
      9 C         -12.7678   -1.0335   18.2033 C.ar    1  UNL1       -0.0022
     10 C         -13.4865   -2.2587   18.6852 C.ar    1  UNL1       -0.0229
     11 C         -12.8550   -3.6100   18.5259 C.3     1  UNL1        0.0588
     12 C         -11.5049   -3.7360   17.8846 C.3     1  UNL1        0.0074
     13 C         -11.3729   -3.6574   16.3926 C.3     1  UNL1        0.0005
     14 C         -10.2866   -3.9406   18.7356 C.3     1  UNL1        0.0005
     15 O         -12.3223   -5.4623   18.4689 O.3     1  UNL1       -0.4537
     16 C         -12.4102   -6.5252   17.4141 C.2     1  UNL1        0.3473
     17 O         -13.4766   -6.4511   16.3618 O.2     1  UNL1       -0.2473
     18 C         -11.4316   -7.6621   17.4116 C.3     1  UNL1        0.2520
     19 C          -9.3945   -7.6036   19.0230 C.3     1  UNL1        0.1748
     20 O          -9.9752   -7.3985   17.6552 O.3     1  UNL1       -0.3403
     21 C         -13.8578   -6.2782   19.3026 C.3     1  UNL1        0.0577
     22 C         -15.2740   -6.7711   19.3418 C.3     1  UNL1        0.0757
     23 N         -15.5585   -8.2421   19.2699 N.3     1  UNL1       -0.2714
     24 C         -14.7791   -9.1116   18.3284 C.3     1  UNL1        0.0896
     25 C         -16.6225   -8.8435   20.1395 C.3     1  UNL1        0.0728
     26 C         -17.8244   -9.4892   19.5160 C.3     1  UNL1        0.0303
     27 C         -19.0729   -8.6891   19.2900 C.3     1  UNL1        0.1252
     28 C         -18.9842   -7.2094   19.0603 C.2     1  UNL1        0.3513
     29 N         -18.4633   -6.5388   17.8238 N.2     1  UNL1       -0.0350
     30 C         -18.5579   -5.0555   18.0261 C.2     1  UNL1        0.2317
     31 C         -18.1914   -3.8971   17.1464 C.2     1  UNL1        0.0498
     32 C         -18.4041   -2.4927   17.6282 C.2     1  UNL1       -0.0002
     33 C         -18.9834   -2.2466   18.9898 C.2     1  UNL1       -0.0172
     34 C         -19.3499   -3.4050   19.8695 C.3     1  UNL1        0.1037
     35 C         -19.1372   -4.8094   19.3877 C.2     1  UNL1        0.2174
     36 N         -19.4006   -6.1406   20.0269 N.2     1  UNL1       -0.0389
@<TRIPOS>BOND
     1    19    20    1
     2    20    18    1
     3    18    16    1
     4    16    17    2
     5    16    15    1
     6    15     1    1
     7     1    21    1
     8    21    22    1
     9    22    23    1
    10    23    24    1
    11    23    25    1
    12    25    26    1
    13    26    27    1
    14    27    28    1
    15    28    29    2
    16    29    30    1
    17    30    31    2
    18    31    32    1
    19    32    33    2
    20    33    34    1
    21    34    35    1
    22    35    36    2
    23     1     2    1
    24     2     3    1
    25     3     4    1
    26     4     5   ar
    27     5     6   ar
    28     6     7    1
    29     6     8   ar
    30     8     9   ar
    31     9    10   ar
    32    10    11    1
    33    11    12    1
    34    12    13    1
    35    12    14    1
    36    11     1    1
    37    36    28    1
    38    10     4   ar
    39    35    30    1
@<TRIPOS>MOLECULE
*****
 36 39 0 0 0
SMALL
GASTEIGER

@<TRIPOS>ATOM
      1 C           2.2035    0.1147   21.9668 C.3     1  UNL1        0.1412
      2 C           1.4416   -0.1308   20.6983 C.3     1  UNL1        0.0451
      3 C           1.8435   -1.2526   19.7871 C.3     1  UNL1        0.0297
      4 C           3.0073   -2.1288   20.1446 C.ar    1  UNL1       -0.0237
      5 C           3.4093   -3.2506   19.2335 C.ar    1  UNL1        0.0251
      6 C           4.5730   -4.1268   19.5910 C.ar    1  UNL1        0.1398
      7 F           4.9750   -5.2486   18.6798 F       1  UNL1       -0.2042
      8 C           5.3349   -3.8813   20.8595 C.ar    1  UNL1        0.0293
      9 C           4.9330   -2.7596   21.7707 C.ar    1  UNL1       -0.0022
     10 C           3.7692   -1.8834   21.4132 C.ar    1  UNL1       -0.0229
     11 C           3.3672   -0.7616   22.3243 C.3     1  UNL1        0.0588
     12 C           4.1291   -0.5161   23.5929 C.3     1  UNL1        0.0074
     13 C           3.6275   -1.0785   24.8898 C.3     1  UNL1        0.0005
     14 C           5.3926    0.2919   23.5645 C.3     1  UNL1        0.0005
     15 O           2.6102    0.7398   23.2682 O.3     1  UNL1       -0.4537
     16 C           2.4781    2.2215   23.4622 C.2     1  UNL1        0.3473
     17 O           3.1309    3.1654   22.4965 O.2     1  UNL1       -0.2473
     18 C           1.6931    2.7589   24.6220 C.3     1  UNL1        0.2520
     19 C          -0.2247    1.4679   25.8074 C.3     1  UNL1        0.1748
     20 O           1.2268    1.8325   25.7056 O.3     1  UNL1       -0.3403
     21 C           1.1809    1.2080   22.0613 C.3     1  UNL1        0.0577
     22 C           0.1256    1.3415   21.0038 C.3     1  UNL1        0.0757
     23 N          -0.4247    2.6938   20.6597 N.3     1  UNL1       -0.2714
     24 C          -1.3739    3.3781   21.5982 C.3     1  UNL1        0.0896
     25 C          -0.0258    3.3617   19.3773 C.3     1  UNL1        0.0728
     26 C           1.1069    2.8084   18.5643 C.3     1  UNL1        0.0303
     27 C           2.5222    3.1665   18.9088 C.3     1  UNL1        0.1252
     28 C           3.5880    2.1110   18.8928 C.2     1  UNL1        0.3513
     29 N           4.6591    1.9239   19.9260 N.2     1  UNL1       -0.0350
     30 C           5.5028    0.7546   19.5125 C.2     1  UNL1        0.2317
     31 C           6.7007    0.1084   20.1431 C.2     1  UNL1        0.0498
     32 C           7.3488   -1.0734   19.4849 C.2     1  UNL1       -0.0002
     33 C           6.7991   -1.6090   18.1961 C.2     1  UNL1       -0.0172
     34 C           5.6012   -0.9627   17.5655 C.3     1  UNL1        0.1037
     35 C           4.9531    0.2191   18.2237 C.2     1  UNL1        0.2174
     36 N           3.7697    1.0573   17.8407 N.2     1  UNL1       -0.0389
@<TRIPOS>BOND
     1    19    20    1
     2    20    18    1
     3    18    16    1
     4    16    17    2
     5    16    15    1
     6    15     1    1
     7     1    21    1
     8    21    22    1
     9    22    23    1
    10    23    24    1
    11    23    25    1
    12    25    26    1
    13    26    27    1
    14    27    28    1
    15    28    29    2
    16    29    30    1
    17    30    31    2
    18    31    32    1
    19    32    33    2
    20    33    34    1
    21    34    35    1
    22    35    36    2
    23     1     2    1
    24     2     3    1
    25     3     4    1
    26     4     5   ar
    27     5     6   ar
    28     6     7    1
    29     6     8   ar
    30     8     9   ar
    31     9    10   ar
    32    10    11    1
    33    11    12    1
    34    12    13    1
    35    12    14    1
    36    11     1    1
    37    36    28    1
    38    10     4   ar
    39    35    30    1
@<TRIPOS>MOLECULE
*****
 36 39 0 0 0
SMALL
GASTEIGER

@<TRIPOS>ATOM
      1 C           3.7845   -1.7252   20.8589 C.3     1  UNL1        0.1412
      2 C           2.7959   -1.8038   19.7336 C.3     1  UNL1        0.0451
      3 C           1.5883   -0.9140   19.7326 C.3     1  UNL1        0.0297
      4 C           1.3694    0.0544   20.8570 C.ar    1  UNL1       -0.0237
      5 C           0.1618    0.9443   20.8561 C.ar    1  UNL1        0.0251
      6 C          -0.0571    1.9126   21.9804 C.ar    1  UNL1        0.1398
      7 F          -1.2647    2.8025   21.9795 F       1  UNL1       -0.2042
      8 C           0.9316    1.9912   23.1058 C.ar    1  UNL1        0.0293
      9 C           2.1391    1.1014   23.1068 C.ar    1  UNL1       -0.0022
     10 C           2.3580    0.1330   21.9824 C.ar    1  UNL1       -0.0229
     11 C           3.5656   -0.7569   21.9833 C.3     1  UNL1        0.0588
     12 C           4.5542   -0.6783   23.1087 C.3     1  UNL1        0.0074
     13 C           5.8079    0.1299   22.9506 C.3     1  UNL1        0.0005
     14 C           4.2891   -1.4080   24.3922 C.3     1  UNL1        0.0005
     15 O           4.9951   -2.0183   21.6946 O.3     1  UNL1       -0.4537
     16 C           5.3618   -3.4379   22.0117 C.2     1  UNL1        0.3473
     17 O           4.2859   -4.4499   22.2727 O.2     1  UNL1       -0.2473
     18 C           6.8044   -3.8453   22.0679 C.3     1  UNL1        0.2520
     19 C           8.7821   -5.2509   21.1391 C.3     1  UNL1        0.1748
     20 O           7.3541   -4.8003   21.0502 O.3     1  UNL1       -0.3403
     21 C           4.4239   -2.7954   20.0247 C.3     1  UNL1        0.0577
     22 C           4.7360   -2.5348   18.5809 C.3     1  UNL1        0.0757
     23 N           5.9794   -1.7843   18.2059 N.3     1  UNL1       -0.2714
     24 C           7.3245   -2.3141   18.6057 C.3     1  UNL1        0.0896
     25 C           5.8776   -0.5039   17.4312 C.3     1  UNL1        0.0728
     26 C           6.2088    0.8012   18.0925 C.3     1  UNL1        0.0303
     27 C           5.5754    1.1591   19.4042 C.3     1  UNL1        0.1252
     28 C           4.3437    2.0148   19.4336 C.2     1  UNL1        0.3513
     29 N           4.0033    3.0345   20.4796 N.2     1  UNL1       -0.0350
     30 C           2.6854    3.6509   20.1145 C.2     1  UNL1        0.2317
     31 C           1.8557    4.7113   20.7758 C.2     1  UNL1        0.0498
     32 C           0.5520    5.1328   20.1654 C.2     1  UNL1       -0.0002
     33 C           0.0780    4.4940   18.8937 C.2     1  UNL1       -0.0172
     34 C           0.9076    3.4336   18.2324 C.3     1  UNL1        0.1037
     35 C           2.2113    3.0120   18.8428 C.2     1  UNL1        0.2174
     36 N           3.2362    2.0009   18.4220 N.2     1  UNL1       -0.0389
@<TRIPOS>BOND
     1    19    20    1
     2    20    18    1
     3    18    16    1
     4    16    17    2
     5    16    15    1
     6    15     1    1
     7     1    21    1
     8    21    22    1
     9    22    23    1
    10    23    24    1
    11    23    25    1
    12    25    26    1
    13    26    27    1
    14    27    28    1
    15    28    29    2
    16    29    30    1
    17    30    31    2
    18    31    32    1
    19    32    33    2
    20    33    34    1
    21    34    35    1
    22    35    36    2
    23     1     2    1
    24     2     3    1
    25     3     4    1
    26     4     5   ar
    27     5     6   ar
    28     6     7    1
    29     6     8   ar
    30     8     9   ar
    31     9    10   ar
    32    10    11    1
    33    11    12    1
    34    12    13    1
    35    12    14    1
    36    11     1    1
    37    36    28    1
    38    10     4   ar
    39    35    30    1
@<TRIPOS>MOLECULE
*****
 36 39 0 0 0
SMALL
GASTEIGER

@<TRIPOS>ATOM
      1 C           4.5127   -2.5492   21.9765 C.3     1  UNL1        0.1412
      2 C           4.2113   -1.8070   23.2446 C.3     1  UNL1        0.0451
      3 C           3.1547   -0.7424   23.2575 C.3     1  UNL1        0.0297
      4 C           2.3994   -0.4200   22.0022 C.ar    1  UNL1       -0.0237
      5 C           1.3429    0.6446   22.0151 C.ar    1  UNL1        0.0251
      6 C           0.5877    0.9669   20.7598 C.ar    1  UNL1        0.1398
      7 F          -0.4690    2.0316   20.7726 F       1  UNL1       -0.2042
      8 C           0.8891    0.2247   19.4917 C.ar    1  UNL1        0.0293
      9 C           1.9457   -0.8399   19.4788 C.ar    1  UNL1       -0.0022
     10 C           2.7009   -1.1623   20.7341 C.ar    1  UNL1       -0.0229
     11 C           3.7575   -2.2269   20.7212 C.3     1  UNL1        0.0588
     12 C           4.0589   -2.9691   19.4531 C.3     1  UNL1        0.0074
     13 C           3.5161   -4.3521   19.2464 C.3     1  UNL1        0.0005
     14 C           4.9032   -2.3284   18.3916 C.3     1  UNL1        0.0005
     15 O           5.1537   -3.5206   21.0302 O.3     1  UNL1       -0.4537
     16 C           6.6479   -3.6423   20.9784 C.2     1  UNL1        0.3473
     17 O           7.2918   -4.9966   21.0169 O.2     1  UNL1       -0.2473
     18 C           7.4982   -2.4098   20.8882 C.3     1  UNL1        0.2520
     19 C           9.1914   -2.2626   22.8531 C.3     1  UNL1        0.1748
     20 O           8.9116   -2.4355   21.3896 O.3     1  UNL1       -0.3403
     21 C           5.4905   -3.2089   22.9031 C.3     1  UNL1        0.0577
     22 C           5.4853   -2.8698   24.3643 C.3     1  UNL1        0.0757
     23 N           6.4440   -3.5504   25.2957 N.3     1  UNL1       -0.2714
     24 C           7.2231   -4.7443   24.8292 C.3     1  UNL1        0.0896
     25 C           6.6235   -3.0371   26.6937 C.3     1  UNL1        0.0728
     26 C           5.4529   -2.4689   27.4401 C.3     1  UNL1        0.0303
     27 C           5.1705   -0.9969   27.3836 C.3     1  UNL1        0.1252
     28 C           3.7609   -0.4984   27.5060 C.2     1  UNL1        0.3513
     29 N           3.1219    0.5572   26.6531 N.2     1  UNL1       -0.0350
     30 C           1.7090    0.7398   27.1227 C.2     1  UNL1        0.2317
     31 C           0.6054    1.6428   26.6572 C.2     1  UNL1        0.0498
     32 C          -0.7323    1.6031   27.3346 C.2     1  UNL1       -0.0002
     33 C          -0.9664    0.6604   28.4776 C.2     1  UNL1       -0.0172
     34 C           0.1372   -0.2426   28.9432 C.3     1  UNL1        0.1037
     35 C           1.4749   -0.2029   28.2657 C.2     1  UNL1        0.2174
     36 N           2.7430   -0.9682   28.5026 N.2     1  UNL1       -0.0389
@<TRIPOS>BOND
     1    19    20    1
     2    20    18    1
     3    18    16    1
     4    16    17    2
     5    16    15    1
     6    15     1    1
     7     1    21    1
     8    21    22    1
     9    22    23    1
    10    23    24    1
    11    23    25    1
    12    25    26    1
    13    26    27    1
    14    27    28    1
    15    28    29    2
    16    29    30    1
    17    30    31    2
    18    31    32    1
    19    32    33    2
    20    33    34    1
    21    34    35    1
    22    35    36    2
    23     1     2    1
    24     2     3    1
    25     3     4    1
    26     4     5   ar
    27     5     6   ar
    28     6     7    1
    29     6     8   ar
    30     8     9   ar
    31     9    10   ar
    32    10    11    1
    33    11    12    1
    34    12    13    1
    35    12    14    1
    36    11     1    1
    37    36    28    1
    38    10     4   ar
    39    35    30    1
@<TRIPOS>MOLECULE
*****
 36 39 0 0 0
SMALL
GASTEIGER

@<TRIPOS>ATOM
      1 C           3.0039    1.1041   20.1691 C.3     1  UNL1        0.1412
      2 C           1.9089    0.1649   20.5802 C.3     1  UNL1        0.0451
      3 C           2.0371   -1.3036   20.3032 C.3     1  UNL1        0.0297
      4 C           3.2603   -1.8331   19.6150 C.ar    1  UNL1       -0.0237
      5 C           3.3884   -3.3017   19.3379 C.ar    1  UNL1        0.0251
      6 C           4.6116   -3.8311   18.6497 C.ar    1  UNL1        0.1398
      7 F           4.7398   -5.2998   18.3726 F       1  UNL1       -0.2042
      8 C           5.7066   -2.8920   18.2387 C.ar    1  UNL1        0.0293
      9 C           5.5784   -1.4234   18.5157 C.ar    1  UNL1       -0.0022
     10 C           4.3553   -0.8940   19.2039 C.ar    1  UNL1       -0.0229
     11 C           4.2271    0.5747   19.4810 C.3     1  UNL1        0.0588
     12 C           5.3220    1.5138   19.0699 C.3     1  UNL1        0.0074
     13 C           5.4271    1.9647   17.6432 C.3     1  UNL1        0.0005
     14 C           6.3120    2.0021   20.0857 C.3     1  UNL1        0.0005
     15 O           3.7660    2.3811   19.9735 O.3     1  UNL1       -0.4537
     16 C           3.1275    3.5331   19.2556 C.2     1  UNL1        0.3473
     17 O           2.0578    3.2806   18.2348 O.2     1  UNL1       -0.2473
     18 C           3.5587    4.9375   19.5585 C.3     1  UNL1        0.2520
     19 C           1.3317    5.6057   20.7177 C.3     1  UNL1        0.1748
     20 O           2.5352    5.9784   19.9035 O.3     1  UNL1       -0.3403
     21 C           2.0454    2.0770   20.7894 C.3     1  UNL1        0.0577
     22 C           0.6638    1.6316   21.1670 C.3     1  UNL1        0.0757
     23 N          -0.1354    2.4248   22.1579 N.3     1  UNL1       -0.2714
     24 C          -1.3389    3.1969   21.7045 C.3     1  UNL1        0.0896
     25 C           0.2688    2.4459   23.6022 C.3     1  UNL1        0.0728
     26 C           0.9550    1.2566   24.2064 C.3     1  UNL1        0.0303
     27 C           2.4223    1.3128   24.5126 C.3     1  UNL1        0.1252
     28 C           3.3517    0.2959   23.9190 C.2     1  UNL1        0.3513
     29 N           4.6862    0.5791   23.2954 N.2     1  UNL1       -0.0350
     30 C           5.2690   -0.7244   22.8358 C.2     1  UNL1        0.2317
     31 C           6.5610   -1.0607   22.1520 C.2     1  UNL1        0.0498
     32 C           6.8787   -2.4856   21.8077 C.2     1  UNL1       -0.0002
     33 C           5.9044   -3.5744   22.1473 C.2     1  UNL1       -0.0172
     34 C           4.6124   -3.2381   22.8311 C.3     1  UNL1        0.1037
     35 C           4.2947   -1.8132   23.1754 C.2     1  UNL1        0.2174
     36 N           3.1097   -1.1826   23.8448 N.2     1  UNL1       -0.0389
@<TRIPOS>BOND
     1    19    20    1
     2    20    18    1
     3    18    16    1
     4    16    17    2
     5    16    15    1
     6    15     1    1
     7     1    21    1
     8    21    22    1
     9    22    23    1
    10    23    24    1
    11    23    25    1
    12    25    26    1
    13    26    27    1
    14    27    28    1
    15    28    29    2
    16    29    30    1
    17    30    31    2
    18    31    32    1
    19    32    33    2
    20    33    34    1
    21    34    35    1
    22    35    36    2
    23     1     2    1
    24     2     3    1
    25     3     4    1
    26     4     5   ar
    27     5     6   ar
    28     6     7    1
    29     6     8   ar
    30     8     9   ar
    31     9    10   ar
    32    10    11    1
    33    11    12    1
    34    12    13    1
    35    12    14    1
    36    11     1    1
    37    36    28    1
    38    10     4   ar
    39    35    30    1
@<TRIPOS>MOLECULE
*****
 36 39 0 0 0
SMALL
GASTEIGER

@<TRIPOS>ATOM
      1 C           4.5193   -2.6400   21.8462 C.3     1  UNL1        0.1412
      2 C           4.2983   -1.9797   23.1748 C.3     1  UNL1        0.0451
      3 C           3.2571   -0.9093   23.3164 C.3     1  UNL1        0.0297
      4 C           2.4368   -0.4991   22.1293 C.ar    1  UNL1       -0.0237
      5 C           1.3956    0.5713   22.2709 C.ar    1  UNL1        0.0251
      6 C           0.5755    0.9814   21.0838 C.ar    1  UNL1        0.1398
      7 F          -0.4658    2.0518   21.2254 F       1  UNL1       -0.2042
      8 C           0.7965    0.3211   19.7552 C.ar    1  UNL1        0.0293
      9 C           1.8377   -0.7493   19.6137 C.ar    1  UNL1       -0.0022
     10 C           2.6579   -1.1594   20.8007 C.ar    1  UNL1       -0.0229
     11 C           3.6992   -2.2299   20.6592 C.3     1  UNL1        0.0588
     12 C           3.9202   -2.8901   19.3306 C.3     1  UNL1        0.0074
     13 C           4.6863   -2.1764   18.2566 C.3     1  UNL1        0.0005
     14 C           3.3751   -4.2643   19.0760 C.3     1  UNL1        0.0005
     15 O           5.0946   -3.5528   20.8042 O.3     1  UNL1       -0.4537
     16 C           6.5817   -3.7024   20.6766 C.2     1  UNL1        0.3473
     17 O           7.2037   -5.0669   20.7099 O.2     1  UNL1       -0.2473
     18 C           7.4466   -2.4874   20.5157 C.3     1  UNL1        0.2520
     19 C           9.4554   -3.3517   21.9183 C.3     1  UNL1        0.1748
     20 O           8.5623   -2.2275   21.4840 O.3     1  UNL1       -0.3403
     21 C           5.5393   -3.3671   22.6714 C.3     1  UNL1        0.0577
     22 C           5.7395   -2.9991   24.1117 C.3     1  UNL1        0.0757
     23 N           7.0739   -3.2138   24.7622 N.3     1  UNL1       -0.2714
     24 C           7.6286   -4.6009   24.8960 C.3     1  UNL1        0.0896
     25 C           7.8536   -2.0411   25.2789 C.3     1  UNL1        0.0728
     26 C           7.1336   -0.8299   25.7937 C.3     1  UNL1        0.0303
     27 C           7.3886    0.5129   25.1760 C.3     1  UNL1        0.1252
     28 C           6.6445    0.9233   23.9398 C.2     1  UNL1        0.3513
     29 N           5.5779    1.9751   23.8611 N.2     1  UNL1       -0.0350
     30 C           5.1107    2.0557   22.4380 C.2     1  UNL1        0.2317
     31 C           4.0774    2.9121   21.7678 C.2     1  UNL1        0.0498
     32 C           3.8219    2.7665   20.2970 C.2     1  UNL1       -0.0002
     33 C           4.5997    1.7646   19.4962 C.2     1  UNL1       -0.0172
     34 C           5.6330    0.9083   20.1664 C.3     1  UNL1        0.1037
     35 C           5.8884    1.0538   21.6372 C.2     1  UNL1        0.2174
     36 N           6.8364    0.3540   22.5654 N.2     1  UNL1       -0.0389
@<TRIPOS>BOND
     1    19    20    1
     2    20    18    1
     3    18    16    1
     4    16    17    2
     5    16    15    1
     6    15     1    1
     7     1    21    1
     8    21    22    1
     9    22    23    1
    10    23    24    1
    11    23    25    1
    12    25    26    1
    13    26    27    1
    14    27    28    1
    15    28    29    2
    16    29    30    1
    17    30    31    2
    18    31    32    1
    19    32    33    2
    20    33    34    1
    21    34    35    1
    22    35    36    2
    23     1     2    1
    24     2     3    1
    25     3     4    1
    26     4     5   ar
    27     5     6   ar
    28     6     7    1
    29     6     8   ar
    30     8     9   ar
    31     9    10   ar
    32    10    11    1
    33    11    12    1
    34    12    13    1
    35    12    14    1
    36    11     1    1
    37    36    28    1
    38    10     4   ar
    39    35    30    1
