@<TRIPOS>MOLECULE
*****
 43 48 0 0 0
SMALL
GASTEIGER

@<TRIPOS>ATOM
      1 N           3.1558    0.2642   31.5510 N.am    1  UNL1       -0.2222
      2 C           2.5194    0.3539   30.1956 C.2     1  UNL1        0.3219
      3 O           2.8171   -0.5308   29.0214 O.2     1  UNL1       -0.2512
      4 N           1.5331    1.4838   30.2205 N.am    1  UNL1       -0.1907
      5 C           1.5599    2.0924   31.5912 C.2     1  UNL1        0.2529
      6 O           0.7296    3.2512   32.0579 O.2     1  UNL1       -0.2724
      7 C           2.5628    1.3386   32.4136 C.3     1  UNL1        0.1391
      8 C           3.5913    0.4965   33.1086 C.3     1  UNL1        0.0449
      9 C           3.9399    0.7692   34.5417 C.3     1  UNL1        0.0746
     10 N           3.2600    1.8841   35.2799 N.3     1  UNL1       -0.2676
     11 C           2.2316    2.7262   34.5849 C.3     1  UNL1        0.0746
     12 C           1.8829    2.4534   33.1517 C.3     1  UNL1        0.0449
     13 C           6.6980   -1.4247   32.1431 C.ar    1  UNL1        0.2293
     14 C           5.6522   -0.4344   31.7239 C.ar    1  UNL1        0.0924
     15 C           4.2016   -0.7261   31.9702 C.ar    1  UNL1        0.1453
     16 N           3.7968   -2.0080   32.6356 N.ar    1  UNL1       -0.2084
     17 C           4.8424   -2.9983   33.0548 C.ar    1  UNL1        0.2027
     18 N           6.2931   -2.7066   32.8085 N.ar    1  UNL1       -0.1892
     19 C           9.2030   -1.8674   32.6709 C.3     1  UNL1        0.2542
     20 O           8.1486   -1.1331   31.8968 O.3     1  UNL1       -0.4560
     21 C           0.6713    1.9273   29.0757 C.ar    1  UNL1        0.0622
     22 C           0.6645    3.3673   28.6560 C.ar    1  UNL1        0.0154
     23 C          -0.1973    3.8108   27.5112 C.ar    1  UNL1        0.0013
     24 C          -1.0523    2.8142   26.7861 C.ar    1  UNL1        0.0001
     25 C          -1.0455    1.3740   27.2058 C.ar    1  UNL1        0.0013
     26 C          -0.1837    0.9307   28.3506 C.ar    1  UNL1        0.0154
     27 C          -1.9142    3.2576   25.6412 C.ar    1  UNL1        0.0011
     28 C          -3.3349    3.6705   25.8880 C.ar    1  UNL1        0.0000
     29 C          -4.1967    4.1140   24.7432 C.ar    1  UNL1        0.0000
     30 C          -3.6377    4.1445   23.3516 C.ar    1  UNL1        0.0000
     31 C          -2.2169    3.7316   23.1048 C.ar    1  UNL1        0.0011
     32 C          -1.3551    3.2882   24.2495 C.ar    1  UNL1        0.0140
     33 C           0.0656    2.8753   24.0027 C.2     1  UNL1        0.0729
     34 O           1.1601    3.9007   24.0296 O.co2   1  UNL1       -0.5446
     35 O           0.3920    1.4371   23.7292 O.co2   1  UNL1       -0.5446
     36 C           3.6087    2.1568   36.7132 C.3     1  UNL1        0.1183
     37 C           2.6065    1.8808   37.7945 C.ar    1  UNL1        0.0712
     38 N           2.5851    0.5436   38.4738 N.ar    1  UNL1       -0.2471
     39 C           1.5828    0.2677   39.5551 C.ar    1  UNL1        0.0985
     40 C           0.6019    1.3289   39.9571 C.ar    1  UNL1        0.0203
     41 C           0.6232    2.6660   39.2778 C.ar    1  UNL1       -0.0015
     42 C           1.6255    2.9420   38.1965 C.ar    1  UNL1       -0.0069
     43 C           1.6468    4.2792   37.5172 C.3     1  UNL1        0.0323
@<TRIPOS>UNITY_ATOM_ATTR
34 1
charge -1
@<TRIPOS>BOND
     1    19    20    1
     2    20    13    1
     3    13    14   ar
     4    14    15   ar
     5    15     1    1
     6     1     2   am
     7     2     3    2
     8     2     4   am
     9     4    21    1
    10    21    22   ar
    11    22    23   ar
    12    23    24   ar
    13    24    27    1
    14    27    28   ar
    15    28    29   ar
    16    29    30   ar
    17    30    31   ar
    18    31    32   ar
    19    32    33    1
    20    33    34   ar
    21    33    35   ar
    22    24    25   ar
    23    25    26   ar
    24     4     5   am
    25     5     6    2
    26     5     7    1
    27     7     8    1
    28     8     9    1
    29     9    10    1
    30    10    36    1
    31    36    37    1
    32    37    38   ar
    33    38    39   ar
    34    39    40   ar
    35    40    41   ar
    36    41    42   ar
    37    42    43    1
    38    10    11    1
    39    11    12    1
    40    15    16   ar
    41    16    17   ar
    42    17    18   ar
    43    18    13   ar
    44     7     1    1
    45    42    37   ar
    46    26    21   ar
    47    12     7    1
    48    32    27   ar
@<TRIPOS>MOLECULE
*****
 43 48 0 0 0
SMALL
GASTEIGER

@<TRIPOS>ATOM
      1 N           2.8884    1.0520   31.4618 N.am    1  UNL1       -0.2222
      2 C           2.3292    1.0762   30.0701 C.2     1  UNL1        0.3219
      3 O           2.6923    0.1378   28.9576 O.2     1  UNL1       -0.2512
      4 N           1.3432    2.2035   29.9862 N.am    1  UNL1       -0.1907
      5 C           1.2930    2.8761   31.3261 C.2     1  UNL1        0.2529
      6 O           0.4380    4.0535   31.6901 O.2     1  UNL1       -0.2724
      7 C           2.2480    2.1644   32.2381 C.3     1  UNL1        0.1391
      8 C           3.2357    1.3586   33.0287 C.3     1  UNL1        0.0449
      9 C           3.5032    1.6995   34.4647 C.3     1  UNL1        0.0746
     10 N           2.7831    2.8462   35.1101 N.3     1  UNL1       -0.2676
     11 C           1.7955    3.6520   34.3194 C.3     1  UNL1        0.0746
     12 C           1.5279    3.3111   32.8834 C.3     1  UNL1        0.0449
     13 C           6.3907   -0.5623   32.3988 C.ar    1  UNL1        0.2293
     14 C           5.3703    0.4045   31.8752 C.ar    1  UNL1        0.0924
     15 C           3.9088    0.0852   31.9854 C.ar    1  UNL1        0.1453
     16 N           3.4677   -1.2008   32.6190 N.ar    1  UNL1       -0.2084
     17 C           4.4880   -2.1676   33.1426 C.ar    1  UNL1        0.2027
     18 N           5.9496   -1.8483   33.0324 N.ar    1  UNL1       -0.1892
     19 C           8.8469   -0.9822   33.1337 C.3     1  UNL1        0.2542
     20 O           7.8521   -0.2431   32.2886 O.3     1  UNL1       -0.4560
     21 C           0.5472    2.5903   28.7752 C.ar    1  UNL1        0.0622
     22 C           0.7849    3.9152   28.1132 C.ar    1  UNL1        0.0154
     23 C          -0.0111    4.3020   26.9021 C.ar    1  UNL1        0.0013
     24 C          -1.0449    3.3640   26.3530 C.ar    1  UNL1        0.0001
     25 C          -1.2826    2.0391   27.0151 C.ar    1  UNL1        0.0013
     26 C          -0.4865    1.6523   28.2262 C.ar    1  UNL1        0.0154
     27 C          -1.8409    3.7508   25.1420 C.ar    1  UNL1        0.0011
     28 C          -1.3607    3.3653   23.7742 C.ar    1  UNL1        0.0000
     29 C          -2.1567    3.7521   22.5631 C.ar    1  UNL1        0.0000
     30 C          -3.4330    4.5245   22.7199 C.ar    1  UNL1        0.0000
     31 C          -3.9132    4.9100   24.0876 C.ar    1  UNL1        0.0011
     32 C          -3.1172    4.5232   25.2987 C.ar    1  UNL1        0.0140
     33 C          -3.5975    4.9088   26.6664 C.2     1  UNL1        0.0729
     34 O          -4.6782    4.1113   27.3342 O.co2   1  UNL1       -0.5446
     35 O          -2.9970    6.0917   27.3663 O.co2   1  UNL1       -0.5446
     36 C           3.0507    3.1871   36.5462 C.3     1  UNL1        0.1183
     37 C           2.2809    2.5015   37.6358 C.ar    1  UNL1        0.0712
     38 N           0.9839    3.0814   38.1168 N.ar    1  UNL1       -0.2471
     39 C           0.2141    2.3957   39.2065 C.ar    1  UNL1        0.0985
     40 C           0.7414    1.1301   39.8150 C.ar    1  UNL1        0.0203
     41 C           2.0384    0.5502   39.3340 C.ar    1  UNL1       -0.0015
     42 C           2.8082    1.2359   38.2444 C.ar    1  UNL1       -0.0069
     43 C           4.1052    0.6560   37.7633 C.3     1  UNL1        0.0323
@<TRIPOS>UNITY_ATOM_ATTR
34 1
charge -1
@<TRIPOS>BOND
     1    19    20    1
     2    20    13    1
     3    13    14   ar
     4    14    15   ar
     5    15     1    1
     6     1     2   am
     7     2     3    2
     8     2     4   am
     9     4    21    1
    10    21    22   ar
    11    22    23   ar
    12    23    24   ar
    13    24    27    1
    14    27    28   ar
    15    28    29   ar
    16    29    30   ar
    17    30    31   ar
    18    31    32   ar
    19    32    33    1
    20    33    34   ar
    21    33    35   ar
    22    24    25   ar
    23    25    26   ar
    24     4     5   am
    25     5     6    2
    26     5     7    1
    27     7     8    1
    28     8     9    1
    29     9    10    1
    30    10    36    1
    31    36    37    1
    32    37    38   ar
    33    38    39   ar
    34    39    40   ar
    35    40    41   ar
    36    41    42   ar
    37    42    43    1
    38    10    11    1
    39    11    12    1
    40    15    16   ar
    41    16    17   ar
    42    17    18   ar
    43    18    13   ar
    44     7     1    1
    45    42    37   ar
    46    26    21   ar
    47    12     7    1
    48    32    27   ar
@<TRIPOS>MOLECULE
*****
 43 48 0 0 0
SMALL
GASTEIGER

@<TRIPOS>ATOM
      1 N           2.9093    0.8476   31.5121 N.am    1  UNL1       -0.2222
      2 C           2.3591    0.8152   30.1169 C.2     1  UNL1        0.3219
      3 O           2.7520   -0.1481   29.0364 O.2     1  UNL1       -0.2512
      4 N           1.3468    1.9152   29.9922 N.am    1  UNL1       -0.1907
      5 C           1.2715    2.6274   31.3102 C.2     1  UNL1        0.2529
      6 O           0.3860    3.7945   31.6323 O.2     1  UNL1       -0.2724
      7 C           2.2371    1.9676   32.2496 C.3     1  UNL1        0.1391
      8 C           3.2385    1.2108   33.0707 C.3     1  UNL1        0.0449
      9 C           3.4881    1.6023   34.4970 C.3     1  UNL1        0.0746
     10 N           2.7364    2.7506   35.1021 N.3     1  UNL1       -0.2676
     11 C           1.7350    3.5074   34.2810 C.3     1  UNL1        0.0746
     12 C           1.4854    3.1159   32.8547 C.3     1  UNL1        0.0449
     13 C           6.4416   -0.6403   32.5409 C.ar    1  UNL1        0.2293
     14 C           5.4018    0.2848   31.9815 C.ar    1  UNL1        0.0924
     15 C           3.9491   -0.0776   32.0715 C.ar    1  UNL1        0.1453
     16 N           3.5361   -1.3651   32.7209 N.ar    1  UNL1       -0.2084
     17 C           4.5758   -2.2902   33.2803 C.ar    1  UNL1        0.2027
     18 N           6.0286   -1.9278   33.1903 N.ar    1  UNL1       -0.1892
     19 C           8.9256   -1.1445   33.1111 C.3     1  UNL1        0.2542
     20 O           7.8944   -0.2780   32.4509 O.3     1  UNL1       -0.4560
     21 C           0.5500    2.2450   28.7650 C.ar    1  UNL1        0.0622
     22 C          -0.1660    1.1571   28.0209 C.ar    1  UNL1        0.0154
     23 C          -0.9629    1.4869   26.7936 C.ar    1  UNL1        0.0013
     24 C          -1.0439    2.9047   26.3105 C.ar    1  UNL1        0.0001
     25 C          -0.3279    3.9927   27.0547 C.ar    1  UNL1        0.0013
     26 C           0.4690    3.6627   28.2819 C.ar    1  UNL1        0.0154
     27 C          -1.8408    3.2345   25.0833 C.ar    1  UNL1        0.0011
     28 C          -3.2941    3.5854   25.2046 C.ar    1  UNL1        0.0000
     29 C          -4.0910    3.9153   23.9773 C.ar    1  UNL1        0.0000
     30 C          -3.4345    3.8942   22.6288 C.ar    1  UNL1        0.0000
     31 C          -1.9812    3.5432   22.5074 C.ar    1  UNL1        0.0011
     32 C          -1.1844    3.2134   23.7346 C.ar    1  UNL1        0.0140
     33 C           0.2689    2.8625   23.6133 C.2     1  UNL1        0.0729
     34 O           0.6873    1.4259   23.5076 O.co2   1  UNL1       -0.5446
     35 O           1.3039    3.9481   23.5976 O.co2   1  UNL1       -0.5446
     36 C           2.9861    3.1421   36.5285 C.3     1  UNL1        0.1183
     37 C           2.2090    2.4886   37.6326 C.ar    1  UNL1        0.0712
     38 N           0.9381    3.1133   38.1269 N.ar    1  UNL1       -0.2471
     39 C           0.1610    2.4597   39.2311 C.ar    1  UNL1        0.0985
     40 C           0.6550    1.1814   39.8409 C.ar    1  UNL1        0.0203
     41 C           1.9260    0.5567   39.3466 C.ar    1  UNL1       -0.0015
     42 C           2.7030    1.2102   38.2425 C.ar    1  UNL1       -0.0069
     43 C           3.9740    0.5854   37.7483 C.3     1  UNL1        0.0323
@<TRIPOS>UNITY_ATOM_ATTR
34 1
charge -1
@<TRIPOS>BOND
     1    19    20    1
     2    20    13    1
     3    13    14   ar
     4    14    15   ar
     5    15     1    1
     6     1     2   am
     7     2     3    2
     8     2     4   am
     9     4    21    1
    10    21    22   ar
    11    22    23   ar
    12    23    24   ar
    13    24    27    1
    14    27    28   ar
    15    28    29   ar
    16    29    30   ar
    17    30    31   ar
    18    31    32   ar
    19    32    33    1
    20    33    34   ar
    21    33    35   ar
    22    24    25   ar
    23    25    26   ar
    24     4     5   am
    25     5     6    2
    26     5     7    1
    27     7     8    1
    28     8     9    1
    29     9    10    1
    30    10    36    1
    31    36    37    1
    32    37    38   ar
    33    38    39   ar
    34    39    40   ar
    35    40    41   ar
    36    41    42   ar
    37    42    43    1
    38    10    11    1
    39    11    12    1
    40    15    16   ar
    41    16    17   ar
    42    17    18   ar
    43    18    13   ar
    44     7     1    1
    45    42    37   ar
    46    26    21   ar
    47    12     7    1
    48    32    27   ar
@<TRIPOS>MOLECULE
*****
 43 48 0 0 0
SMALL
GASTEIGER

@<TRIPOS>ATOM
      1 N           3.6737   -1.1577   21.6086 N.am    1  UNL1       -0.2222
      2 C           2.4652   -0.2718   21.6781 C.2     1  UNL1        0.3219
      3 O           1.5789    0.1023   20.5272 O.2     1  UNL1       -0.2512
      4 N           2.2986    0.1744   23.1005 N.am    1  UNL1       -0.1907
      5 C           3.4042   -0.4358   23.9102 C.2     1  UNL1        0.2529
      6 O           3.6218   -0.2546   25.3831 O.2     1  UNL1       -0.2724
      7 C           4.2540   -1.2591   22.9881 C.3     1  UNL1        0.1391
      8 C           5.0065   -2.0387   21.9509 C.3     1  UNL1        0.0449
      9 C           6.2230   -2.8252   22.3400 C.3     1  UNL1        0.0746
     10 N           6.6871   -2.8320   23.7664 N.3     1  UNL1       -0.2676
     11 C           5.9346   -2.0524   24.8037 C.3     1  UNL1        0.0746
     12 C           4.7181   -1.2660   24.4145 C.3     1  UNL1        0.0449
     13 C           5.6721   -1.7487   18.2312 C.ar    1  UNL1        0.2293
     14 C           5.1378   -1.0813   19.4638 C.ar    1  UNL1        0.0924
     15 C           4.2080   -1.8250   20.3761 C.ar    1  UNL1        0.1453
     16 N           3.8125   -3.2361   20.0559 N.ar    1  UNL1       -0.2084
     17 C           4.3468   -3.9035   18.8234 C.ar    1  UNL1        0.2027
     18 N           5.2766   -3.1597   17.9110 N.ar    1  UNL1       -0.1892
     19 C           6.2917    0.4077   16.9213 C.3     1  UNL1        0.2542
     20 O           6.6019   -1.0050   17.3188 O.3     1  UNL1       -0.4560
     21 C           1.2166    1.0728   23.6218 C.ar    1  UNL1        0.0622
     22 C           0.7717    2.2568   22.8155 C.ar    1  UNL1        0.0154
     23 C          -0.3104    3.1554   23.3368 C.ar    1  UNL1        0.0013
     24 C          -0.9476    2.8699   24.6644 C.ar    1  UNL1        0.0001
     25 C          -0.5027    1.6859   25.4707 C.ar    1  UNL1        0.0013
     26 C           0.5794    0.7874   24.9494 C.ar    1  UNL1        0.0154
     27 C          -2.0297    3.7684   25.1856 C.ar    1  UNL1        0.0011
     28 C          -3.4451    3.5833   24.7248 C.ar    1  UNL1        0.0000
     29 C          -4.5272    4.4819   25.2460 C.ar    1  UNL1        0.0000
     30 C          -4.1938    5.5655   26.2282 C.ar    1  UNL1        0.0000
     31 C          -2.7784    5.7506   26.6891 C.ar    1  UNL1        0.0011
     32 C          -1.6964    4.8521   26.1678 C.ar    1  UNL1        0.0140
     33 C          -0.2810    5.0372   26.6287 C.2     1  UNL1        0.0729
     34 O           0.1926    4.3673   27.8845 O.co2   1  UNL1       -0.5446
     35 O           0.6608    5.8923   25.8339 O.co2   1  UNL1       -0.5446
     36 C           7.9037   -3.6186   24.1555 C.3     1  UNL1        0.1183
     37 C           7.7538   -4.9930   24.7373 C.ar    1  UNL1        0.0712
     38 N           7.0668   -5.1775   26.0580 N.ar    1  UNL1       -0.2471
     39 C           6.9169   -6.5520   26.6398 C.ar    1  UNL1        0.0985
     40 C           7.4540   -7.7418   25.9010 C.ar    1  UNL1        0.0203
     41 C           8.1409   -7.5573   24.5804 C.ar    1  UNL1       -0.0015
     42 C           8.2908   -6.1829   23.9985 C.ar    1  UNL1       -0.0069
     43 C           8.9778   -5.9983   22.6779 C.3     1  UNL1        0.0323
@<TRIPOS>UNITY_ATOM_ATTR
34 1
charge -1
@<TRIPOS>BOND
     1    19    20    1
     2    20    13    1
     3    13    14   ar
     4    14    15   ar
     5    15     1    1
     6     1     2   am
     7     2     3    2
     8     2     4   am
     9     4    21    1
    10    21    22   ar
    11    22    23   ar
    12    23    24   ar
    13    24    27    1
    14    27    28   ar
    15    28    29   ar
    16    29    30   ar
    17    30    31   ar
    18    31    32   ar
    19    32    33    1
    20    33    34   ar
    21    33    35   ar
    22    24    25   ar
    23    25    26   ar
    24     4     5   am
    25     5     6    2
    26     5     7    1
    27     7     8    1
    28     8     9    1
    29     9    10    1
    30    10    36    1
    31    36    37    1
    32    37    38   ar
    33    38    39   ar
    34    39    40   ar
    35    40    41   ar
    36    41    42   ar
    37    42    43    1
    38    10    11    1
    39    11    12    1
    40    15    16   ar
    41    16    17   ar
    42    17    18   ar
    43    18    13   ar
    44     7     1    1
    45    42    37   ar
    46    26    21   ar
    47    12     7    1
    48    32    27   ar
@<TRIPOS>MOLECULE
*****
 43 48 0 0 0
SMALL
GASTEIGER

@<TRIPOS>ATOM
      1 N           4.0819   -0.3421   31.4957 N.am    1  UNL1       -0.2222
      2 C           3.3306   -0.1298   30.2148 C.2     1  UNL1        0.3219
      3 O           3.6011   -0.8178   28.9096 O.2     1  UNL1       -0.2512
      4 N           2.2612    0.8911   30.4683 N.am    1  UNL1       -0.1907
      5 C           2.3517    1.3099   31.9059 C.2     1  UNL1        0.2529
      6 O           1.4715    2.3143   32.5887 O.2     1  UNL1       -0.2724
      7 C           3.4769    0.5477   32.5408 C.3     1  UNL1        0.1391
      8 C           4.6242   -0.2822   33.0358 C.3     1  UNL1        0.0449
      9 C           5.0667   -0.1736   34.4649 C.3     1  UNL1        0.0746
     10 N           4.3619    0.7648   35.3990 N.3     1  UNL1       -0.2676
     11 C           3.2146    1.5947   34.9041 C.3     1  UNL1        0.0746
     12 C           2.7721    1.4861   33.4750 C.3     1  UNL1        0.0449
     13 C           7.7757   -1.7930   31.5119 C.ar    1  UNL1        0.2293
     14 C           6.6220   -0.8556   31.3114 C.ar    1  UNL1        0.0924
     15 C           5.2356   -1.2795   31.6961 C.ar    1  UNL1        0.1453
     16 N           5.0028   -2.6409   32.2814 N.ar    1  UNL1       -0.2084
     17 C           6.1564   -3.5783   32.4819 C.ar    1  UNL1        0.2027
     18 N           7.5430   -3.1544   32.0971 N.ar    1  UNL1       -0.1892
     19 C           9.4945    0.0887   31.0070 C.3     1  UNL1        0.2542
     20 O           9.1621   -1.3691   31.1272 O.3     1  UNL1       -0.4560
     21 C           1.2748    1.4034   29.4612 C.ar    1  UNL1        0.0622
     22 C           0.2438    0.4793   28.8841 C.ar    1  UNL1        0.0154
     23 C          -0.7428    0.9916   27.8769 C.ar    1  UNL1        0.0013
     24 C          -0.6983    2.4280   27.4469 C.ar    1  UNL1        0.0001
     25 C           0.3328    3.3521   28.0241 C.ar    1  UNL1        0.0013
     26 C           1.3192    2.8397   29.0312 C.ar    1  UNL1        0.0154
     27 C          -1.6848    2.9403   26.4398 C.ar    1  UNL1        0.0011
     28 C          -3.0223    3.4478   26.8910 C.ar    1  UNL1        0.0000
     29 C          -4.0088    3.9601   25.8838 C.ar    1  UNL1        0.0000
     30 C          -3.6578    3.9648   24.4255 C.ar    1  UNL1        0.0000
     31 C          -2.3203    3.4572   23.9743 C.ar    1  UNL1        0.0011
     32 C          -1.3338    2.9450   24.9813 C.ar    1  UNL1        0.0140
     33 C           0.0036    2.4374   24.5301 C.2     1  UNL1        0.0729
     34 O           0.2507    0.9613   24.4299 O.co2   1  UNL1       -0.5446
     35 O           1.0939    3.4059   24.1792 O.co2   1  UNL1       -0.5446
     36 C           4.8044    0.8734   36.8282 C.3     1  UNL1        0.1183
     37 C           4.5065    2.1163   37.6132 C.ar    1  UNL1        0.0712
     38 N           5.4036    3.3124   37.4929 N.ar    1  UNL1       -0.2471
     39 C           5.1056    4.5554   38.2780 C.ar    1  UNL1        0.0985
     40 C           3.9106    4.6022   39.1834 C.ar    1  UNL1        0.0203
     41 C           3.0135    3.4060   39.3037 C.ar    1  UNL1       -0.0015
     42 C           3.3115    2.1631   38.5187 C.ar    1  UNL1       -0.0069
     43 C           2.4144    0.9669   38.6390 C.3     1  UNL1        0.0323
@<TRIPOS>UNITY_ATOM_ATTR
34 1
charge -1
@<TRIPOS>BOND
     1    19    20    1
     2    20    13    1
     3    13    14   ar
     4    14    15   ar
     5    15     1    1
     6     1     2   am
     7     2     3    2
     8     2     4   am
     9     4    21    1
    10    21    22   ar
    11    22    23   ar
    12    23    24   ar
    13    24    27    1
    14    27    28   ar
    15    28    29   ar
    16    29    30   ar
    17    30    31   ar
    18    31    32   ar
    19    32    33    1
    20    33    34   ar
    21    33    35   ar
    22    24    25   ar
    23    25    26   ar
    24     4     5   am
    25     5     6    2
    26     5     7    1
    27     7     8    1
    28     8     9    1
    29     9    10    1
    30    10    36    1
    31    36    37    1
    32    37    38   ar
    33    38    39   ar
    34    39    40   ar
    35    40    41   ar
    36    41    42   ar
    37    42    43    1
    38    10    11    1
    39    11    12    1
    40    15    16   ar
    41    16    17   ar
    42    17    18   ar
    43    18    13   ar
    44     7     1    1
    45    42    37   ar
    46    26    21   ar
    47    12     7    1
    48    32    27   ar
@<TRIPOS>MOLECULE
*****
 43 48 0 0 0
SMALL
GASTEIGER

@<TRIPOS>ATOM
      1 N           7.0281   -2.5187   25.3654 N.am    1  UNL1       -0.2222
      2 C           7.5087   -2.4381   26.7841 C.2     1  UNL1        0.3219
      3 O           8.8336   -2.9216   27.2950 O.2     1  UNL1       -0.2512
      4 N           6.4318   -1.7891   27.6021 N.am    1  UNL1       -0.1907
      5 C           5.2857   -1.4686   26.6890 C.2     1  UNL1        0.2529
      6 O           3.9973   -0.8124   27.0882 O.2     1  UNL1       -0.2724
      7 C           5.6542   -1.9195   25.3066 C.3     1  UNL1        0.1391
      8 C           6.1592   -2.4185   23.9853 C.3     1  UNL1        0.0449
      9 C           5.3040   -2.2924   22.7595 C.3     1  UNL1        0.0746
     10 N           3.9438   -1.6673   22.8550 N.3     1  UNL1       -0.2676
     11 C           3.4389   -1.1683   24.1763 C.3     1  UNL1        0.0746
     12 C           4.2941   -1.2944   25.4021 C.3     1  UNL1        0.0449
     13 C           8.5081   -5.1519   22.7913 C.ar    1  UNL1        0.2293
     14 C           7.7482   -4.5736   23.9481 C.ar    1  UNL1        0.0924
     15 C           7.7880   -3.0970   24.2086 C.ar    1  UNL1        0.1453
     16 N           8.5877   -2.1986   23.3122 N.ar    1  UNL1       -0.2084
     17 C           9.3476   -2.7767   22.1555 C.ar    1  UNL1        0.2027
     18 N           9.3078   -4.2535   21.8950 N.ar    1  UNL1       -0.1892
     19 C           9.0647   -7.5816   23.5238 C.3     1  UNL1        0.2542
     20 O           8.4684   -6.6285   22.5308 O.3     1  UNL1       -0.4560
     21 C           6.4907   -1.5097   29.0746 C.ar    1  UNL1        0.0622
     22 C           6.3693   -0.1013   29.5762 C.ar    1  UNL1        0.0154
     23 C           6.4282    0.1782   31.0487 C.ar    1  UNL1        0.0013
     24 C           6.6085   -0.9508   32.0198 C.ar    1  UNL1        0.0001
     25 C           6.7299   -2.3593   31.5182 C.ar    1  UNL1        0.0013
     26 C           6.6710   -2.6386   30.0456 C.ar    1  UNL1        0.0154
     27 C           6.6674   -0.6714   33.4923 C.ar    1  UNL1        0.0011
     28 C           7.9581   -0.2391   34.1227 C.ar    1  UNL1        0.0000
     29 C           8.0170    0.0404   35.5952 C.ar    1  UNL1        0.0000
     30 C           6.7851   -0.1125   36.4374 C.ar    1  UNL1        0.0000
     31 C           5.4945   -0.5448   35.8071 C.ar    1  UNL1        0.0011
     32 C           5.4356   -0.8243   34.3346 C.ar    1  UNL1        0.0140
     33 C           4.1449   -1.2566   33.7043 C.2     1  UNL1        0.0729
     34 O           3.2868   -0.2550   32.9897 O.co2   1  UNL1       -0.5446
     35 O           3.7124   -2.6903   33.7885 O.co2   1  UNL1       -0.5446
     36 C           3.0886   -1.5411   21.6291 C.3     1  UNL1        0.1183
     37 C           3.7069   -1.1467   20.3206 C.ar    1  UNL1        0.0712
     38 N           4.1609    0.2660   20.1012 N.ar    1  UNL1       -0.2471
     39 C           4.7793    0.6604   18.7927 C.ar    1  UNL1        0.0985
     40 C           4.9435   -0.3579   17.7036 C.ar    1  UNL1        0.0203
     41 C           4.4895   -1.7706   17.9230 C.ar    1  UNL1       -0.0015
     42 C           3.8712   -2.1650   19.2315 C.ar    1  UNL1       -0.0069
     43 C           3.4172   -3.5777   19.4509 C.3     1  UNL1        0.0323
@<TRIPOS>UNITY_ATOM_ATTR
34 1
charge -1
@<TRIPOS>BOND
     1    19    20    1
     2    20    13    1
     3    13    14   ar
     4    14    15   ar
     5    15     1    1
     6     1     2   am
     7     2     3    2
     8     2     4   am
     9     4    21    1
    10    21    22   ar
    11    22    23   ar
    12    23    24   ar
    13    24    27    1
    14    27    28   ar
    15    28    29   ar
    16    29    30   ar
    17    30    31   ar
    18    31    32   ar
    19    32    33    1
    20    33    34   ar
    21    33    35   ar
    22    24    25   ar
    23    25    26   ar
    24     4     5   am
    25     5     6    2
    26     5     7    1
    27     7     8    1
    28     8     9    1
    29     9    10    1
    30    10    36    1
    31    36    37    1
    32    37    38   ar
    33    38    39   ar
    34    39    40   ar
    35    40    41   ar
    36    41    42   ar
    37    42    43    1
    38    10    11    1
    39    11    12    1
    40    15    16   ar
    41    16    17   ar
    42    17    18   ar
    43    18    13   ar
    44     7     1    1
    45    42    37   ar
    46    26    21   ar
    47    12     7    1
    48    32    27   ar
@<TRIPOS>MOLECULE
*****
 43 48 0 0 0
SMALL
GASTEIGER

@<TRIPOS>ATOM
      1 N           1.5375    1.7758   24.1328 N.am    1  UNL1       -0.2222
      2 C           1.6513    1.8874   25.6243 C.2     1  UNL1        0.3219
      3 O           1.0489    2.9649   26.4764 O.2     1  UNL1       -0.2512
      4 N           2.4734    0.7322   26.1142 N.am    1  UNL1       -0.1907
      5 C           2.8676   -0.0933   24.9255 C.2     1  UNL1        0.2529
      6 O           3.6949   -1.3441   24.9559 O.2     1  UNL1       -0.2724
      7 C           2.2892    0.5517   23.7008 C.3     1  UNL1        0.1391
      8 C           1.6511    1.3057   22.5721 C.3     1  UNL1        0.0449
      9 C           1.7985    0.8130   21.1630 C.3     1  UNL1        0.0746
     10 N           2.5841   -0.4337   20.8827 N.3     1  UNL1       -0.2676
     11 C           3.2222   -1.1877   22.0115 C.3     1  UNL1        0.0746
     12 C           3.0748   -0.6951   23.4205 C.3     1  UNL1        0.0449
     13 C          -1.3815    3.4300   22.0132 C.ar    1  UNL1        0.2293
     14 C          -0.6453    2.4836   22.9145 C.ar    1  UNL1        0.0924
     15 C           0.8013    2.7221   23.2314 C.ar    1  UNL1        0.1453
     16 N           1.5117    3.9070   22.6470 N.ar    1  UNL1       -0.2084
     17 C           0.7756    4.8533   21.7458 C.ar    1  UNL1        0.2027
     18 N          -0.6711    4.6148   21.4288 N.ar    1  UNL1       -0.1892
     19 C          -3.3161    3.3138   20.2831 C.3     1  UNL1        0.2542
     20 O          -2.8280    3.1916   21.6962 O.3     1  UNL1       -0.4560
     21 C           2.8373    0.4518   27.5421 C.ar    1  UNL1        0.0622
     22 C           4.1766    0.8717   28.0710 C.ar    1  UNL1        0.0154
     23 C           4.5405    0.5913   29.4990 C.ar    1  UNL1        0.0013
     24 C           3.5650   -0.1090   30.3979 C.ar    1  UNL1        0.0001
     25 C           2.2256   -0.5289   29.8690 C.ar    1  UNL1        0.0013
     26 C           1.8618   -0.2484   28.4410 C.ar    1  UNL1        0.0154
     27 C           3.9289   -0.3894   31.8259 C.ar    1  UNL1        0.0011
     28 C           4.7123   -1.6207   32.1723 C.ar    1  UNL1        0.0000
     29 C           5.0762   -1.9012   33.6002 C.ar    1  UNL1        0.0000
     30 C           4.6566   -0.9501   34.6817 C.ar    1  UNL1        0.0000
     31 C           3.8732    0.2812   34.3353 C.ar    1  UNL1        0.0011
     32 C           3.5094    0.5616   32.9074 C.ar    1  UNL1        0.0140
     33 C           2.7260    1.7930   32.5610 C.2     1  UNL1        0.0729
     34 O           1.2302    1.7290   32.4686 O.co2   1  UNL1       -0.5446
     35 O           3.4383    3.0883   32.3070 O.co2   1  UNL1       -0.5446
     36 C           2.7315   -0.9264   19.4736 C.3     1  UNL1        0.1183
     37 C           4.0777   -1.3474   18.9632 C.ar    1  UNL1        0.0712
     38 N           5.0924   -0.3110   18.5804 N.ar    1  UNL1       -0.2471
     39 C           6.4386   -0.7321   18.0700 C.ar    1  UNL1        0.0985
     40 C           6.7701   -2.1894   17.9425 C.ar    1  UNL1        0.0203
     41 C           5.7555   -3.2257   18.3252 C.ar    1  UNL1       -0.0015
     42 C           4.4093   -2.8047   18.8356 C.ar    1  UNL1       -0.0069
     43 C           3.3946   -3.8410   19.2184 C.3     1  UNL1        0.0323
@<TRIPOS>UNITY_ATOM_ATTR
34 1
charge -1
@<TRIPOS>BOND
     1    19    20    1
     2    20    13    1
     3    13    14   ar
     4    14    15   ar
     5    15     1    1
     6     1     2   am
     7     2     3    2
     8     2     4   am
     9     4    21    1
    10    21    22   ar
    11    22    23   ar
    12    23    24   ar
    13    24    27    1
    14    27    28   ar
    15    28    29   ar
    16    29    30   ar
    17    30    31   ar
    18    31    32   ar
    19    32    33    1
    20    33    34   ar
    21    33    35   ar
    22    24    25   ar
    23    25    26   ar
    24     4     5   am
    25     5     6    2
    26     5     7    1
    27     7     8    1
    28     8     9    1
    29     9    10    1
    30    10    36    1
    31    36    37    1
    32    37    38   ar
    33    38    39   ar
    34    39    40   ar
    35    40    41   ar
    36    41    42   ar
    37    42    43    1
    38    10    11    1
    39    11    12    1
    40    15    16   ar
    41    16    17   ar
    42    17    18   ar
    43    18    13   ar
    44     7     1    1
    45    42    37   ar
    46    26    21   ar
    47    12     7    1
    48    32    27   ar
@<TRIPOS>MOLECULE
*****
 43 48 0 0 0
SMALL
GASTEIGER

@<TRIPOS>ATOM
      1 N           6.1437   -3.0082   25.4827 N.am    1  UNL1       -0.2222
      2 C           5.8908   -2.4040   26.8322 C.2     1  UNL1        0.3219
      3 O           6.6468   -2.7101   28.0910 O.2     1  UNL1       -0.2512
      4 N           4.7490   -1.4399   26.7018 N.am    1  UNL1       -0.1907
      5 C           4.2963   -1.4482   25.2718 C.2     1  UNL1        0.2529
      6 O           3.1781   -0.6309   24.6962 O.2     1  UNL1       -0.2724
      7 C           5.1583   -2.4175   24.5183 C.3     1  UNL1        0.1391
      8 C           6.0945   -3.4135   23.9006 C.3     1  UNL1        0.0449
      9 C           5.9894   -3.7355   22.4394 C.3     1  UNL1        0.0746
     10 N           4.9482   -3.0616   21.5959 N.3     1  UNL1       -0.2676
     11 C           4.0119   -2.0657   22.2135 C.3     1  UNL1        0.0746
     12 C           4.1170   -1.7436   23.6747 C.3     1  UNL1        0.0449
     13 C           8.0184   -6.4894   25.1413 C.ar    1  UNL1        0.2293
     14 C           6.9650   -5.4730   25.4688 C.ar    1  UNL1        0.0924
     15 C           7.1971   -4.0246   25.1552 C.ar    1  UNL1        0.1453
     16 N           8.4825   -3.5927   24.5140 N.ar    1  UNL1       -0.2084
     17 C           9.5359   -4.6090   24.1865 C.ar    1  UNL1        0.2027
     18 N           9.3038   -6.0575   24.5002 N.ar    1  UNL1       -0.1892
     19 C           7.7010   -8.3917   26.8820 C.3     1  UNL1        0.2542
     20 O           7.7864   -7.9378   25.4549 O.3     1  UNL1       -0.4560
     21 C           4.1629   -0.6127   27.8072 C.ar    1  UNL1        0.0622
     22 C           2.7617   -0.8716   28.2758 C.ar    1  UNL1        0.0154
     23 C           2.1756   -0.0444   29.3813 C.ar    1  UNL1        0.0013
     24 C           2.9907    1.0418   30.0183 C.ar    1  UNL1        0.0001
     25 C           4.3920    1.3008   29.5498 C.ar    1  UNL1        0.0013
     26 C           4.9780    0.4735   28.4443 C.ar    1  UNL1        0.0154
     27 C           2.4046    1.8690   31.1238 C.ar    1  UNL1        0.0011
     28 C           1.4012    2.9387   30.8091 C.ar    1  UNL1        0.0000
     29 C           0.8151    3.7659   31.9147 C.ar    1  UNL1        0.0000
     30 C           1.2325    3.5234   33.3349 C.ar    1  UNL1        0.0000
     31 C           2.2358    2.4537   33.6496 C.ar    1  UNL1        0.0011
     32 C           2.8219    1.6265   32.5442 C.ar    1  UNL1        0.0140
     33 C           3.8253    0.5569   32.8589 C.2     1  UNL1        0.0729
     34 O           3.4143   -0.8856   32.8407 O.co2   1  UNL1       -0.5446
     35 O           5.2395    0.9297   33.1918 O.co2   1  UNL1       -0.5446
     36 C           4.8431   -3.3837   20.1346 C.3     1  UNL1        0.1183
     37 C           4.9237   -2.2849   19.1167 C.ar    1  UNL1        0.0712
     38 N           3.6681   -1.6450   18.6028 N.ar    1  UNL1       -0.2471
     39 C           3.7487   -0.5462   17.5849 C.ar    1  UNL1        0.0985
     40 C           5.0848   -0.0872   17.0809 C.ar    1  UNL1        0.0203
     41 C           6.3404   -0.7270   17.5949 C.ar    1  UNL1       -0.0015
     42 C           6.2599   -1.8258   18.6127 C.ar    1  UNL1       -0.0069
     43 C           7.5155   -2.4656   19.1266 C.3     1  UNL1        0.0323
@<TRIPOS>UNITY_ATOM_ATTR
34 1
charge -1
@<TRIPOS>BOND
     1    19    20    1
     2    20    13    1
     3    13    14   ar
     4    14    15   ar
     5    15     1    1
     6     1     2   am
     7     2     3    2
     8     2     4   am
     9     4    21    1
    10    21    22   ar
    11    22    23   ar
    12    23    24   ar
    13    24    27    1
    14    27    28   ar
    15    28    29   ar
    16    29    30   ar
    17    30    31   ar
    18    31    32   ar
    19    32    33    1
    20    33    34   ar
    21    33    35   ar
    22    24    25   ar
    23    25    26   ar
    24     4     5   am
    25     5     6    2
    26     5     7    1
    27     7     8    1
    28     8     9    1
    29     9    10    1
    30    10    36    1
    31    36    37    1
    32    37    38   ar
    33    38    39   ar
    34    39    40   ar
    35    40    41   ar
    36    41    42   ar
    37    42    43    1
    38    10    11    1
    39    11    12    1
    40    15    16   ar
    41    16    17   ar
    42    17    18   ar
    43    18    13   ar
    44     7     1    1
    45    42    37   ar
    46    26    21   ar
    47    12     7    1
    48    32    27   ar
@<TRIPOS>MOLECULE
*****
 43 48 0 0 0
SMALL
GASTEIGER

@<TRIPOS>ATOM
      1 N           5.9892   -2.2469   26.2074 N.am    1  UNL1       -0.2222
      2 C           6.0368   -1.8908   27.6639 C.2     1  UNL1        0.3219
      3 O           7.0683   -2.3513   28.6508 O.2     1  UNL1       -0.2512
      4 N           4.8719   -0.9934   27.9600 N.am    1  UNL1       -0.1907
      5 C           4.1043   -0.7949   26.6866 C.2     1  UNL1        0.2529
      6 O           2.8640    0.0329   26.5247 O.2     1  UNL1       -0.2724
      7 C           4.7948   -1.5696   25.6035 C.3     1  UNL1        0.1391
      8 C           5.5894   -2.3881   24.6295 C.3     1  UNL1        0.0449
      9 C           5.1608   -2.4709   23.1945 C.3     1  UNL1        0.0746
     10 N           3.9377   -1.7352   22.7334 N.3     1  UNL1       -0.2676
     11 C           3.1431   -0.9166   23.7073 C.3     1  UNL1        0.0746
     12 C           3.5717   -0.8338   25.1424 C.3     1  UNL1        0.0449
     13 C           7.7772   -5.4957   24.7939 C.ar    1  UNL1        0.2293
     14 C           6.8018   -4.6166   25.5190 C.ar    1  UNL1        0.0924
     15 C           6.9646   -3.1260   25.4824 C.ar    1  UNL1        0.1453
     16 N           8.1030   -2.5143   24.7207 N.ar    1  UNL1       -0.2084
     17 C           9.0785   -3.3933   23.9957 C.ar    1  UNL1        0.2027
     18 N           8.9156   -4.8841   24.0322 N.ar    1  UNL1       -0.1892
     19 C           7.3183   -7.6768   26.1287 C.3     1  UNL1        0.2542
     20 O           7.6144   -6.9863   24.8304 O.3     1  UNL1       -0.4560
     21 C           4.5339   -0.3990   29.2949 C.ar    1  UNL1        0.0622
     22 C           5.5108    0.5097   29.9803 C.ar    1  UNL1        0.0154
     23 C           5.1728    1.1042   31.3154 C.ar    1  UNL1        0.0013
     24 C           3.8578    0.7900   31.9651 C.ar    1  UNL1        0.0001
     25 C           2.8808   -0.1188   31.2797 C.ar    1  UNL1        0.0013
     26 C           3.2189   -0.7132   29.9446 C.ar    1  UNL1        0.0154
     27 C           3.5198    1.3844   33.3001 C.ar    1  UNL1        0.0011
     28 C           2.7452    2.6667   33.3757 C.ar    1  UNL1        0.0000
     29 C           2.4072    3.2612   34.7108 C.ar    1  UNL1        0.0000
     30 C           2.8438    2.5733   35.9702 C.ar    1  UNL1        0.0000
     31 C           3.6184    1.2910   35.8946 C.ar    1  UNL1        0.0011
     32 C           3.9564    0.6966   34.5596 C.ar    1  UNL1        0.0140
     33 C           4.7310   -0.5857   34.4841 C.2     1  UNL1        0.0729
     34 O           6.2193   -0.5751   34.6713 O.co2   1  UNL1       -0.5446
     35 O           4.0175   -1.8786   34.2212 O.co2   1  UNL1       -0.5446
     36 C           3.5091   -1.8180   21.2982 C.3     1  UNL1        0.1183
     37 C           4.5388   -1.8331   20.2077 C.ar    1  UNL1        0.0712
     38 N           5.5504   -0.7293   20.1160 N.ar    1  UNL1       -0.2471
     39 C           6.5802   -0.7443   19.0254 C.ar    1  UNL1        0.0985
     40 C           6.5984   -1.8631   18.0265 C.ar    1  UNL1        0.0203
     41 C           5.5868   -2.9669   18.1181 C.ar    1  UNL1       -0.0015
     42 C           4.5570   -2.9519   19.2087 C.ar    1  UNL1       -0.0069
     43 C           3.5455   -4.0557   19.3003 C.3     1  UNL1        0.0323
@<TRIPOS>UNITY_ATOM_ATTR
34 1
charge -1
@<TRIPOS>BOND
     1    19    20    1
     2    20    13    1
     3    13    14   ar
     4    14    15   ar
     5    15     1    1
     6     1     2   am
     7     2     3    2
     8     2     4   am
     9     4    21    1
    10    21    22   ar
    11    22    23   ar
    12    23    24   ar
    13    24    27    1
    14    27    28   ar
    15    28    29   ar
    16    29    30   ar
    17    30    31   ar
    18    31    32   ar
    19    32    33    1
    20    33    34   ar
    21    33    35   ar
    22    24    25   ar
    23    25    26   ar
    24     4     5   am
    25     5     6    2
    26     5     7    1
    27     7     8    1
    28     8     9    1
    29     9    10    1
    30    10    36    1
    31    36    37    1
    32    37    38   ar
    33    38    39   ar
    34    39    40   ar
    35    40    41   ar
    36    41    42   ar
    37    42    43    1
    38    10    11    1
    39    11    12    1
    40    15    16   ar
    41    16    17   ar
    42    17    18   ar
    43    18    13   ar
    44     7     1    1
    45    42    37   ar
    46    26    21   ar
    47    12     7    1
    48    32    27   ar
