@<TRIPOS>MOLECULE
*****
 40 43 0 0 0
SMALL
GASTEIGER

@<TRIPOS>ATOM
      1 C         -12.0880  -17.4093   22.7779 C.3     1  UNL1        0.0769
      2 N         -11.3202  -16.2002   23.2236 N.am    1  UNL1       -0.2902
      3 C          -9.9336  -16.3535   23.7748 C.2     1  UNL1        0.3044
      4 O          -9.3148  -17.7158   23.8801 O.2     1  UNL1       -0.2525
      5 N          -9.1658  -15.1444   24.2205 N.am    1  UNL1       -0.2683
      6 H         -11.7264  -15.3061   23.1544 H       1  UNL1        0.1509
      7 H          -9.5720  -14.2503   24.1513 H       1  UNL1        0.1564
      8 C          -7.7792  -15.2977   24.7716 C.ar    1  UNL1        0.0517
      9 C          -7.5491  -15.2307   26.2524 C.ar    1  UNL1        0.0147
     10 C          -6.1625  -15.3840   26.8035 C.ar    1  UNL1        0.0014
     11 C          -5.0060  -15.6042   25.8740 C.ar    1  UNL1        0.0032
     12 C          -5.2361  -15.6712   24.3933 C.ar    1  UNL1        0.0386
     13 C          -6.6228  -15.5179   23.8421 C.ar    1  UNL1        0.0178
     14 C          -4.0796  -15.8914   23.4637 C.ar    1  UNL1        0.1839
     15 N          -3.6108  -14.9436   22.3997 N.ar    1  UNL1       -0.1081
     16 N          -2.4303  -15.5646   21.7134 N.ar    1  UNL1       -0.0227
     17 N          -2.1696  -16.8960   22.3532 N.ar    1  UNL1       -0.0429
     18 N          -3.1890  -17.0980   23.4349 N.ar    1  UNL1       -0.2113
     19 C          -3.2984  -18.2962   24.3306 C.3     1  UNL1        0.1573
     20 C         -14.3110  -18.0425   23.9641 C.3     1  UNL1        0.0017
     21 C         -12.8347  -18.2360   23.7824 C.3     1  UNL1        0.0182
     22 C         -12.1050  -19.2561   24.6051 C.3     1  UNL1        0.0017
     23 C         -12.1091  -17.7917   21.3275 C.3     1  UNL1        0.0661
     24 C         -10.9503  -17.4402   20.4423 C.3     1  UNL1        0.1738
     25 O         -10.8256  -16.0530   19.8854 O.3     1  UNL1       -0.3697
     26 H         -10.0268  -15.9949   19.3382 H       1  UNL1        0.2119
     27 N          -9.9162  -18.4760   20.1139 N.3     1  UNL1       -0.2511
     28 C         -10.1000  -19.3678   18.9219 C.3     1  UNL1        0.0742
     29 C          -9.0659  -20.4035   18.5935 C.3     1  UNL1        0.0175
     30 C          -7.8480  -20.5475   19.4572 C.3     1  UNL1        0.0031
     31 C          -7.6642  -19.6558   20.6492 C.3     1  UNL1        0.0205
     32 C          -8.6983  -18.6201   20.9776 C.3     1  UNL1        0.0745
     33 C          -6.4463  -19.7998   21.5129 C.3     1  UNL1        0.0277
     34 C          -5.0863  -19.5241   20.9436 C.ar    1  UNL1       -0.0220
     35 C          -4.9387  -18.6126   19.7614 C.ar    1  UNL1       -0.0020
     36 C          -3.5787  -18.3369   19.1921 C.ar    1  UNL1        0.0293
     37 C          -2.3661  -18.9726   19.8049 C.ar    1  UNL1        0.1401
     38 F          -1.0060  -18.6969   19.2355 F       1  UNL1       -0.2042
     39 C          -2.5136  -19.8840   20.9871 C.ar    1  UNL1        0.0293
     40 C          -3.8737  -20.1598   21.5564 C.ar    1  UNL1       -0.0020
@<TRIPOS>BOND
     1    20    21    1
     2    21    22    1
     3    21     1    1
     4     1    23    1
     5    23    24    1
     6    24    25    1
     7    24    27    1
     8    27    28    1
     9    28    29    1
    10    29    30    1
    11    30    31    1
    12    31    33    1
    13    33    34    1
    14    34    35   ar
    15    35    36   ar
    16    36    37   ar
    17    37    38    1
    18    37    39   ar
    19    39    40   ar
    20    31    32    1
    21     1     2    1
    22     2     3   am
    23     3     4    2
    24     3     5   am
    25     5     8    1
    26     8     9   ar
    27     9    10   ar
    28    10    11   ar
    29    11    12   ar
    30    12    14    1
    31    14    15   ar
    32    15    16   ar
    33    16    17   ar
    34    17    18   ar
    35    18    19    1
    36    12    13   ar
    37    32    27    1
    38    13     8   ar
    39    40    34   ar
    40    18    14   ar
    41    25    26    1
    42     2     6    1
    43     5     7    1
@<TRIPOS>MOLECULE
*****
 40 43 0 0 0
SMALL
GASTEIGER

@<TRIPOS>ATOM
      1 C         -11.0664  -17.7304   20.0368 C.3     1  UNL1        0.0769
      2 N          -9.8861  -18.4480   19.4521 N.am    1  UNL1       -0.2902
      3 C          -8.6187  -18.5764   20.2440 C.2     1  UNL1        0.3044
      4 O          -8.5316  -17.9871   21.6206 O.2     1  UNL1       -0.2525
      5 N          -7.4384  -19.2940   19.6593 N.am    1  UNL1       -0.2683
      6 H          -9.9433  -18.8347   18.5485 H       1  UNL1        0.1509
      7 H          -7.4956  -19.6807   18.7557 H       1  UNL1        0.1564
      8 C          -6.1710  -19.4223   20.4512 C.ar    1  UNL1        0.0517
      9 C          -6.1683  -20.1826   21.7443 C.ar    1  UNL1        0.0147
     10 C          -4.9010  -20.3110   22.5362 C.ar    1  UNL1        0.0014
     11 C          -3.6362  -19.6791   22.0351 C.ar    1  UNL1        0.0032
     12 C          -3.6388  -18.9189   20.7421 C.ar    1  UNL1        0.0386
     13 C          -4.9063  -18.7905   19.9501 C.ar    1  UNL1        0.0178
     14 C          -2.3740  -18.2870   20.2410 C.ar    1  UNL1        0.1839
     15 N          -1.5484  -18.7647   19.0832 N.ar    1  UNL1       -0.1081
     16 N          -0.3769  -17.8394   18.9364 N.ar    1  UNL1       -0.0227
     17 N          -0.4785  -16.7899   20.0033 N.ar    1  UNL1       -0.0429
     18 N          -1.7128  -17.0666   20.8095 N.ar    1  UNL1       -0.2113
     19 C          -2.2002  -16.2637   21.9790 C.3     1  UNL1        0.1573
     20 C         -10.4279  -15.4726   21.1523 C.3     1  UNL1        0.0017
     21 C         -11.1025  -16.2309   20.0478 C.3     1  UNL1        0.0182
     22 C         -11.8131  -15.4897   18.9543 C.3     1  UNL1        0.0017
     23 C         -12.2108  -18.5123   20.6106 C.3     1  UNL1        0.0661
     24 C         -12.4946  -18.4558   22.0824 C.3     1  UNL1        0.1738
     25 O         -13.8212  -17.9551   22.5717 O.3     1  UNL1       -0.3697
     26 H         -13.8399  -17.9836   23.5411 H       1  UNL1        0.2119
     27 N         -11.4518  -18.9000   23.0649 N.3     1  UNL1       -0.2511
     28 C         -10.8029  -20.2439   22.9137 C.3     1  UNL1        0.0742
     29 C          -9.7602  -20.6880   23.8962 C.3     1  UNL1        0.0175
     30 C          -9.3663  -19.7883   25.0299 C.3     1  UNL1        0.0031
     31 C         -10.0151  -18.4444   25.1812 C.3     1  UNL1        0.0205
     32 C         -11.0579  -18.0003   24.1986 C.3     1  UNL1        0.0745
     33 C          -9.6213  -17.5447   26.3149 C.3     1  UNL1        0.0277
     34 C          -8.3822  -16.7057   26.2109 C.ar    1  UNL1       -0.0220
     35 C          -7.6751  -16.2550   27.4547 C.ar    1  UNL1       -0.0020
     36 C          -6.4360  -15.4160   27.3507 C.ar    1  UNL1        0.0293
     37 C          -5.9040  -15.0278   26.0030 C.ar    1  UNL1        0.1401
     38 F          -4.6649  -14.1888   25.8991 F       1  UNL1       -0.2042
     39 C          -6.6110  -15.4786   24.7593 C.ar    1  UNL1        0.0293
     40 C          -7.8502  -16.3175   24.8632 C.ar    1  UNL1       -0.0020
@<TRIPOS>BOND
     1    20    21    1
     2    21    22    1
     3    21     1    1
     4     1    23    1
     5    23    24    1
     6    24    25    1
     7    24    27    1
     8    27    28    1
     9    28    29    1
    10    29    30    1
    11    30    31    1
    12    31    33    1
    13    33    34    1
    14    34    35   ar
    15    35    36   ar
    16    36    37   ar
    17    37    38    1
    18    37    39   ar
    19    39    40   ar
    20    31    32    1
    21     1     2    1
    22     2     3   am
    23     3     4    2
    24     3     5   am
    25     5     8    1
    26     8     9   ar
    27     9    10   ar
    28    10    11   ar
    29    11    12   ar
    30    12    14    1
    31    14    15   ar
    32    15    16   ar
    33    16    17   ar
    34    17    18   ar
    35    18    19    1
    36    12    13   ar
    37    32    27    1
    38    13     8   ar
    39    40    34   ar
    40    18    14   ar
    41    25    26    1
    42     2     6    1
    43     5     7    1
@<TRIPOS>MOLECULE
*****
 40 43 0 0 0
SMALL
GASTEIGER

@<TRIPOS>ATOM
      1 C          -5.0863  -15.9942   24.2628 C.3     1  UNL1        0.0769
      2 N          -5.9607  -15.2771   23.2774 N.am    1  UNL1       -0.2902
      3 C          -7.3175  -15.8224   22.9429 C.2     1  UNL1        0.3044
      4 O          -7.7997  -17.0848   23.5939 O.2     1  UNL1       -0.2525
      5 N          -8.1919  -15.1053   21.9574 N.am    1  UNL1       -0.2683
      6 H          -5.6442  -14.4486   22.8501 H       1  UNL1        0.1509
      7 H          -7.8753  -14.2768   21.5301 H       1  UNL1        0.1564
      8 C          -9.5486  -15.6506   21.6229 C.ar    1  UNL1        0.0517
      9 C         -10.0969  -15.4983   20.2350 C.ar    1  UNL1        0.0147
     10 C         -11.4536  -16.0436   19.9005 C.ar    1  UNL1        0.0014
     11 C         -12.2621  -16.7411   20.9539 C.ar    1  UNL1        0.0032
     12 C         -11.7140  -16.8934   22.3418 C.ar    1  UNL1        0.0386
     13 C         -10.3572  -16.3481   22.6763 C.ar    1  UNL1        0.0178
     14 C         -12.5226  -17.5909   23.3952 C.ar    1  UNL1        0.1839
     15 N         -14.0063  -17.4795   23.5856 N.ar    1  UNL1       -0.1081
     16 N         -14.3901  -18.3421   24.7512 N.ar    1  UNL1       -0.0227
     17 N         -13.1436  -18.9866   25.2812 N.ar    1  UNL1       -0.0429
     18 N         -11.9894  -18.5224   24.4431 N.ar    1  UNL1       -0.2113
     19 C         -10.5541  -18.9199   24.6216 C.3     1  UNL1        0.1573
     20 C          -4.6567  -16.7646   26.7065 C.3     1  UNL1        0.0017
     21 C          -5.3379  -15.8478   25.7343 C.3     1  UNL1        0.0182
     22 C          -6.2708  -14.7845   26.2335 C.3     1  UNL1        0.0017
     23 C          -3.9602  -16.8578   23.7768 C.3     1  UNL1        0.0661
     24 C          -3.4014  -16.6567   22.3994 C.3     1  UNL1        0.1738
     25 O          -2.7999  -15.3362   22.0194 O.3     1  UNL1       -0.3697
     26 H          -2.4886  -15.3748   21.1016 H       1  UNL1        0.2119
     27 N          -3.4442  -17.7762   21.4018 N.3     1  UNL1       -0.2511
     28 C          -2.3612  -17.9049   20.3721 C.3     1  UNL1        0.0742
     29 C          -2.4040  -19.0243   19.3746 C.3     1  UNL1        0.0175
     30 C          -3.5299  -20.0150   19.4068 C.3     1  UNL1        0.0031
     31 C          -4.6129  -19.8862   20.4366 C.3     1  UNL1        0.0205
     32 C          -4.5701  -18.7668   21.4341 C.3     1  UNL1        0.0745
     33 C          -5.7388  -20.8769   20.4689 C.3     1  UNL1        0.0277
     34 C          -7.1297  -20.4434   20.1119 C.ar    1  UNL1       -0.0220
     35 C          -7.7211  -20.8343   18.7899 C.ar    1  UNL1       -0.0020
     36 C          -9.1119  -20.4008   18.4329 C.ar    1  UNL1        0.0293
     37 C          -9.9115  -19.5765   19.3979 C.ar    1  UNL1        0.1401
     38 F         -11.3025  -19.1430   19.0408 F       1  UNL1       -0.2042
     39 C          -9.3202  -19.1856   20.7198 C.ar    1  UNL1        0.0293
     40 C          -7.9293  -19.6191   21.0768 C.ar    1  UNL1       -0.0020
@<TRIPOS>BOND
     1    20    21    1
     2    21    22    1
     3    21     1    1
     4     1    23    1
     5    23    24    1
     6    24    25    1
     7    24    27    1
     8    27    28    1
     9    28    29    1
    10    29    30    1
    11    30    31    1
    12    31    33    1
    13    33    34    1
    14    34    35   ar
    15    35    36   ar
    16    36    37   ar
    17    37    38    1
    18    37    39   ar
    19    39    40   ar
    20    31    32    1
    21     1     2    1
    22     2     3   am
    23     3     4    2
    24     3     5   am
    25     5     8    1
    26     8     9   ar
    27     9    10   ar
    28    10    11   ar
    29    11    12   ar
    30    12    14    1
    31    14    15   ar
    32    15    16   ar
    33    16    17   ar
    34    17    18   ar
    35    18    19    1
    36    12    13   ar
    37    32    27    1
    38    13     8   ar
    39    40    34   ar
    40    18    14   ar
    41    25    26    1
    42     2     6    1
    43     5     7    1
@<TRIPOS>MOLECULE
*****
 40 43 0 0 0
SMALL
GASTEIGER

@<TRIPOS>ATOM
      1 C           1.1701    0.5084   28.7554 C.3     1  UNL1        0.0769
      2 N           2.0496   -0.5936   28.2434 N.am    1  UNL1       -0.2902
      3 C           2.7895   -0.4228   26.9498 C.2     1  UNL1        0.3044
      4 O           2.6500    0.8499   26.1684 O.2     1  UNL1       -0.2525
      5 N           3.6690   -1.5248   26.4378 N.am    1  UNL1       -0.2683
      6 H           2.1411   -1.4289   28.7563 H       1  UNL1        0.1509
      7 H           3.7605   -2.3601   26.9507 H       1  UNL1        0.1564
      8 C           4.4089   -1.3541   25.1442 C.ar    1  UNL1        0.0517
      9 C           5.5018   -0.3324   25.0345 C.ar    1  UNL1        0.0147
     10 C           6.2417   -0.1617   23.7410 C.ar    1  UNL1        0.0014
     11 C           5.8890   -1.0126   22.5571 C.ar    1  UNL1        0.0032
     12 C           4.7962   -2.0343   22.6668 C.ar    1  UNL1        0.0386
     13 C           4.0562   -2.2050   23.9604 C.ar    1  UNL1        0.0178
     14 C           4.4434   -2.8852   21.4830 C.ar    1  UNL1        0.1839
     15 N           4.8161   -4.3254   21.2900 N.ar    1  UNL1       -0.1081
     16 N           4.2590   -4.7756   19.9720 N.ar    1  UNL1       -0.0227
     17 N           3.5421   -3.6138   19.3505 N.ar    1  UNL1       -0.0429
     18 N           3.6561   -2.4455   20.2844 N.ar    1  UNL1       -0.2113
     19 C           3.0833   -1.0776   20.0591 C.3     1  UNL1        0.1573
     20 C          -0.6364    1.4845   27.1637 C.3     1  UNL1        0.0017
     21 C          -0.2599    0.5946   28.3110 C.3     1  UNL1        0.0182
     22 C          -1.3135   -0.2092   29.0138 C.3     1  UNL1        0.0017
     23 C           1.7207    1.5243   29.7120 C.3     1  UNL1        0.0661
     24 C           1.4386    1.4022   31.1801 C.3     1  UNL1        0.1738
     25 O           0.0852    1.7637   31.7164 O.3     1  UNL1       -0.3697
     26 H           0.0713    1.6285   32.6768 H       1  UNL1        0.2119
     27 N           2.5099    0.9186   32.1121 N.3     1  UNL1       -0.2511
     28 C           3.2243   -0.3697   31.8295 C.3     1  UNL1        0.0742
     29 C           4.2956   -0.8532   32.7615 C.3     1  UNL1        0.0175
     30 C           4.6524   -0.0484   33.9760 C.3     1  UNL1        0.0031
     31 C           3.9380    1.2399   34.2585 C.3     1  UNL1        0.0205
     32 C           2.8668    1.7234   33.3266 C.3     1  UNL1        0.0745
     33 C           4.2949    2.0446   35.4730 C.3     1  UNL1        0.0277
     34 C           3.3805    2.0537   36.6620 C.ar    1  UNL1       -0.0220
     35 C           2.4522    3.2106   36.8855 C.ar    1  UNL1       -0.0020
     36 C           1.5377    3.2197   38.0744 C.ar    1  UNL1        0.0293
     37 C           1.5516    2.0719   39.0400 C.ar    1  UNL1        0.1401
     38 F           0.6371    2.0810   40.2290 F       1  UNL1       -0.2042
     39 C           2.4798    0.9150   38.8166 C.ar    1  UNL1        0.0293
     40 C           3.3943    0.9059   37.6276 C.ar    1  UNL1       -0.0020
@<TRIPOS>BOND
     1    20    21    1
     2    21    22    1
     3    21     1    1
     4     1    23    1
     5    23    24    1
     6    24    25    1
     7    24    27    1
     8    27    28    1
     9    28    29    1
    10    29    30    1
    11    30    31    1
    12    31    33    1
    13    33    34    1
    14    34    35   ar
    15    35    36   ar
    16    36    37   ar
    17    37    38    1
    18    37    39   ar
    19    39    40   ar
    20    31    32    1
    21     1     2    1
    22     2     3   am
    23     3     4    2
    24     3     5   am
    25     5     8    1
    26     8     9   ar
    27     9    10   ar
    28    10    11   ar
    29    11    12   ar
    30    12    14    1
    31    14    15   ar
    32    15    16   ar
    33    16    17   ar
    34    17    18   ar
    35    18    19    1
    36    12    13   ar
    37    32    27    1
    38    13     8   ar
    39    40    34   ar
    40    18    14   ar
    41    25    26    1
    42     2     6    1
    43     5     7    1
@<TRIPOS>MOLECULE
*****
 40 43 0 0 0
SMALL
GASTEIGER

@<TRIPOS>ATOM
      1 C           8.0217   -5.3531   26.3200 C.3     1  UNL1        0.0769
      2 N           8.1366   -4.1346   27.1872 N.am    1  UNL1       -0.2902
      3 C           7.1970   -3.9437   28.3407 C.2     1  UNL1        0.3044
      4 O           6.1425   -4.9713   28.6270 O.2     1  UNL1       -0.2525
      5 N           7.3119   -2.7252   29.2080 N.am    1  UNL1       -0.2683
      6 H           8.8287   -3.4602   26.9993 H       1  UNL1        0.1509
      7 H           8.0041   -2.0508   29.0200 H       1  UNL1        0.1564
      8 C           6.3724   -2.5343   30.3615 C.ar    1  UNL1        0.0517
      9 C           6.5976   -3.2797   31.6436 C.ar    1  UNL1        0.0147
     10 C           5.6580   -3.0888   32.7971 C.ar    1  UNL1        0.0014
     11 C           4.4932   -2.1525   32.6687 C.ar    1  UNL1        0.0032
     12 C           4.2679   -1.4072   31.3866 C.ar    1  UNL1        0.0386
     13 C           5.2075   -1.5981   30.2330 C.ar    1  UNL1        0.0178
     14 C           3.1030   -0.4709   31.2581 C.ar    1  UNL1        0.1839
     15 N           2.0159   -0.5524   30.2278 N.ar    1  UNL1       -0.1081
     16 N           1.0617    0.5794   30.4703 N.ar    1  UNL1       -0.0227
     17 N           1.5592    1.3603   31.6505 N.ar    1  UNL1       -0.0429
     18 N           2.8208    0.7111   32.1374 N.ar    1  UNL1       -0.2113
     19 C           3.6538    1.1645   33.2995 C.3     1  UNL1        0.1573
     20 C           9.0927   -6.9527   28.0646 C.3     1  UNL1        0.0017
     21 C           8.1440   -6.7195   26.9264 C.3     1  UNL1        0.0182
     22 C           7.3177   -7.8528   26.3946 C.3     1  UNL1        0.0017
     23 C           7.7843   -5.2050   24.8462 C.3     1  UNL1        0.0661
     24 C           6.7694   -4.2208   24.3451 C.3     1  UNL1        0.1738
     25 O           5.8530   -3.5308   25.3116 O.3     1  UNL1       -0.3697
     26 H           5.2634   -2.9320   24.8269 H       1  UNL1        0.2119
     27 N           6.6707   -3.9266   22.8775 N.3     1  UNL1       -0.2511
     28 C           7.9176   -3.7557   22.0614 C.3     1  UNL1        0.0742
     29 C           7.8189   -3.4615   20.5939 C.3     1  UNL1        0.0175
     30 C           6.4734   -3.3383   19.9425 C.3     1  UNL1        0.0031
     31 C           5.2265   -3.5092   20.7586 C.3     1  UNL1        0.0205
     32 C           5.3252   -3.8033   22.2261 C.3     1  UNL1        0.0745
     33 C           3.8810   -3.3859   20.1072 C.3     1  UNL1        0.0277
     34 C           3.4155   -2.0557   19.5934 C.ar    1  UNL1       -0.0220
     35 C           3.8328   -1.5906   18.2297 C.ar    1  UNL1       -0.0020
     36 C           3.3672   -0.2605   17.7160 C.ar    1  UNL1        0.0293
     37 C           2.4845    0.6046   18.5659 C.ar    1  UNL1        0.1401
     38 F           2.0190    1.9348   18.0521 F       1  UNL1       -0.2042
     39 C           2.0672    0.1396   19.9295 C.ar    1  UNL1        0.0293
     40 C           2.5327   -1.1906   20.4433 C.ar    1  UNL1       -0.0020
@<TRIPOS>BOND
     1    20    21    1
     2    21    22    1
     3    21     1    1
     4     1    23    1
     5    23    24    1
     6    24    25    1
     7    24    27    1
     8    27    28    1
     9    28    29    1
    10    29    30    1
    11    30    31    1
    12    31    33    1
    13    33    34    1
    14    34    35   ar
    15    35    36   ar
    16    36    37   ar
    17    37    38    1
    18    37    39   ar
    19    39    40   ar
    20    31    32    1
    21     1     2    1
    22     2     3   am
    23     3     4    2
    24     3     5   am
    25     5     8    1
    26     8     9   ar
    27     9    10   ar
    28    10    11   ar
    29    11    12   ar
    30    12    14    1
    31    14    15   ar
    32    15    16   ar
    33    16    17   ar
    34    17    18   ar
    35    18    19    1
    36    12    13   ar
    37    32    27    1
    38    13     8   ar
    39    40    34   ar
    40    18    14   ar
    41    25    26    1
    42     2     6    1
    43     5     7    1
@<TRIPOS>MOLECULE
*****
 40 43 0 0 0
SMALL
GASTEIGER

@<TRIPOS>ATOM
      1 C           1.0220    0.4603   28.8459 C.3     1  UNL1        0.0769
      2 N           1.9201   -0.6602   28.4123 N.am    1  UNL1       -0.2902
      3 C           2.7850   -0.5008   27.1972 C.2     1  UNL1        0.3044
      4 O           2.7518    0.7791   26.4157 O.2     1  UNL1       -0.2525
      5 N           3.6831   -1.6213   26.7637 N.am    1  UNL1       -0.2683
      6 H           1.9419   -1.5002   28.9253 H       1  UNL1        0.1509
      7 H           3.7048   -2.4613   27.2766 H       1  UNL1        0.1564
      8 C           4.5480   -1.4619   25.5486 C.ar    1  UNL1        0.0517
      9 C           5.9040   -0.8322   25.6705 C.ar    1  UNL1        0.0147
     10 C           6.7689   -0.6729   24.4554 C.ar    1  UNL1        0.0014
     11 C           6.2779   -1.1431   23.1183 C.ar    1  UNL1        0.0032
     12 C           4.9219   -1.7728   22.9964 C.ar    1  UNL1        0.0386
     13 C           4.0569   -1.9322   24.2115 C.ar    1  UNL1        0.0178
     14 C           4.4309   -2.2430   21.6593 C.ar    1  UNL1        0.1839
     15 N           5.0063   -3.3714   20.8557 N.ar    1  UNL1       -0.1081
     16 N           4.2092   -3.4932   19.5908 N.ar    1  UNL1       -0.0227
     17 N           3.1412   -2.4402   19.6127 N.ar    1  UNL1       -0.0429
     18 N           3.2782   -1.6675   20.8911 N.ar    1  UNL1       -0.2113
     19 C           2.4143   -0.5207   21.3250 C.3     1  UNL1        0.1573
     20 C          -0.7901    1.5003   27.3018 C.3     1  UNL1        0.0017
     21 C          -0.3966    0.5146   28.3618 C.3     1  UNL1        0.0182
     22 C          -1.4218   -0.4167   28.9376 C.3     1  UNL1        0.0017
     23 C           1.5427    1.5265   29.7637 C.3     1  UNL1        0.0661
     24 C           1.8500    1.1996   31.1949 C.3     1  UNL1        0.1738
     25 O           2.3326   -0.1719   31.5641 O.3     1  UNL1       -0.3697
     26 H           2.4831   -0.2149   32.5213 H       1  UNL1        0.2119
     27 N           1.6749    2.2442   32.2572 N.3     1  UNL1       -0.2511
     28 C           0.7068    3.3708   32.0488 C.3     1  UNL1        0.0742
     29 C           0.5317    4.4153   33.1110 C.3     1  UNL1        0.0175
     30 C           1.3246    4.3331   34.3816 C.3     1  UNL1        0.0031
     31 C           2.2927    3.2065   34.5900 C.3     1  UNL1        0.0205
     32 C           2.4678    2.1620   33.5278 C.3     1  UNL1        0.0745
     33 C           3.0857    3.1244   35.8606 C.3     1  UNL1        0.0277
     34 C           2.4617    2.5513   37.0984 C.ar    1  UNL1       -0.0220
     35 C           2.9320    1.2310   37.6331 C.ar    1  UNL1       -0.0020
     36 C           2.3080    0.6579   38.8709 C.ar    1  UNL1        0.0293
     37 C           1.2137    1.4051   39.5740 C.ar    1  UNL1        0.1401
     38 F           0.5897    0.8319   40.8119 F       1  UNL1       -0.2042
     39 C           0.7434    2.7253   39.0394 C.ar    1  UNL1        0.0293
     40 C           1.3674    3.2984   37.8015 C.ar    1  UNL1       -0.0020
@<TRIPOS>BOND
     1    20    21    1
     2    21    22    1
     3    21     1    1
     4     1    23    1
     5    23    24    1
     6    24    25    1
     7    24    27    1
     8    27    28    1
     9    28    29    1
    10    29    30    1
    11    30    31    1
    12    31    33    1
    13    33    34    1
    14    34    35   ar
    15    35    36   ar
    16    36    37   ar
    17    37    38    1
    18    37    39   ar
    19    39    40   ar
    20    31    32    1
    21     1     2    1
    22     2     3   am
    23     3     4    2
    24     3     5   am
    25     5     8    1
    26     8     9   ar
    27     9    10   ar
    28    10    11   ar
    29    11    12   ar
    30    12    14    1
    31    14    15   ar
    32    15    16   ar
    33    16    17   ar
    34    17    18   ar
    35    18    19    1
    36    12    13   ar
    37    32    27    1
    38    13     8   ar
    39    40    34   ar
    40    18    14   ar
    41    25    26    1
    42     2     6    1
    43     5     7    1
@<TRIPOS>MOLECULE
*****
 40 43 0 0 0
SMALL
GASTEIGER

@<TRIPOS>ATOM
      1 C          -1.7163    3.5836   20.0693 C.3     1  UNL1        0.0769
      2 N          -1.4184    2.1141   20.1123 N.am    1  UNL1       -0.2902
      3 C          -0.0356    1.6387   20.4462 C.2     1  UNL1        0.3044
      4 O           1.0494    2.6327   20.7372 O.2     1  UNL1       -0.2525
      5 N           0.2624    0.1692   20.4892 N.am    1  UNL1       -0.2683
      6 H          -2.1306    1.4617   19.9213 H       1  UNL1        0.1509
      7 H          -0.4498   -0.4833   20.2982 H       1  UNL1        0.1564
      8 C           1.6452   -0.3063   20.8231 C.ar    1  UNL1        0.0517
      9 C           2.0271   -0.5586   22.2516 C.ar    1  UNL1        0.0147
     10 C           3.4099   -1.0341   22.5856 C.ar    1  UNL1        0.0014
     11 C           4.4110   -1.2572   21.4910 C.ar    1  UNL1        0.0032
     12 C           4.0293   -1.0049   20.0626 C.ar    1  UNL1        0.0386
     13 C           2.6463   -0.5295   19.7286 C.ar    1  UNL1        0.0178
     14 C           5.0304   -1.2281   18.9680 C.ar    1  UNL1        0.1839
     15 N           5.6383   -2.5447   18.5842 N.ar    1  UNL1       -0.1081
     16 N           6.5829   -2.3041   17.4441 N.ar    1  UNL1       -0.0227
     17 N           6.5589   -0.8390   17.1233 N.ar    1  UNL1       -0.0429
     18 N           5.5993   -0.1740   18.0652 N.ar    1  UNL1       -0.2113
     19 C           5.2671    1.2884   18.0984 C.3     1  UNL1        0.1573
     20 C          -1.7096    3.9822   17.5021 C.3     1  UNL1        0.0017
     21 C          -1.2971    4.3995   18.8825 C.3     1  UNL1        0.0182
     22 C          -0.4653    5.6326   19.0762 C.3     1  UNL1        0.0017
     23 C          -2.4336    4.2372   21.2132 C.3     1  UNL1        0.0661
     24 C          -3.4442    3.4624   22.0058 C.3     1  UNL1        0.1738
     25 O          -4.3376    2.4728   21.3185 O.3     1  UNL1       -0.3697
     26 H          -4.9272    2.0623   21.9702 H       1  UNL1        0.2119
     27 N          -3.5615    3.6772   23.4857 N.3     1  UNL1       -0.2511
     28 C          -4.9135    3.7058   24.1346 C.3     1  UNL1        0.0742
     29 C          -5.0307    3.9206   25.6145 C.3     1  UNL1        0.0175
     30 C          -3.7959    4.1067   26.4455 C.3     1  UNL1        0.0031
     31 C          -2.4438    4.0780   25.7966 C.3     1  UNL1        0.0205
     32 C          -2.3266    3.8633   24.3167 C.3     1  UNL1        0.0745
     33 C          -1.2090    4.2641   26.6276 C.3     1  UNL1        0.0277
     34 C          -0.6033    3.0935   27.3435 C.ar    1  UNL1       -0.0220
     35 C          -1.2686    1.7504   27.2817 C.ar    1  UNL1       -0.0020
     36 C          -0.6629    0.5798   27.9977 C.ar    1  UNL1        0.0293
     37 C           0.6081    0.7520   28.7754 C.ar    1  UNL1        0.1401
     38 F           1.2139   -0.4188   29.4913 F       1  UNL1       -0.2042
     39 C           1.2735    2.0949   28.8371 C.ar    1  UNL1        0.0293
     40 C           0.6678    3.2657   28.1212 C.ar    1  UNL1       -0.0020
@<TRIPOS>BOND
     1    20    21    1
     2    21    22    1
     3    21     1    1
     4     1    23    1
     5    23    24    1
     6    24    25    1
     7    24    27    1
     8    27    28    1
     9    28    29    1
    10    29    30    1
    11    30    31    1
    12    31    33    1
    13    33    34    1
    14    34    35   ar
    15    35    36   ar
    16    36    37   ar
    17    37    38    1
    18    37    39   ar
    19    39    40   ar
    20    31    32    1
    21     1     2    1
    22     2     3   am
    23     3     4    2
    24     3     5   am
    25     5     8    1
    26     8     9   ar
    27     9    10   ar
    28    10    11   ar
    29    11    12   ar
    30    12    14    1
    31    14    15   ar
    32    15    16   ar
    33    16    17   ar
    34    17    18   ar
    35    18    19    1
    36    12    13   ar
    37    32    27    1
    38    13     8   ar
    39    40    34   ar
    40    18    14   ar
    41    25    26    1
    42     2     6    1
    43     5     7    1
@<TRIPOS>MOLECULE
*****
 40 43 0 0 0
SMALL
GASTEIGER

@<TRIPOS>ATOM
      1 C           7.4199   -4.6727   24.0889 C.3     1  UNL1        0.0769
      2 N           6.0768   -4.2823   23.5470 N.am    1  UNL1       -0.2902
      3 C           5.6620   -2.8409   23.5375 C.2     1  UNL1        0.3044
      4 O           6.5903   -1.7898   24.0699 O.2     1  UNL1       -0.2525
      5 N           4.3189   -2.4505   22.9955 N.am    1  UNL1       -0.2683
      6 H           5.4676   -4.9722   23.1975 H       1  UNL1        0.1509
      7 H           3.7097   -3.1404   22.6461 H       1  UNL1        0.1564
      8 C           3.9041   -1.0091   22.9860 C.ar    1  UNL1        0.0517
      9 C           4.5993   -0.0345   22.0822 C.ar    1  UNL1        0.0147
     10 C           4.1845    1.4069   22.0727 C.ar    1  UNL1        0.0014
     11 C           3.0744    1.8739   22.9670 C.ar    1  UNL1        0.0032
     12 C           2.3792    0.8993   23.8707 C.ar    1  UNL1        0.0386
     13 C           2.7940   -0.5422   23.8803 C.ar    1  UNL1        0.0178
     14 C           1.2691    1.3662   24.7650 C.ar    1  UNL1        0.1839
     15 N          -0.0500    1.9220   24.3163 N.ar    1  UNL1       -0.1081
     16 N          -0.8511    2.2586   25.5390 N.ar    1  UNL1       -0.0227
     17 N          -0.0272    1.9109   26.7433 N.ar    1  UNL1       -0.0429
     18 N           1.2831    1.3594   26.2649 N.ar    1  UNL1       -0.2113
     19 C           2.4097    0.8844   27.1339 C.3     1  UNL1        0.1573
     20 C           7.1842   -6.1654   26.2022 C.3     1  UNL1        0.0017
     21 C           7.6038   -4.8745   25.5638 C.3     1  UNL1        0.0182
     22 C           8.2073   -3.7855   26.4004 C.3     1  UNL1        0.0017
     23 C           8.5792   -4.8613   23.1558 C.3     1  UNL1        0.0661
     24 C           8.3495   -4.9092   21.6743 C.3     1  UNL1        0.1738
     25 O           8.6058   -6.1779   20.9163 O.3     1  UNL1       -0.3697
     26 H           8.4091   -6.0386   19.9767 H       1  UNL1        0.2119
     27 N           7.8634   -3.6884   20.9508 N.3     1  UNL1       -0.2511
     28 C           8.6175   -2.3971   21.0680 C.3     1  UNL1        0.0742
     29 C           8.1314   -1.1764   20.3445 C.3     1  UNL1        0.0175
     30 C           6.8912   -1.2470   19.5038 C.3     1  UNL1        0.0031
     31 C           6.1370   -2.5382   19.3866 C.3     1  UNL1        0.0205
     32 C           6.6231   -3.7590   20.1101 C.3     1  UNL1        0.0745
     33 C           4.8967   -2.6088   18.5460 C.3     1  UNL1        0.0277
     34 C           3.7749   -1.6413   18.7815 C.ar    1  UNL1       -0.0220
     35 C           2.7008   -1.9662   19.7770 C.ar    1  UNL1       -0.0020
     36 C           1.5791   -0.9988   20.0125 C.ar    1  UNL1        0.0293
     37 C           1.5313    0.2937   19.2527 C.ar    1  UNL1        0.1401
     38 F           0.4094    1.2612   19.4883 F       1  UNL1       -0.2042
     39 C           2.6053    0.6186   18.2573 C.ar    1  UNL1        0.0293
     40 C           3.7272   -0.3489   18.0217 C.ar    1  UNL1       -0.0020
@<TRIPOS>BOND
     1    20    21    1
     2    21    22    1
     3    21     1    1
     4     1    23    1
     5    23    24    1
     6    24    25    1
     7    24    27    1
     8    27    28    1
     9    28    29    1
    10    29    30    1
    11    30    31    1
    12    31    33    1
    13    33    34    1
    14    34    35   ar
    15    35    36   ar
    16    36    37   ar
    17    37    38    1
    18    37    39   ar
    19    39    40   ar
    20    31    32    1
    21     1     2    1
    22     2     3   am
    23     3     4    2
    24     3     5   am
    25     5     8    1
    26     8     9   ar
    27     9    10   ar
    28    10    11   ar
    29    11    12   ar
    30    12    14    1
    31    14    15   ar
    32    15    16   ar
    33    16    17   ar
    34    17    18   ar
    35    18    19    1
    36    12    13   ar
    37    32    27    1
    38    13     8   ar
    39    40    34   ar
    40    18    14   ar
    41    25    26    1
    42     2     6    1
    43     5     7    1
@<TRIPOS>MOLECULE
*****
 40 43 0 0 0
SMALL
GASTEIGER

@<TRIPOS>ATOM
      1 C           7.2421   -5.0530   30.8226 C.3     1  UNL1        0.0769
      2 N           6.2969   -4.6478   31.9146 N.am    1  UNL1       -0.2902
      3 C           5.7753   -3.2426   31.9719 C.2     1  UNL1        0.3044
      4 O           6.1989   -2.2426   30.9373 O.2     1  UNL1       -0.2525
      5 N           4.8300   -2.8374   33.0638 N.am    1  UNL1       -0.2683
      6 H           6.0188   -5.3041   32.5937 H       1  UNL1        0.1509
      7 H           4.5520   -3.4938   33.7429 H       1  UNL1        0.1564
      8 C           4.3084   -1.4322   33.1212 C.ar    1  UNL1        0.0517
      9 C           4.5773   -0.5809   34.3266 C.ar    1  UNL1        0.0147
     10 C           4.0557    0.8242   34.3839 C.ar    1  UNL1        0.0014
     11 C           3.2652    1.3782   33.2358 C.ar    1  UNL1        0.0032
     12 C           2.9962    0.5270   32.0304 C.ar    1  UNL1        0.0386
     13 C           3.5179   -0.8782   31.9731 C.ar    1  UNL1        0.0178
     14 C           2.2057    1.0810   30.8823 C.ar    1  UNL1        0.1839
     15 N           0.7295    0.9206   30.6694 N.ar    1  UNL1       -0.1081
     16 N           0.3640    1.6331   29.4010 N.ar    1  UNL1       -0.0227
     17 N           1.6143    2.2339   28.8300 N.ar    1  UNL1       -0.0429
     18 N           2.7524    1.8927   29.7455 N.ar    1  UNL1       -0.2113
     19 C           4.1858    2.2929   29.5573 C.3     1  UNL1        0.1573
     20 C           9.3895   -3.8668   31.6777 C.3     1  UNL1        0.0017
     21 C           8.7202   -5.0674   31.0773 C.3     1  UNL1        0.0182
     22 C           9.5291   -6.2824   30.7314 C.3     1  UNL1        0.0017
     23 C           6.7092   -5.4438   29.4760 C.3     1  UNL1        0.0661
     24 C           7.0739   -4.6403   28.2630 C.3     1  UNL1        0.1738
     25 O           7.1435   -3.1443   28.3474 O.3     1  UNL1       -0.3697
     26 H           7.3908   -2.7828   27.4819 H       1  UNL1        0.2119
     27 N           7.3692   -5.3329   26.9656 N.3     1  UNL1       -0.2511
     28 C           7.4677   -6.8289   26.9195 C.3     1  UNL1        0.0742
     29 C           7.7630   -7.5214   25.6221 C.3     1  UNL1        0.0175
     30 C           7.9597   -6.7179   24.3708 C.3     1  UNL1        0.0031
     31 C           7.8612   -5.2218   24.4170 C.3     1  UNL1        0.0205
     32 C           7.5659   -4.5294   25.7144 C.3     1  UNL1        0.0745
     33 C           8.0579   -4.4183   23.1657 C.3     1  UNL1        0.0277
     34 C           6.8812   -4.0788   22.2997 C.ar    1  UNL1       -0.0220
     35 C           5.5382   -3.8338   22.9214 C.ar    1  UNL1       -0.0020
     36 C           4.3616   -3.4943   22.0553 C.ar    1  UNL1        0.0293
     37 C           4.5278   -3.3997   20.5675 C.ar    1  UNL1        0.1401
     38 F           3.3510   -3.0602   19.7015 F       1  UNL1       -0.2042
     39 C           5.8707   -3.6447   19.9458 C.ar    1  UNL1        0.0293
     40 C           7.0475   -3.9842   20.8119 C.ar    1  UNL1       -0.0020
@<TRIPOS>BOND
     1    20    21    1
     2    21    22    1
     3    21     1    1
     4     1    23    1
     5    23    24    1
     6    24    25    1
     7    24    27    1
     8    27    28    1
     9    28    29    1
    10    29    30    1
    11    30    31    1
    12    31    33    1
    13    33    34    1
    14    34    35   ar
    15    35    36   ar
    16    36    37   ar
    17    37    38    1
    18    37    39   ar
    19    39    40   ar
    20    31    32    1
    21     1     2    1
    22     2     3   am
    23     3     4    2
    24     3     5   am
    25     5     8    1
    26     8     9   ar
    27     9    10   ar
    28    10    11   ar
    29    11    12   ar
    30    12    14    1
    31    14    15   ar
    32    15    16   ar
    33    16    17   ar
    34    17    18   ar
    35    18    19    1
    36    12    13   ar
    37    32    27    1
    38    13     8   ar
    39    40    34   ar
    40    18    14   ar
    41    25    26    1
    42     2     6    1
    43     5     7    1
