@<TRIPOS>MOLECULE
*****
 32 35 0 0 0
SMALL
GASTEIGER

@<TRIPOS>ATOM
      1 C          -1.6641    3.3428   24.5329 C.2     1  UNL1        0.2528
      2 O          -0.5427    3.2760   23.5389 O.2     1  UNL1       -0.2696
      3 N          -3.0749    3.5330   24.0602 N.am    1  UNL1       -0.2486
      4 C          -4.1963    3.5998   25.0541 C.3     1  UNL1        0.1458
      5 C          -5.6071    3.7900   24.5814 C.3     1  UNL1        0.2272
      6 O          -5.8966    3.9135   23.1148 O.3     1  UNL1       -0.4723
      7 C          -4.7751    3.8467   22.1209 C.ar    1  UNL1        0.1537
      8 C          -5.0645    3.9702   20.6542 C.ar    1  UNL1        0.0574
      9 C          -3.9431    3.9034   19.6603 C.ar    1  UNL1        0.0888
     10 N          -4.2325    4.0269   18.1936 N.ar    1  UNL1       -0.2238
     11 C          -3.1111    3.9601   17.1997 C.ar    1  UNL1        0.2000
     12 N          -1.7003    3.7699   17.6724 N.ar    1  UNL1       -0.2089
     13 C          -1.4108    3.6464   19.1390 C.ar    1  UNL1        0.1353
     14 C          -2.5323    3.7132   20.1330 C.ar    1  UNL1        0.0509
     15 C          -2.2429    3.5897   21.5996 C.ar    1  UNL1        0.0223
     16 C          -3.3643    3.6565   22.5936 C.ar    1  UNL1        0.0885
     17 C          -0.6852    1.9963   26.5275 C.2     1  UNL1       -0.0041
     18 C          -1.3747    3.2193   25.9995 C.2     1  UNL1        0.0551
     19 C          -0.3958    1.8729   27.9942 C.3     1  UNL1        0.0991
     20 C           0.9991   -0.1658   28.7992 C.3     1  UNL1        0.0899
     21 N          -0.3257    0.5177   28.6334 N.3     1  UNL1       -0.2665
     22 C          -1.5807   -0.1540   29.1067 C.3     1  UNL1        0.0899
     23 N          -0.0000    3.4562   19.6116 N.pl3   1  UNL1       -0.2978
     24 H           0.5308    4.2328   19.9020 H       1  UNL1        0.1536
     25 C           0.6020    2.0827   19.6419 C.ar    1  UNL1        0.0504
     26 C           0.1948    1.1085   20.7073 C.ar    1  UNL1        0.0170
     27 C           0.7968   -0.2650   20.7375 C.ar    1  UNL1        0.0318
     28 C           1.8062   -0.6644   19.7023 C.ar    1  UNL1        0.1507
     29 F           2.4083   -2.0379   19.7325 F       1  UNL1       -0.2033
     30 C           2.2135    0.3098   18.6369 C.ar    1  UNL1        0.0863
     31 CL          3.2229   -0.0896   17.6017 Cl      1  UNL1       -0.0799
     32 C           1.6114    1.6833   18.6067 C.ar    1  UNL1        0.0283
@<TRIPOS>BOND
     1    20    21    1
     2    21    22    1
     3    21    19    1
     4    19    17    1
     5    17    18    2
     6    18     1    1
     7     1     2    2
     8     1     3   am
     9     3     4    1
    10     4     5    1
    11     5     6    1
    12     6     7    1
    13     7     8   ar
    14     8     9   ar
    15     9    10   ar
    16    10    11   ar
    17    11    12   ar
    18    12    13   ar
    19    13    23    1
    20    23    25    1
    21    25    26   ar
    22    26    27   ar
    23    27    28   ar
    24    28    29    1
    25    28    30   ar
    26    30    31    1
    27    30    32   ar
    28    13    14   ar
    29    14    15   ar
    30    15    16   ar
    31    16     3    1
    32    16     7   ar
    33    14     9   ar
    34    32    25   ar
    35    23    24    1
@<TRIPOS>MOLECULE
*****
 32 35 0 0 0
SMALL
GASTEIGER

@<TRIPOS>ATOM
      1 C          -6.8867  -19.8880   21.6412 C.2     1  UNL1        0.2528
      2 O          -7.1615  -19.6946   23.1031 O.2     1  UNL1       -0.2696
      3 N          -7.9903  -19.7110   20.6408 N.am    1  UNL1       -0.2486
      4 C          -7.7155  -19.9044   19.1790 C.3     1  UNL1        0.1458
      5 C          -8.8191  -19.7274   18.1785 C.3     1  UNL1        0.2272
      6 O         -10.1974  -19.3569   18.6400 O.3     1  UNL1       -0.4723
      7 C         -10.4721  -19.1635   20.1018 C.ar    1  UNL1        0.1537
      8 C         -11.8505  -18.7930   20.5633 C.ar    1  UNL1        0.0574
      9 C         -12.1253  -18.5996   22.0252 C.ar    1  UNL1        0.0888
     10 N         -13.5036  -18.2291   22.4867 N.ar    1  UNL1       -0.2238
     11 C         -13.7784  -18.0356   23.9485 C.ar    1  UNL1        0.2000
     12 N         -12.6748  -18.2127   24.9489 N.ar    1  UNL1       -0.2089
     13 C         -11.2965  -18.5831   24.4875 C.ar    1  UNL1        0.1353
     14 C         -11.0217  -18.7766   23.0256 C.ar    1  UNL1        0.0509
     15 C          -9.6434  -19.1471   22.5642 C.ar    1  UNL1        0.0223
     16 C          -9.3686  -19.3405   21.1022 C.ar    1  UNL1        0.0885
     17 C          -4.4731  -19.1920   20.9779 C.2     1  UNL1       -0.0041
     18 C          -5.5084  -20.2585   21.1798 C.2     1  UNL1        0.0551
     19 C          -3.0947  -19.5626   20.5165 C.3     1  UNL1        0.0991
     20 C          -2.8503  -17.5662   18.8719 C.3     1  UNL1        0.0899
     21 N          -2.2350  -18.5439   19.8287 N.3     1  UNL1       -0.2665
     22 C          -0.7598  -18.5029   20.0978 C.3     1  UNL1        0.0899
     23 N         -10.1930  -18.7602   25.4879 N.pl3   1  UNL1       -0.2978
     24 H         -10.1101  -19.6060   25.9849 H       1  UNL1        0.1536
     25 C          -9.2156  -17.6486   25.7311 C.ar    1  UNL1        0.0504
     26 C          -8.8070  -17.3023   27.1322 C.ar    1  UNL1        0.0170
     27 C          -7.8297  -16.1907   27.3753 C.ar    1  UNL1        0.0318
     28 C          -7.2609  -15.4254   26.2174 C.ar    1  UNL1        0.1507
     29 F          -6.2836  -14.3138   26.4605 F       1  UNL1       -0.2033
     30 C          -7.6695  -15.7717   24.8163 C.ar    1  UNL1        0.0863
     31 CL         -7.1008  -15.0064   23.6583 Cl      1  UNL1       -0.0799
     32 C          -8.6469  -16.8833   24.5731 C.ar    1  UNL1        0.0283
@<TRIPOS>BOND
     1    20    21    1
     2    21    22    1
     3    21    19    1
     4    19    17    1
     5    17    18    2
     6    18     1    1
     7     1     2    2
     8     1     3   am
     9     3     4    1
    10     4     5    1
    11     5     6    1
    12     6     7    1
    13     7     8   ar
    14     8     9   ar
    15     9    10   ar
    16    10    11   ar
    17    11    12   ar
    18    12    13   ar
    19    13    23    1
    20    23    25    1
    21    25    26   ar
    22    26    27   ar
    23    27    28   ar
    24    28    29    1
    25    28    30   ar
    26    30    31    1
    27    30    32   ar
    28    13    14   ar
    29    14    15   ar
    30    15    16   ar
    31    16     3    1
    32    16     7   ar
    33    14     9   ar
    34    32    25   ar
    35    23    24    1
@<TRIPOS>MOLECULE
*****
 32 35 0 0 0
SMALL
GASTEIGER

@<TRIPOS>ATOM
      1 C           4.1727   -0.2957   33.0087 C.2     1  UNL1        0.2528
      2 O           4.4212    0.5541   34.2195 O.2     1  UNL1       -0.2696
      3 N           3.1076    0.0919   32.0261 N.am    1  UNL1       -0.2486
      4 C           2.8591   -0.7579   30.8154 C.3     1  UNL1        0.1458
      5 C           1.7941   -0.3703   29.8328 C.3     1  UNL1        0.2272
      6 O           0.9776    0.8671   30.0610 O.3     1  UNL1       -0.4723
      7 C           1.2261    1.7169   31.2717 C.ar    1  UNL1        0.1537
      8 C           0.4095    2.9543   31.5000 C.ar    1  UNL1        0.0574
      9 C           0.6581    3.8041   32.7107 C.ar    1  UNL1        0.0888
     10 N          -0.1585    5.0416   32.9390 N.ar    1  UNL1       -0.2238
     11 C           0.0900    5.8914   34.1498 C.ar    1  UNL1        0.2000
     12 N           1.1551    5.5038   35.1323 N.ar    1  UNL1       -0.2089
     13 C           1.9716    4.2665   34.9042 C.ar    1  UNL1        0.1353
     14 C           1.7231    3.4166   33.6933 C.ar    1  UNL1        0.0509
     15 C           2.5396    2.1792   33.4652 C.ar    1  UNL1        0.0223
     16 C           2.2911    1.3293   32.2543 C.ar    1  UNL1        0.0885
     17 C           6.4738   -1.4281   32.5939 C.2     1  UNL1       -0.0041
     18 C           4.9892   -1.5331   32.7806 C.2     1  UNL1        0.0551
     19 C           7.2904   -2.6656   32.3657 C.3     1  UNL1        0.0991
     20 C           6.5998   -3.0411   29.8894 C.3     1  UNL1        0.0899
     21 N           6.9452   -3.5949   31.2400 N.3     1  UNL1       -0.2665
     22 C           6.9454   -5.0780   31.4648 C.3     1  UNL1        0.0899
     23 N           3.0366    3.8789   35.8868 N.pl3   1  UNL1       -0.2978
     24 H           3.9355    4.2750   35.8202 H       1  UNL1        0.1536
     25 C           2.7322    2.8878   36.9707 C.ar    1  UNL1        0.0504
     26 C           3.5692    1.6512   37.1130 C.ar    1  UNL1        0.0170
     27 C           3.2648    0.6601   38.1970 C.ar    1  UNL1        0.0318
     28 C           2.1233    0.9056   39.1387 C.ar    1  UNL1        0.1507
     29 F           1.8189   -0.0855   40.2227 F       1  UNL1       -0.2033
     30 C           1.2863    2.1422   38.9964 C.ar    1  UNL1        0.0863
     31 CL          0.1448    2.3877   39.9381 Cl      1  UNL1       -0.0799
     32 C           1.5907    3.1333   37.9124 C.ar    1  UNL1        0.0283
@<TRIPOS>BOND
     1    20    21    1
     2    21    22    1
     3    21    19    1
     4    19    17    1
     5    17    18    2
     6    18     1    1
     7     1     2    2
     8     1     3   am
     9     3     4    1
    10     4     5    1
    11     5     6    1
    12     6     7    1
    13     7     8   ar
    14     8     9   ar
    15     9    10   ar
    16    10    11   ar
    17    11    12   ar
    18    12    13   ar
    19    13    23    1
    20    23    25    1
    21    25    26   ar
    22    26    27   ar
    23    27    28   ar
    24    28    29    1
    25    28    30   ar
    26    30    31    1
    27    30    32   ar
    28    13    14   ar
    29    14    15   ar
    30    15    16   ar
    31    16     3    1
    32    16     7   ar
    33    14     9   ar
    34    32    25   ar
    35    23    24    1
@<TRIPOS>MOLECULE
*****
 32 35 0 0 0
SMALL
GASTEIGER

@<TRIPOS>ATOM
      1 C          -5.9232  -18.9244   20.4024 C.2     1  UNL1        0.2528
      2 O          -6.1138  -17.6933   21.2378 O.2     1  UNL1       -0.2696
      3 N          -7.1158  -19.7003   19.9272 N.am    1  UNL1       -0.2486
      4 C          -6.9253  -20.9315   19.0918 C.3     1  UNL1        0.1458
      5 C          -8.1178  -21.7074   18.6166 C.3     1  UNL1        0.2272
      6 O          -9.5009  -21.2521   18.9768 O.3     1  UNL1       -0.4723
      7 C          -9.6914  -20.0210   19.8122 C.ar    1  UNL1        0.1537
      8 C         -11.0746  -19.5656   20.1724 C.ar    1  UNL1        0.0574
      9 C         -11.2651  -18.3345   21.0078 C.ar    1  UNL1        0.0888
     10 N         -12.6482  -17.8791   21.3681 N.ar    1  UNL1       -0.2238
     11 C         -12.8387  -16.6480   22.2034 C.ar    1  UNL1        0.2000
     12 N         -11.6462  -15.8721   22.6786 N.ar    1  UNL1       -0.2089
     13 C         -10.2631  -16.3274   22.3184 C.ar    1  UNL1        0.1353
     14 C         -10.0725  -17.5586   21.4830 C.ar    1  UNL1        0.0509
     15 C          -8.6895  -18.0138   21.1228 C.ar    1  UNL1        0.0223
     16 C          -8.4989  -19.2451   20.2874 C.ar    1  UNL1        0.0885
     17 C          -3.3500  -18.7788   20.7295 C.2     1  UNL1       -0.0041
     18 C          -4.5402  -19.3797   20.0422 C.2     1  UNL1        0.0551
     19 C          -1.9668  -19.2342   20.3693 C.3     1  UNL1        0.0991
     20 C           0.3116  -18.0555   19.9578 C.3     1  UNL1        0.0899
     21 N          -1.0889  -18.3649   19.5186 N.3     1  UNL1       -0.2665
     22 C          -1.6115  -17.8050   18.2288 C.3     1  UNL1        0.0899
     23 N          -9.0706  -15.5515   22.7936 N.pl3   1  UNL1       -0.2978
     24 H          -8.6607  -14.8725   22.2103 H       1  UNL1        0.1536
     25 C          -8.5025  -15.8100   24.1576 C.ar    1  UNL1        0.0504
     26 C          -9.2622  -16.6522   25.1391 C.ar    1  UNL1        0.0170
     27 C          -8.6941  -16.9107   26.5031 C.ar    1  UNL1        0.0318
     28 C          -7.3663  -16.3270   26.8855 C.ar    1  UNL1        0.1507
     29 F          -6.7982  -16.5855   28.2495 F       1  UNL1       -0.2033
     30 C          -6.6066  -15.4847   25.9040 C.ar    1  UNL1        0.0863
     31 CL         -5.2788  -14.9010   26.2863 Cl      1  UNL1       -0.0799
     32 C          -7.1747  -15.2262   24.5399 C.ar    1  UNL1        0.0283
@<TRIPOS>BOND
     1    20    21    1
     2    21    22    1
     3    21    19    1
     4    19    17    1
     5    17    18    2
     6    18     1    1
     7     1     2    2
     8     1     3   am
     9     3     4    1
    10     4     5    1
    11     5     6    1
    12     6     7    1
    13     7     8   ar
    14     8     9   ar
    15     9    10   ar
    16    10    11   ar
    17    11    12   ar
    18    12    13   ar
    19    13    23    1
    20    23    25    1
    21    25    26   ar
    22    26    27   ar
    23    27    28   ar
    24    28    29    1
    25    28    30   ar
    26    30    31    1
    27    30    32   ar
    28    13    14   ar
    29    14    15   ar
    30    15    16   ar
    31    16     3    1
    32    16     7   ar
    33    14     9   ar
    34    32    25   ar
    35    23    24    1
@<TRIPOS>MOLECULE
*****
 32 35 0 0 0
SMALL
GASTEIGER

@<TRIPOS>ATOM
      1 C           3.1113   -0.2918   25.0704 C.2     1  UNL1        0.2528
      2 O           2.3322   -0.0806   23.8062 O.2     1  UNL1       -0.2696
      3 N           4.2357   -1.2841   25.1015 N.am    1  UNL1       -0.2486
      4 C           5.0149   -1.4953   26.3658 C.3     1  UNL1        0.1458
      5 C           6.1393   -2.4876   26.3969 C.3     1  UNL1        0.2272
      6 O           6.4847   -3.2686   25.1637 O.3     1  UNL1       -0.4723
      7 C           5.7056   -3.0574   23.8995 C.ar    1  UNL1        0.1537
      8 C           6.0509   -3.8384   22.6663 C.ar    1  UNL1        0.0574
      9 C           5.2718   -3.6272   21.4021 C.ar    1  UNL1        0.0888
     10 N           5.6172   -4.4082   20.1688 N.ar    1  UNL1       -0.2238
     11 C           4.8381   -4.1970   18.9046 C.ar    1  UNL1        0.2000
     12 N           3.7136   -3.2047   18.8735 N.ar    1  UNL1       -0.2089
     13 C           3.3682   -2.4237   20.1066 C.ar    1  UNL1        0.1353
     14 C           4.1474   -2.6349   21.3710 C.ar    1  UNL1        0.0509
     15 C           3.8020   -1.8539   22.6041 C.ar    1  UNL1        0.0223
     16 C           4.5811   -2.0651   23.8684 C.ar    1  UNL1        0.0885
     17 C           1.4490    1.2014   26.3960 C.2     1  UNL1       -0.0041
     18 C           2.7659    0.4892   26.3036 C.2     1  UNL1        0.0551
     19 C           1.1037    1.9825   27.6292 C.3     1  UNL1        0.0991
     20 C           0.4707    1.6394   30.1255 C.3     1  UNL1        0.0899
     21 N           0.2080    1.3812   28.6715 N.3     1  UNL1       -0.2665
     22 C          -0.9503    0.5217   28.2596 C.3     1  UNL1        0.0899
     23 N           2.2438   -1.4314   20.0755 N.pl3   1  UNL1       -0.2978
     24 H           1.3608   -1.6766   20.4355 H       1  UNL1        0.1536
     25 C           2.4645   -0.0657   19.4961 C.ar    1  UNL1        0.0504
     26 C           3.8592    0.4564   19.3164 C.ar    1  UNL1        0.0170
     27 C           4.0800    1.8222   18.7369 C.ar    1  UNL1        0.0318
     28 C           2.9060    2.6660   18.3371 C.ar    1  UNL1        0.1507
     29 F           3.1268    4.0318   17.7576 F       1  UNL1       -0.2033
     30 C           1.5113    2.1440   18.5167 C.ar    1  UNL1        0.0863
     31 CL          0.3374    2.9877   18.1169 Cl      1  UNL1       -0.0799
     32 C           1.2906    0.7781   19.0962 C.ar    1  UNL1        0.0283
@<TRIPOS>BOND
     1    20    21    1
     2    21    22    1
     3    21    19    1
     4    19    17    1
     5    17    18    2
     6    18     1    1
     7     1     2    2
     8     1     3   am
     9     3     4    1
    10     4     5    1
    11     5     6    1
    12     6     7    1
    13     7     8   ar
    14     8     9   ar
    15     9    10   ar
    16    10    11   ar
    17    11    12   ar
    18    12    13   ar
    19    13    23    1
    20    23    25    1
    21    25    26   ar
    22    26    27   ar
    23    27    28   ar
    24    28    29    1
    25    28    30   ar
    26    30    31    1
    27    30    32   ar
    28    13    14   ar
    29    14    15   ar
    30    15    16   ar
    31    16     3    1
    32    16     7   ar
    33    14     9   ar
    34    32    25   ar
    35    23    24    1
@<TRIPOS>MOLECULE
*****
 32 35 0 0 0
SMALL
GASTEIGER

@<TRIPOS>ATOM
      1 C           6.4837   -3.5371   24.9447 C.2     1  UNL1        0.2528
      2 O           6.0460   -2.3032   25.6768 O.2     1  UNL1       -0.2696
      3 N           6.9154   -4.7512   25.7124 N.am    1  UNL1       -0.2486
      4 C           7.3530   -5.9851   24.9803 C.3     1  UNL1        0.1458
      5 C           7.7847   -7.1993   25.7481 C.3     1  UNL1        0.2272
      6 O           7.7787   -7.1796   27.2479 O.3     1  UNL1       -0.4723
      7 C           7.3411   -5.9457   27.9800 C.ar    1  UNL1        0.1537
      8 C           7.3352   -5.9260   29.4799 C.ar    1  UNL1        0.0574
      9 C           6.8975   -4.6921   30.2120 C.ar    1  UNL1        0.0888
     10 N           6.8916   -4.6724   31.7119 N.ar    1  UNL1       -0.2238
     11 C           6.4539   -3.4385   32.4440 C.ar    1  UNL1        0.2000
     12 N           6.0223   -2.2243   31.6762 N.ar    1  UNL1       -0.2089
     13 C           6.0282   -2.2440   30.1764 C.ar    1  UNL1        0.1353
     14 C           6.4658   -3.4779   29.4442 C.ar    1  UNL1        0.0509
     15 C           6.4718   -3.4976   27.9444 C.ar    1  UNL1        0.0223
     16 C           6.9094   -4.7316   27.2122 C.ar    1  UNL1        0.0885
     17 C           5.1946   -3.6173   22.6904 C.2     1  UNL1       -0.0041
     18 C           6.4896   -3.5568   23.4449 C.2     1  UNL1        0.0551
     19 C           5.2006   -3.6370   21.1905 C.3     1  UNL1        0.0991
     20 C           3.5022   -1.7070   20.8156 C.3     1  UNL1        0.0899
     21 N           4.0507   -3.0483   20.4282 N.3     1  UNL1       -0.2665
     22 C           3.4493   -3.8009   19.2783 C.3     1  UNL1        0.0899
     23 N           5.5965   -1.0299   29.4087 N.pl3   1  UNL1       -0.2978
     24 H           6.2417   -0.5534   28.8377 H       1  UNL1        0.1536
     25 C           4.1819   -0.5416   29.5108 C.ar    1  UNL1        0.0504
     26 C           3.2056   -0.8360   28.4107 C.ar    1  UNL1        0.0170
     27 C           1.7910   -0.3478   28.5129 C.ar    1  UNL1        0.0318
     28 C           1.3526    0.4348   29.7152 C.ar    1  UNL1        0.1507
     29 F          -0.0620    0.9230   29.8174 F       1  UNL1       -0.2033
     30 C           2.3289    0.7291   30.8153 C.ar    1  UNL1        0.0863
     31 CL          1.8906    1.5116   32.0176 Cl      1  UNL1       -0.0799
     32 C           3.7436    0.2409   30.7131 C.ar    1  UNL1        0.0283
@<TRIPOS>BOND
     1    20    21    1
     2    21    22    1
     3    21    19    1
     4    19    17    1
     5    17    18    2
     6    18     1    1
     7     1     2    2
     8     1     3   am
     9     3     4    1
    10     4     5    1
    11     5     6    1
    12     6     7    1
    13     7     8   ar
    14     8     9   ar
    15     9    10   ar
    16    10    11   ar
    17    11    12   ar
    18    12    13   ar
    19    13    23    1
    20    23    25    1
    21    25    26   ar
    22    26    27   ar
    23    27    28   ar
    24    28    29    1
    25    28    30   ar
    26    30    31    1
    27    30    32   ar
    28    13    14   ar
    29    14    15   ar
    30    15    16   ar
    31    16     3    1
    32    16     7   ar
    33    14     9   ar
    34    32    25   ar
    35    23    24    1
@<TRIPOS>MOLECULE
*****
 32 35 0 0 0
SMALL
GASTEIGER

@<TRIPOS>ATOM
      1 C           4.8311   -1.8540   23.6121 C.2     1  UNL1        0.2528
      2 O           4.3828   -0.7526   24.5264 O.2     1  UNL1       -0.2696
      3 N           4.1631   -2.0435   22.2825 N.am    1  UNL1       -0.2486
      4 C           4.6115   -3.1448   21.3681 C.3     1  UNL1        0.1458
      5 C           3.9434   -3.3344   20.0386 C.3     1  UNL1        0.2272
      6 O           2.8271   -2.4227   19.6233 O.3     1  UNL1       -0.4723
      7 C           2.3788   -1.3214   20.5376 C.ar    1  UNL1        0.1537
      8 C           1.2624   -0.4096   20.1224 C.ar    1  UNL1        0.0574
      9 C           0.8141    0.6917   21.0367 C.ar    1  UNL1        0.0888
     10 N          -0.3023    1.6035   20.6215 N.ar    1  UNL1       -0.2238
     11 C          -0.7507    2.7049   21.5358 C.ar    1  UNL1        0.2000
     12 N          -0.0827    2.8944   22.8654 N.ar    1  UNL1       -0.2089
     13 C           1.0337    1.9827   23.2807 C.ar    1  UNL1        0.1353
     14 C           1.4821    0.8813   22.3663 C.ar    1  UNL1        0.0509
     15 C           2.5984   -0.0304   22.7816 C.ar    1  UNL1        0.0223
     16 C           3.0468   -1.1318   21.8672 C.ar    1  UNL1        0.0885
     17 C           6.0443   -3.2334   25.4493 C.2     1  UNL1       -0.0041
     18 C           5.9475   -2.7657   24.0273 C.2     1  UNL1        0.0551
     19 C           7.1607   -4.1452   25.8645 C.3     1  UNL1        0.0991
     20 C           6.2789   -5.0787   28.1230 C.3     1  UNL1        0.0899
     21 N           6.8816   -5.3089   26.7689 N.3     1  UNL1       -0.2665
     22 C           7.2054   -6.7028   26.3191 C.3     1  UNL1        0.0899
     23 N           1.7017    2.1723   24.6103 N.pl3   1  UNL1       -0.2978
     24 H           2.5948    2.5837   24.6582 H       1  UNL1        0.1536
     25 C           1.0089    1.7351   25.8668 C.ar    1  UNL1        0.0504
     26 C          -0.4105    2.1471   26.1229 C.ar    1  UNL1        0.0170
     27 C          -1.1032    1.7099   27.3794 C.ar    1  UNL1        0.0318
     28 C          -0.3766    0.8607   28.3799 C.ar    1  UNL1        0.1507
     29 F          -1.0694    0.4235   29.6365 F       1  UNL1       -0.2033
     30 C           1.0428    0.4487   28.1238 C.ar    1  UNL1        0.0863
     31 CL          1.7694   -0.4004   29.1243 Cl      1  UNL1       -0.0799
     32 C           1.7356    0.8860   26.8672 C.ar    1  UNL1        0.0283
@<TRIPOS>BOND
     1    20    21    1
     2    21    22    1
     3    21    19    1
     4    19    17    1
     5    17    18    2
     6    18     1    1
     7     1     2    2
     8     1     3   am
     9     3     4    1
    10     4     5    1
    11     5     6    1
    12     6     7    1
    13     7     8   ar
    14     8     9   ar
    15     9    10   ar
    16    10    11   ar
    17    11    12   ar
    18    12    13   ar
    19    13    23    1
    20    23    25    1
    21    25    26   ar
    22    26    27   ar
    23    27    28   ar
    24    28    29    1
    25    28    30   ar
    26    30    31    1
    27    30    32   ar
    28    13    14   ar
    29    14    15   ar
    30    15    16   ar
    31    16     3    1
    32    16     7   ar
    33    14     9   ar
    34    32    25   ar
    35    23    24    1
@<TRIPOS>MOLECULE
*****
 32 35 0 0 0
SMALL
GASTEIGER

@<TRIPOS>ATOM
      1 C           5.9138   -2.2794   28.5960 C.2     1  UNL1        0.2528
      2 O           5.8546   -1.9985   27.1238 O.2     1  UNL1       -0.2696
      3 N           6.4833   -3.5763   29.0898 N.am    1  UNL1       -0.2486
      4 C           6.5426   -3.8573   30.5620 C.3     1  UNL1        0.1458
      5 C           7.1121   -5.1542   31.0557 C.3     1  UNL1        0.2272
      6 O           7.6223   -6.1701   30.0772 O.3     1  UNL1       -0.4723
      7 C           7.5631   -5.8891   28.6050 C.ar    1  UNL1        0.1537
      8 C           8.0733   -6.9051   27.6264 C.ar    1  UNL1        0.0574
      9 C           8.0141   -6.6241   26.1541 C.ar    1  UNL1        0.0888
     10 N           8.5243   -7.6400   25.1755 N.ar    1  UNL1       -0.2238
     11 C           8.4651   -7.3590   23.7033 C.ar    1  UNL1        0.2000
     12 N           7.8956   -6.0622   23.2096 N.ar    1  UNL1       -0.2089
     13 C           7.3853   -5.0462   24.1881 C.ar    1  UNL1        0.1353
     14 C           7.4446   -5.3272   25.6604 C.ar    1  UNL1        0.0509
     15 C           6.9343   -4.3113   26.6389 C.ar    1  UNL1        0.0223
     16 C           6.9936   -4.5922   28.1112 C.ar    1  UNL1        0.0885
     17 C           4.0492   -0.6489   29.3799 C.2     1  UNL1       -0.0041
     18 C           5.4036   -1.2635   29.5745 C.2     1  UNL1        0.0551
     19 C           3.5390    0.3671   30.3585 C.3     1  UNL1        0.0991
     20 C           3.7752   -0.4407   32.8164 C.3     1  UNL1        0.0899
     21 N           4.1753    0.4910   31.7112 N.3     1  UNL1       -0.2665
     22 C           5.2117    1.5469   31.9585 C.3     1  UNL1        0.0899
     23 N           6.8158   -3.7494   23.6944 N.pl3   1  UNL1       -0.2978
     24 H           6.6266   -3.0213   24.3295 H       1  UNL1        0.1536
     25 C           6.5347   -3.5617   22.2330 C.ar    1  UNL1        0.0504
     26 C           7.5828   -2.9704   21.3375 C.ar    1  UNL1        0.0170
     27 C           7.3016   -2.7828   19.8761 C.ar    1  UNL1        0.0318
     28 C           5.9723   -3.1864   19.3102 C.ar    1  UNL1        0.1507
     29 F           5.6912   -2.9987   17.8488 F       1  UNL1       -0.2033
     30 C           4.9243   -3.7776   20.2057 C.ar    1  UNL1        0.0863
     31 CL          3.5951   -4.1812   19.6398 Cl      1  UNL1       -0.0799
     32 C           5.2055   -3.9653   21.6672 C.ar    1  UNL1        0.0283
@<TRIPOS>BOND
     1    20    21    1
     2    21    22    1
     3    21    19    1
     4    19    17    1
     5    17    18    2
     6    18     1    1
     7     1     2    2
     8     1     3   am
     9     3     4    1
    10     4     5    1
    11     5     6    1
    12     6     7    1
    13     7     8   ar
    14     8     9   ar
    15     9    10   ar
    16    10    11   ar
    17    11    12   ar
    18    12    13   ar
    19    13    23    1
    20    23    25    1
    21    25    26   ar
    22    26    27   ar
    23    27    28   ar
    24    28    29    1
    25    28    30   ar
    26    30    31    1
    27    30    32   ar
    28    13    14   ar
    29    14    15   ar
    30    15    16   ar
    31    16     3    1
    32    16     7   ar
    33    14     9   ar
    34    32    25   ar
    35    23    24    1
@<TRIPOS>MOLECULE
*****
 32 35 0 0 0
SMALL
GASTEIGER

@<TRIPOS>ATOM
      1 C           5.7230   -2.6703   23.2434 C.2     1  UNL1        0.2528
      2 O           5.2782   -3.0606   24.6217 O.2     1  UNL1       -0.2696
      3 N           6.8193   -3.4363   22.5641 N.am    1  UNL1       -0.2486
      4 C           7.2641   -3.0461   21.1858 C.3     1  UNL1        0.1458
      5 C           8.3604   -3.8121   20.5065 C.3     1  UNL1        0.2272
      6 O           9.0119   -4.9683   21.2056 O.3     1  UNL1       -0.4723
      7 C           8.5671   -5.3585   22.5839 C.ar    1  UNL1        0.1537
      8 C           9.2186   -6.5147   23.2830 C.ar    1  UNL1        0.0574
      9 C           8.7739   -6.9049   24.6614 C.ar    1  UNL1        0.0888
     10 N           9.4254   -8.0612   25.3605 N.ar    1  UNL1       -0.2238
     11 C           8.9806   -8.4514   26.7388 C.ar    1  UNL1        0.2000
     12 N           7.8843   -7.6854   27.4181 N.ar    1  UNL1       -0.2089
     13 C           7.2328   -6.5292   26.7190 C.ar    1  UNL1        0.1353
     14 C           7.6776   -6.1390   25.3406 C.ar    1  UNL1        0.0509
     15 C           7.0261   -4.9828   24.6416 C.ar    1  UNL1        0.0223
     16 C           7.4708   -4.5925   23.2632 C.ar    1  UNL1        0.0885
     17 C           3.5818   -1.3475   22.5990 C.2     1  UNL1       -0.0041
     18 C           5.0715   -1.5142   22.5444 C.2     1  UNL1        0.0551
     19 C           2.9303   -0.1913   21.8999 C.3     1  UNL1        0.0991
     20 C           1.0000   -0.5014   20.1889 C.3     1  UNL1        0.0899
     21 N           2.4619   -0.3391   20.4826 N.3     1  UNL1       -0.2665
     22 C           3.4556   -0.3247   19.3590 C.3     1  UNL1        0.0899
     23 N           6.1365   -5.7633   27.3983 N.pl3   1  UNL1       -0.2978
     24 H           5.2199   -5.7935   27.0402 H       1  UNL1        0.1536
     25 C           6.4366   -4.9513   28.6233 C.ar    1  UNL1        0.0504
     26 C           6.8166   -5.6362   29.9026 C.ar    1  UNL1        0.0170
     27 C           7.1167   -4.8242   31.1275 C.ar    1  UNL1        0.0318
     28 C           7.0369   -3.3273   31.0732 C.ar    1  UNL1        0.1507
     29 F           7.3370   -2.5153   32.2982 F       1  UNL1       -0.2033
     30 C           6.6569   -2.6424   29.7940 C.ar    1  UNL1        0.0863
     31 CL          6.5771   -1.1455   29.7396 Cl      1  UNL1       -0.0799
     32 C           6.3568   -3.4545   28.5690 C.ar    1  UNL1        0.0283
@<TRIPOS>BOND
     1    20    21    1
     2    21    22    1
     3    21    19    1
     4    19    17    1
     5    17    18    2
     6    18     1    1
     7     1     2    2
     8     1     3   am
     9     3     4    1
    10     4     5    1
    11     5     6    1
    12     6     7    1
    13     7     8   ar
    14     8     9   ar
    15     9    10   ar
    16    10    11   ar
    17    11    12   ar
    18    12    13   ar
    19    13    23    1
    20    23    25    1
    21    25    26   ar
    22    26    27   ar
    23    27    28   ar
    24    28    29    1
    25    28    30   ar
    26    30    31    1
    27    30    32   ar
    28    13    14   ar
    29    14    15   ar
    30    15    16   ar
    31    16     3    1
    32    16     7   ar
    33    14     9   ar
    34    32    25   ar
    35    23    24    1
