@<TRIPOS>MOLECULE
*****
 30 32 0 0 0
SMALL
GASTEIGER

@<TRIPOS>ATOM
      1 C          -8.1043  -19.2732   21.1437 C.ar    1  UNL1        0.1345
      2 C          -8.3715  -18.0965   22.0347 C.ar    1  UNL1        0.0487
      3 C          -9.5865  -17.2461   21.8100 C.ar    1  UNL1        0.0529
      4 C         -10.5345  -17.5725   20.6942 C.ar    1  UNL1        0.1037
      5 C         -10.2674  -18.7492   19.8032 C.ar    1  UNL1        0.1054
      6 N          -9.0523  -19.5996   20.0279 N.ar    1  UNL1       -0.2290
      7 C         -11.7495  -16.7220   20.4695 C.3     1  UNL1        0.4212
      8 F         -12.9646  -15.8717   20.2448 F       1  UNL1       -0.1658
      9 F         -12.5574  -17.6495   21.3281 F       1  UNL1       -0.1658
     10 F         -10.9417  -15.7946   19.6110 F       1  UNL1       -0.1658
     11 N          -6.8893  -20.1236   21.3684 N.pl3   1  UNL1       -0.2821
     12 H          -6.9890  -21.0516   21.6816 H       1  UNL1        0.1551
     13 C          -2.7883  -18.4329   20.6113 C.ar    1  UNL1        0.1683
     14 C          -3.1409  -18.9661   21.9682 C.ar    1  UNL1        0.1299
     15 N          -4.5079  -19.5297   22.2206 N.ar    1  UNL1       -0.2251
     16 C          -5.5223  -19.5600   21.1160 C.ar    1  UNL1        0.1527
     17 C          -5.1697  -19.0268   19.7591 C.ar    1  UNL1        0.1340
     18 N          -3.8027  -18.4633   19.5067 N.ar    1  UNL1       -0.2290
     19 N          -0.0543  -17.3058   20.1065 N.1     1  UNL1       -0.1892
     20 C          -1.4213  -17.8694   20.3589 C.1     1  UNL1        0.1214
     21 N          -9.8537  -16.0693   22.7010 N.pl3   1  UNL1       -0.3306
     22 H         -10.1133  -15.2042   22.3094 H       1  UNL1        0.1469
     23 C          -9.7253  -16.2107   24.1888 C.3     1  UNL1        0.1184
     24 C          -8.4531  -15.8074   24.8735 C.3     1  UNL1        0.1503
     25 C          -7.4274  -14.9996   24.1350 C.3     1  UNL1        0.1003
     26 N          -6.1553  -14.5963   24.8197 N.3     1  UNL1       -0.2933
     27 C          -5.9087  -15.0007   26.2430 C.3     1  UNL1        0.1011
     28 C          -6.9345  -15.8085   26.9815 C.3     1  UNL1        0.1592
     29 O          -8.2067  -16.2118   26.2968 O.3     1  UNL1       -0.3516
     30 H          -6.1163  -13.5774   24.7922 H       1  UNL1        0.1234
@<TRIPOS>BOND
     1    19    20    3
     2    20    13    1
     3    13    14   ar
     4    14    15   ar
     5    15    16   ar
     6    16    11    1
     7    11     1    1
     8     1     2   ar
     9     2     3   ar
    10     3    21    1
    11    21    23    1
    12    24    23    1
    13    24    25    1
    14    25    26    1
    15    26    27    1
    16    27    28    1
    17    28    29    1
    18     3     4   ar
    19     4     7    1
    20     7     8    1
    21     7     9    1
    22     7    10    1
    23     4     5   ar
    24     5     6   ar
    25    16    17   ar
    26    17    18   ar
    27    18    13   ar
    28     6     1   ar
    29    29    24    1
    30    11    12    1
    31    21    22    1
    32    26    30    1
@<TRIPOS>MOLECULE
*****
 30 32 0 0 0
SMALL
GASTEIGER

@<TRIPOS>ATOM
      1 C          -7.8378  -19.6873   22.4899 C.ar    1  UNL1        0.1345
      2 C          -7.7862  -18.3291   21.8553 C.ar    1  UNL1        0.0487
      3 C          -8.9640  -17.4064   21.9614 C.ar    1  UNL1        0.0529
      4 C         -10.1935  -17.8418   22.7021 C.ar    1  UNL1        0.1037
      5 C         -10.2452  -19.1999   23.3367 C.ar    1  UNL1        0.1054
      6 N          -9.0674  -20.1227   23.2306 N.ar    1  UNL1       -0.2290
      7 C         -11.3714  -16.9190   22.8082 C.3     1  UNL1        0.4212
      8 F         -12.5492  -15.9963   22.9143 F       1  UNL1       -0.1658
      9 F         -12.0373  -17.6386   21.6731 F       1  UNL1       -0.1658
     10 F         -10.7054  -16.1994   23.9434 F       1  UNL1       -0.1658
     11 N          -6.6600  -20.6100   22.3838 N.pl3   1  UNL1       -0.2821
     12 H          -6.7335  -21.5402   22.6979 H       1  UNL1        0.1551
     13 C          -2.7906  -19.1267   20.6296 C.ar    1  UNL1        0.1683
     14 C          -3.0881  -18.9068   22.0832 C.ar    1  UNL1        0.1299
     15 N          -4.3779  -19.4012   22.6679 N.ar    1  UNL1       -0.2251
     16 C          -5.3702  -20.1156   21.7990 C.ar    1  UNL1        0.1527
     17 C          -5.0727  -20.3355   20.3454 C.ar    1  UNL1        0.1340
     18 N          -3.7828  -19.8411   19.7607 N.ar    1  UNL1       -0.2290
     19 N          -0.2109  -18.1379   19.4602 N.1     1  UNL1       -0.1892
     20 C          -1.5007  -18.6323   20.0449 C.1     1  UNL1        0.1214
     21 N          -8.9123  -16.0482   21.3268 N.pl3   1  UNL1       -0.3306
     22 H          -9.3142  -15.9036   20.4398 H       1  UNL1        0.1469
     23 C          -8.2482  -14.9102   22.0437 C.3     1  UNL1        0.1184
     24 C          -7.3806  -15.1798   23.2373 C.3     1  UNL1        0.1503
     25 C          -7.9185  -14.9609   24.6203 C.3     1  UNL1        0.1003
     26 N          -7.0510  -15.2305   25.8138 N.3     1  UNL1       -0.2933
     27 C          -5.6454  -15.7190   25.6244 C.3     1  UNL1        0.1011
     28 C          -5.1075  -15.9380   24.2414 C.3     1  UNL1        0.1592
     29 O          -5.9752  -15.6683   23.0478 O.3     1  UNL1       -0.3516
     30 H          -7.5332  -15.9318   26.3760 H       1  UNL1        0.1234
@<TRIPOS>BOND
     1    19    20    3
     2    20    13    1
     3    13    14   ar
     4    14    15   ar
     5    15    16   ar
     6    16    11    1
     7    11     1    1
     8     1     2   ar
     9     2     3   ar
    10     3    21    1
    11    21    23    1
    12    24    23    1
    13    24    25    1
    14    25    26    1
    15    26    27    1
    16    27    28    1
    17    28    29    1
    18     3     4   ar
    19     4     7    1
    20     7     8    1
    21     7     9    1
    22     7    10    1
    23     4     5   ar
    24     5     6   ar
    25    16    17   ar
    26    17    18   ar
    27    18    13   ar
    28     6     1   ar
    29    29    24    1
    30    11    12    1
    31    21    22    1
    32    26    30    1
@<TRIPOS>MOLECULE
*****
 30 32 0 0 0
SMALL
GASTEIGER

@<TRIPOS>ATOM
      1 C          -7.8141  -17.5503   22.0030 C.ar    1  UNL1        0.1345
      2 C          -6.5425  -17.8960   22.7197 C.ar    1  UNL1        0.0487
      3 C          -5.5887  -18.8860   22.1197 C.ar    1  UNL1        0.0529
      4 C          -5.9063  -19.5303   20.8029 C.ar    1  UNL1        0.1037
      5 C          -7.1778  -19.1847   20.0862 C.ar    1  UNL1        0.1054
      6 N          -8.1317  -18.1946   20.6862 N.ar    1  UNL1       -0.2290
      7 C          -4.9524  -20.5204   20.2029 C.3     1  UNL1        0.4212
      8 F          -3.9986  -21.5104   19.6030 F       1  UNL1       -0.1658
      9 F          -5.7875  -21.6472   20.7348 F       1  UNL1       -0.1658
     10 F          -4.1174  -19.3935   19.6711 F       1  UNL1       -0.1658
     11 N          -8.7679  -16.5603   22.6030 N.pl3   1  UNL1       -0.2821
     12 H          -8.4923  -15.6231   22.7253 H       1  UNL1        0.1551
     13 C         -12.8891  -17.8739   23.8440 C.ar    1  UNL1        0.1683
     14 C         -12.7234  -16.8294   22.7803 C.ar    1  UNL1        0.1299
     15 N         -11.3497  -16.3915   22.3666 N.ar    1  UNL1       -0.2251
     16 C         -10.1416  -16.9981   23.0167 C.ar    1  UNL1        0.1527
     17 C         -10.3073  -18.0427   24.0803 C.ar    1  UNL1        0.1340
     18 N         -11.6811  -18.4806   24.4940 N.ar    1  UNL1       -0.2290
     19 N         -15.6366  -18.7497   24.6713 N.1     1  UNL1       -0.1892
     20 C         -14.2628  -18.3118   24.2576 C.1     1  UNL1        0.1214
     21 N          -4.3171  -19.2317   22.8365 N.pl3   1  UNL1       -0.3306
     22 H          -4.1707  -20.1481   23.1650 H       1  UNL1        0.1469
     23 C          -3.2686  -18.1810   23.0527 C.3     1  UNL1        0.1184
     24 C          -2.2358  -17.9234   21.9959 C.3     1  UNL1        0.1503
     25 C          -1.8462  -16.5155   21.6554 C.3     1  UNL1        0.1003
     26 N          -0.8134  -16.2579   20.5986 N.3     1  UNL1       -0.2933
     27 C          -0.1702  -17.4082   19.8821 C.3     1  UNL1        0.1011
     28 C          -0.5599  -18.8161   20.2226 C.3     1  UNL1        0.1592
     29 O          -1.5928  -19.0737   21.2795 O.3     1  UNL1       -0.3516
     30 H          -0.0619  -15.7308   21.0435 H       1  UNL1        0.1234
@<TRIPOS>BOND
     1    19    20    3
     2    20    13    1
     3    13    14   ar
     4    14    15   ar
     5    15    16   ar
     6    16    11    1
     7    11     1    1
     8     1     2   ar
     9     2     3   ar
    10     3    21    1
    11    21    23    1
    12    24    23    1
    13    24    25    1
    14    25    26    1
    15    26    27    1
    16    27    28    1
    17    28    29    1
    18     3     4   ar
    19     4     7    1
    20     7     8    1
    21     7     9    1
    22     7    10    1
    23     4     5   ar
    24     5     6   ar
    25    16    17   ar
    26    17    18   ar
    27    18    13   ar
    28     6     1   ar
    29    29    24    1
    30    11    12    1
    31    21    22    1
    32    26    30    1
@<TRIPOS>MOLECULE
*****
 30 32 0 0 0
SMALL
GASTEIGER

@<TRIPOS>ATOM
      1 C          -6.5637  -16.1588   24.0306 C.ar    1  UNL1        0.1345
      2 C          -7.0024  -16.7949   22.7448 C.ar    1  UNL1        0.0487
      3 C          -8.4437  -17.1562   22.5403 C.ar    1  UNL1        0.0529
      4 C          -9.4465  -16.8815   23.6215 C.ar    1  UNL1        0.1037
      5 C          -9.0080  -16.2455   24.9072 C.ar    1  UNL1        0.1054
      6 N          -7.5665  -15.8841   25.1118 N.ar    1  UNL1       -0.2290
      7 C         -10.8879  -17.2429   23.4169 C.3     1  UNL1        0.4212
      8 F         -12.3293  -17.6043   23.2123 F       1  UNL1       -0.1658
      9 F         -10.6294  -18.6021   23.9962 F       1  UNL1       -0.1658
     10 F         -11.1465  -15.8837   22.8375 F       1  UNL1       -0.1658
     11 N          -5.1224  -15.7975   24.2351 N.pl3   1  UNL1       -0.2821
     12 H          -4.8689  -15.1701   24.9503 H       1  UNL1        0.1551
     13 C          -1.9570  -17.5809   21.5800 C.ar    1  UNL1        0.1683
     14 C          -2.2627  -16.1145   21.5017 C.ar    1  UNL1        0.1299
     15 N          -3.3179  -15.5200   22.3867 N.ar    1  UNL1       -0.2251
     16 C          -4.0672  -16.3919   23.3501 C.ar    1  UNL1        0.1527
     17 C          -3.7615  -17.8583   23.4285 C.ar    1  UNL1        0.1340
     18 N          -2.7063  -18.4528   22.5434 N.ar    1  UNL1       -0.2290
     19 N           0.1533  -18.7699   19.8100 N.1     1  UNL1       -0.1892
     20 C          -0.9018  -18.1754   20.6950 C.1     1  UNL1        0.1214
     21 N          -8.8823  -17.7923   21.2545 N.pl3   1  UNL1       -0.3306
     22 H          -9.4393  -17.2861   20.6198 H       1  UNL1        0.1469
     23 C          -8.4724  -19.1995   20.9359 C.3     1  UNL1        0.1184
     24 C          -7.0508  -19.5007   20.5641 C.3     1  UNL1        0.1503
     25 C          -6.4846  -20.8677   20.8103 C.3     1  UNL1        0.1003
     26 N          -5.0630  -21.1688   20.4385 N.3     1  UNL1       -0.2933
     27 C          -4.2074  -20.1028   19.8206 C.3     1  UNL1        0.1011
     28 C          -4.7736  -18.7358   19.5744 C.3     1  UNL1        0.1592
     29 O          -6.1953  -18.4347   19.9462 O.3     1  UNL1       -0.3516
     30 H          -5.0896  -21.9451   19.7774 H       1  UNL1        0.1234
@<TRIPOS>BOND
     1    19    20    3
     2    20    13    1
     3    13    14   ar
     4    14    15   ar
     5    15    16   ar
     6    16    11    1
     7    11     1    1
     8     1     2   ar
     9     2     3   ar
    10     3    21    1
    11    21    23    1
    12    24    23    1
    13    24    25    1
    14    25    26    1
    15    26    27    1
    16    27    28    1
    17    28    29    1
    18     3     4   ar
    19     4     7    1
    20     7     8    1
    21     7     9    1
    22     7    10    1
    23     4     5   ar
    24     5     6   ar
    25    16    17   ar
    26    17    18   ar
    27    18    13   ar
    28     6     1   ar
    29    29    24    1
    30    11    12    1
    31    21    22    1
    32    26    30    1
@<TRIPOS>MOLECULE
*****
 30 32 0 0 0
SMALL
GASTEIGER

@<TRIPOS>ATOM
      1 C          -5.0588  -19.9653   20.5042 C.ar    1  UNL1        0.1345
      2 C          -4.7582  -18.8962   21.5125 C.ar    1  UNL1        0.0487
      3 C          -3.4666  -18.1372   21.4385 C.ar    1  UNL1        0.0529
      4 C          -2.4754  -18.4473   20.3562 C.ar    1  UNL1        0.1037
      5 C          -2.7759  -19.5163   19.3478 C.ar    1  UNL1        0.1054
      6 N          -4.0677  -20.2753   19.4218 N.ar    1  UNL1       -0.2290
      7 C          -1.1837  -17.6882   20.2822 C.3     1  UNL1        0.4212
      8 F           0.1080  -16.9293   20.2083 F       1  UNL1       -0.1658
      9 F          -0.6555  -18.4739   21.4457 F       1  UNL1       -0.1658
     10 F          -1.7119  -16.9026   19.1187 F       1  UNL1       -0.1658
     11 N          -6.3505  -20.7243   20.5782 N.pl3   1  UNL1       -0.2821
     12 H          -6.3431  -21.7087   20.5877 H       1  UNL1        0.1551
     13 C         -10.2592  -18.5016   20.7567 C.ar    1  UNL1        0.1683
     14 C          -9.5479  -18.8711   22.0246 C.ar    1  UNL1        0.1299
     15 N          -8.2450  -19.6120   21.9651 N.ar    1  UNL1       -0.2251
     16 C          -7.6534  -19.9834   20.6377 C.ar    1  UNL1        0.1527
     17 C          -8.3646  -19.6138   19.3698 C.ar    1  UNL1        0.1340
     18 N          -9.6675  -18.8729   19.4293 N.ar    1  UNL1       -0.2290
     19 N         -12.8650  -17.0198   20.8758 N.1     1  UNL1       -0.1892
     20 C         -11.5621  -17.7607   20.8162 C.1     1  UNL1        0.1214
     21 N          -3.1660  -17.0681   22.4469 N.pl3   1  UNL1       -0.3306
     22 H          -2.5209  -16.3561   22.2321 H       1  UNL1        0.1469
     23 C          -3.8483  -17.0839   23.7827 C.3     1  UNL1        0.1184
     24 C          -5.1309  -16.3314   23.9787 C.3     1  UNL1        0.1503
     25 C          -5.2730  -15.3778   25.1278 C.3     1  UNL1        0.1003
     26 N          -6.5556  -14.6253   25.3238 N.3     1  UNL1       -0.2933
     27 C          -7.6963  -14.8263   24.3706 C.3     1  UNL1        0.1011
     28 C          -7.5542  -15.7799   23.2214 C.3     1  UNL1        0.1592
     29 O          -6.2715  -16.5324   23.0255 O.3     1  UNL1       -0.3516
     30 H          -6.3216  -13.6328   25.2978 H       1  UNL1        0.1234
@<TRIPOS>BOND
     1    19    20    3
     2    20    13    1
     3    13    14   ar
     4    14    15   ar
     5    15    16   ar
     6    16    11    1
     7    11     1    1
     8     1     2   ar
     9     2     3   ar
    10     3    21    1
    11    21    23    1
    12    24    23    1
    13    24    25    1
    14    25    26    1
    15    26    27    1
    16    27    28    1
    17    28    29    1
    18     3     4   ar
    19     4     7    1
    20     7     8    1
    21     7     9    1
    22     7    10    1
    23     4     5   ar
    24     5     6   ar
    25    16    17   ar
    26    17    18   ar
    27    18    13   ar
    28     6     1   ar
    29    29    24    1
    30    11    12    1
    31    21    22    1
    32    26    30    1
@<TRIPOS>MOLECULE
*****
 30 32 0 0 0
SMALL
GASTEIGER

@<TRIPOS>ATOM
      1 C          -7.7905  -17.1508   22.0556 C.ar    1  UNL1        0.1345
      2 C          -7.0387  -18.4218   21.7917 C.ar    1  UNL1        0.0487
      3 C          -5.6257  -18.5711   22.2725 C.ar    1  UNL1        0.0529
      4 C          -4.9644  -17.4494   23.0172 C.ar    1  UNL1        0.1037
      5 C          -5.7161  -16.1785   23.2811 C.ar    1  UNL1        0.1054
      6 N          -7.1292  -16.0292   22.8003 N.ar    1  UNL1       -0.2290
      7 C          -3.5514  -17.5987   23.4980 C.3     1  UNL1        0.4212
      8 F          -2.1384  -17.7481   23.9788 F       1  UNL1       -0.1658
      9 F          -4.0526  -18.1513   24.7993 F       1  UNL1       -0.1658
     10 F          -3.0502  -17.0462   22.1967 F       1  UNL1       -0.1658
     11 N          -9.2034  -17.0016   21.5748 N.pl3   1  UNL1       -0.2821
     12 H          -9.3816  -16.6604   20.6687 H       1  UNL1        0.1551
     13 C         -12.6280  -18.1130   24.2743 C.ar    1  UNL1        0.1683
     14 C         -11.2487  -18.6277   24.5619 C.ar    1  UNL1        0.1299
     15 N         -10.1072  -18.2572   23.6621 N.ar    1  UNL1       -0.2251
     16 C         -10.3449  -17.3721   22.4747 C.ar    1  UNL1        0.1527
     17 C         -11.7242  -16.8574   22.1871 C.ar    1  UNL1        0.1340
     18 N         -12.8657  -17.2279   23.0869 N.ar    1  UNL1       -0.2290
     19 N         -14.9110  -18.8540   26.0740 N.1     1  UNL1       -0.1892
     20 C         -13.7695  -18.4835   25.1741 C.1     1  UNL1        0.1214
     21 N          -4.8740  -19.8421   22.0086 N.pl3   1  UNL1       -0.3306
     22 H          -4.7420  -20.4954   22.7331 H       1  UNL1        0.1469
     23 C          -4.3234  -20.1175   20.6408 C.3     1  UNL1        0.1184
     24 C          -3.2044  -19.2779   20.0997 C.3     1  UNL1        0.1503
     25 C          -1.7927  -19.5395   20.5341 C.3     1  UNL1        0.1003
     26 N          -0.6737  -18.6999   19.9930 N.3     1  UNL1       -0.2933
     27 C          -0.9663  -17.5986   19.0175 C.3     1  UNL1        0.1011
     28 C          -2.3780  -17.3370   18.5831 C.3     1  UNL1        0.1592
     29 O          -3.4970  -18.1767   19.1242 O.3     1  UNL1       -0.3516
     30 H          -0.0240  -19.3369   19.5318 H       1  UNL1        0.1234
@<TRIPOS>BOND
     1    19    20    3
     2    20    13    1
     3    13    14   ar
     4    14    15   ar
     5    15    16   ar
     6    16    11    1
     7    11     1    1
     8     1     2   ar
     9     2     3   ar
    10     3    21    1
    11    21    23    1
    12    24    23    1
    13    24    25    1
    14    25    26    1
    15    26    27    1
    16    27    28    1
    17    28    29    1
    18     3     4   ar
    19     4     7    1
    20     7     8    1
    21     7     9    1
    22     7    10    1
    23     4     5   ar
    24     5     6   ar
    25    16    17   ar
    26    17    18   ar
    27    18    13   ar
    28     6     1   ar
    29    29    24    1
    30    11    12    1
    31    21    22    1
    32    26    30    1
@<TRIPOS>MOLECULE
*****
 30 32 0 0 0
SMALL
GASTEIGER

@<TRIPOS>ATOM
      1 C          -7.0002  -16.1898   23.4339 C.ar    1  UNL1        0.1345
      2 C          -8.0210  -17.2021   23.8622 C.ar    1  UNL1        0.0487
      3 C          -9.4047  -17.1626   23.2844 C.ar    1  UNL1        0.0529
      4 C          -9.7676  -16.1109   22.2784 C.ar    1  UNL1        0.1037
      5 C          -8.7470  -15.0987   21.8501 C.ar    1  UNL1        0.1054
      6 N          -7.3632  -15.1381   22.4278 N.ar    1  UNL1       -0.2290
      7 C         -11.1514  -16.0715   21.7006 C.3     1  UNL1        0.4212
      8 F         -12.5351  -16.0321   21.1229 F       1  UNL1       -0.1658
      9 F         -11.6842  -15.5719   23.0107 F       1  UNL1       -0.1658
     10 F         -10.6187  -16.5712   20.3905 F       1  UNL1       -0.1658
     11 N          -5.6166  -16.2292   24.0117 N.pl3   1  UNL1       -0.2821
     12 H          -5.4607  -15.9307   24.9368 H       1  UNL1        0.1551
     13 C          -2.1777  -17.7118   21.5164 C.ar    1  UNL1        0.1683
     14 C          -2.3370  -16.2432   21.7770 C.ar    1  UNL1        0.1299
     15 N          -3.4832  -15.7490   22.6087 N.ar    1  UNL1       -0.2251
     16 C          -4.4703  -16.7234   23.1799 C.ar    1  UNL1        0.1527
     17 C          -4.3110  -18.1920   22.9194 C.ar    1  UNL1        0.1340
     18 N          -3.1648  -18.6861   22.0876 N.ar    1  UNL1       -0.2290
     19 N           0.1148  -18.7002   19.8529 N.1     1  UNL1       -0.1892
     20 C          -1.0314  -18.2060   20.6847 C.1     1  UNL1        0.1214
     21 N         -10.4254  -18.1749   23.7127 N.pl3   1  UNL1       -0.3306
     22 H         -10.9821  -18.0069   24.5071 H       1  UNL1        0.1469
     23 C         -10.5979  -19.4432   22.9306 C.3     1  UNL1        0.1184
     24 C          -9.9332  -19.5969   21.5948 C.3     1  UNL1        0.1503
     25 C         -10.7653  -19.7586   20.3572 C.3     1  UNL1        0.1003
     26 N         -10.1006  -19.9122   19.0214 N.3     1  UNL1       -0.2933
     27 C          -8.6038  -19.9042   18.9230 C.3     1  UNL1        0.1011
     28 C          -7.7718  -19.7425   20.1606 C.3     1  UNL1        0.1592
     29 O          -8.4365  -19.5889   21.4965 O.3     1  UNL1       -0.3516
     30 H         -10.4383  -19.1490   18.4349 H       1  UNL1        0.1234
@<TRIPOS>BOND
     1    19    20    3
     2    20    13    1
     3    13    14   ar
     4    14    15   ar
     5    15    16   ar
     6    16    11    1
     7    11     1    1
     8     1     2   ar
     9     2     3   ar
    10     3    21    1
    11    21    23    1
    12    24    23    1
    13    24    25    1
    14    25    26    1
    15    26    27    1
    16    27    28    1
    17    28    29    1
    18     3     4   ar
    19     4     7    1
    20     7     8    1
    21     7     9    1
    22     7    10    1
    23     4     5   ar
    24     5     6   ar
    25    16    17   ar
    26    17    18   ar
    27    18    13   ar
    28     6     1   ar
    29    29    24    1
    30    11    12    1
    31    21    22    1
    32    26    30    1
@<TRIPOS>MOLECULE
*****
 30 32 0 0 0
SMALL
GASTEIGER

@<TRIPOS>ATOM
      1 C          -7.6386  -18.3228   21.4158 C.ar    1  UNL1        0.1345
      2 C          -6.6039  -19.1486   20.7104 C.ar    1  UNL1        0.0487
      3 C          -5.1720  -19.0957   21.1539 C.ar    1  UNL1        0.0529
      4 C          -4.7747  -18.2169   22.3027 C.ar    1  UNL1        0.1037
      5 C          -5.8093  -17.3911   23.0081 C.ar    1  UNL1        0.1054
      6 N          -7.2413  -17.4440   22.5646 N.ar    1  UNL1       -0.2290
      7 C          -3.3426  -18.1639   22.7462 C.3     1  UNL1        0.4212
      8 F          -1.9107  -18.1110   23.1896 F       1  UNL1       -0.1658
      9 F          -3.3197  -19.6601   22.8506 F       1  UNL1       -0.1658
     10 F          -3.3656  -16.6677   22.6418 F       1  UNL1       -0.1658
     11 N          -9.0705  -18.3758   20.9723 N.pl3   1  UNL1       -0.2821
     12 H          -9.2887  -18.3790   20.0123 H       1  UNL1        0.1551
     13 C         -12.3691  -18.5201   24.0299 C.ar    1  UNL1        0.1683
     14 C         -12.4080  -17.4985   22.9322 C.ar    1  UNL1        0.1299
     15 N         -11.3085  -17.4504   21.9131 N.ar    1  UNL1       -0.2251
     16 C         -10.1701  -18.4239   21.9915 C.ar    1  UNL1        0.1527
     17 C         -10.1311  -19.4455   23.0891 C.ar    1  UNL1        0.1340
     18 N         -11.2306  -19.4936   24.1083 N.ar    1  UNL1       -0.2290
     19 N         -14.5681  -18.6163   26.0682 N.1     1  UNL1       -0.1892
     20 C         -13.4686  -18.5682   25.0491 C.1     1  UNL1        0.1214
     21 N          -4.1373  -19.9215   20.4485 N.pl3   1  UNL1       -0.3306
     22 H          -3.9776  -20.8525   20.7259 H       1  UNL1        0.1469
     23 C          -3.3460  -19.3288   19.3204 C.3     1  UNL1        0.1184
     24 C          -2.0659  -18.6001   19.6039 C.3     1  UNL1        0.1503
     25 C          -2.0172  -17.1041   19.5067 C.3     1  UNL1        0.1003
     26 N          -0.7371  -16.3754   19.7902 N.3     1  UNL1       -0.2933
     27 C           0.4943  -17.1428   20.1708 C.3     1  UNL1        0.1011
     28 C           0.4455  -18.6388   20.2680 C.3     1  UNL1        0.1592
     29 O          -0.8346  -19.3675   19.9845 O.3     1  UNL1       -0.3516
     30 H          -0.9295  -15.7290   20.5554 H       1  UNL1        0.1234
@<TRIPOS>BOND
     1    19    20    3
     2    20    13    1
     3    13    14   ar
     4    14    15   ar
     5    15    16   ar
     6    16    11    1
     7    11     1    1
     8     1     2   ar
     9     2     3   ar
    10     3    21    1
    11    21    23    1
    12    24    23    1
    13    24    25    1
    14    25    26    1
    15    26    27    1
    16    27    28    1
    17    28    29    1
    18     3     4   ar
    19     4     7    1
    20     7     8    1
    21     7     9    1
    22     7    10    1
    23     4     5   ar
    24     5     6   ar
    25    16    17   ar
    26    17    18   ar
    27    18    13   ar
    28     6     1   ar
    29    29    24    1
    30    11    12    1
    31    21    22    1
    32    26    30    1
@<TRIPOS>MOLECULE
*****
 30 32 0 0 0
SMALL
GASTEIGER

@<TRIPOS>ATOM
      1 C          -7.3287  -16.9415   22.7914 C.ar    1  UNL1        0.1345
      2 C          -8.0291  -18.0292   22.0321 C.ar    1  UNL1        0.0487
      3 C          -9.2997  -17.7296   21.2933 C.ar    1  UNL1        0.0529
      4 C          -9.8698  -16.3423   21.3136 C.ar    1  UNL1        0.1037
      5 C          -9.1695  -15.2546   22.0728 C.ar    1  UNL1        0.1054
      6 N          -7.8989  -15.5542   22.8117 N.ar    1  UNL1       -0.2290
      7 C         -11.1405  -16.0428   20.5747 C.3     1  UNL1        0.4212
      8 F         -12.4110  -15.7432   19.8358 F       1  UNL1       -0.1658
      9 F         -10.4664  -16.3818   19.2783 F       1  UNL1       -0.1658
     10 F         -11.8145  -15.7037   21.8711 F       1  UNL1       -0.1658
     11 N          -6.0582  -17.2411   23.5302 N.pl3   1  UNL1       -0.2821
     12 H          -6.0523  -17.2530   24.5146 H       1  UNL1        0.1551
     13 C          -2.2732  -18.0851   21.2472 C.ar    1  UNL1        0.1683
     14 C          -2.4558  -16.7645   21.9347 C.ar    1  UNL1        0.1299
     15 N          -3.7174  -16.4832   22.6957 N.ar    1  UNL1       -0.2251
     16 C          -4.7965  -17.5224   22.7692 C.ar    1  UNL1        0.1527
     17 C          -4.6140  -18.8430   22.0817 C.ar    1  UNL1        0.1340
     18 N          -3.3524  -19.1243   21.3207 N.ar    1  UNL1       -0.2290
     19 N           0.2500  -18.6478   19.7252 N.1     1  UNL1       -0.1892
     20 C          -1.0116  -18.3665   20.4862 C.1     1  UNL1        0.1214
     21 N         -10.0001  -18.8173   20.5341 N.pl3   1  UNL1       -0.3306
     22 H          -9.8523  -18.9154   19.5657 H       1  UNL1        0.1469
     23 C         -10.9258  -19.7554   21.2504 C.3     1  UNL1        0.1184
     24 C         -11.5962  -19.3233   22.5207 C.3     1  UNL1        0.1503
     25 C         -11.0261  -19.7325   23.8464 C.3     1  UNL1        0.1003
     26 N         -11.6964  -19.3003   25.1167 N.3     1  UNL1       -0.2933
     27 C         -12.9370  -18.4589   25.0614 C.3     1  UNL1        0.1011
     28 C         -13.5072  -18.0496   23.7357 C.3     1  UNL1        0.1592
     29 O         -12.8367  -18.4819   22.4653 O.3     1  UNL1       -0.3516
     30 H         -11.0055  -18.7716   25.6491 H       1  UNL1        0.1234
@<TRIPOS>BOND
     1    19    20    3
     2    20    13    1
     3    13    14   ar
     4    14    15   ar
     5    15    16   ar
     6    16    11    1
     7    11     1    1
     8     1     2   ar
     9     2     3   ar
    10     3    21    1
    11    21    23    1
    12    24    23    1
    13    24    25    1
    14    25    26    1
    15    26    27    1
    16    27    28    1
    17    28    29    1
    18     3     4   ar
    19     4     7    1
    20     7     8    1
    21     7     9    1
    22     7    10    1
    23     4     5   ar
    24     5     6   ar
    25    16    17   ar
    26    17    18   ar
    27    18    13   ar
    28     6     1   ar
    29    29    24    1
    30    11    12    1
    31    21    22    1
    32    26    30    1
