@<TRIPOS>MOLECULE
*****
 26 27 0 0 0
SMALL
GASTEIGER

@<TRIPOS>ATOM
      1 C          -9.4822  -19.4870   21.5928 C.ar    1  UNL1        0.1059
      2 C          -9.0689  -19.2653   20.1681 C.ar    1  UNL1        0.1558
      3 F         -10.1085  -19.0181   19.1153 F       1  UNL1       -0.2028
      4 C          -7.6160  -19.2908   19.7959 C.ar    1  UNL1        0.0356
      5 C          -6.5764  -19.5380   20.8485 C.ar    1  UNL1        0.0583
      6 C          -6.9897  -19.7598   22.2733 C.ar    1  UNL1        0.0356
      7 C          -8.4426  -19.7343   22.6454 C.ar    1  UNL1        0.1558
      8 F          -8.8558  -19.9560   24.0703 F       1  UNL1       -0.2028
      9 C         -11.5697  -18.1819   22.4228 C.2     1  UNL1        0.2262
     10 O         -10.7514  -16.9276   22.5085 O.2     1  UNL1       -0.2748
     11 N         -10.9351  -19.4615   21.9650 N.am    1  UNL1       -0.2804
     12 H         -11.4721  -20.2847   21.9087 H       1  UNL1        0.1550
     13 C         -13.0225  -18.1564   22.7950 C.3     1  UNL1        0.0854
     14 C         -14.8681  -18.1363   23.8407 C.3     1  UNL1        0.0005
     15 C         -13.4344  -18.3554   24.2236 C.3     1  UNL1        0.0086
     16 C         -12.0008  -18.5744   24.6064 C.3     1  UNL1        0.0005
     17 C         -13.8463  -18.5544   25.6521 C.3     1  UNL1        0.0005
     18 C          -5.1235  -19.5635   20.4764 C.2     1  UNL1        0.2510
     19 O          -4.5060  -20.8254   19.9507 O.2     1  UNL1       -0.2698
     20 N          -4.2882  -18.3272   20.6299 N.am    1  UNL1       -0.2606
     21 H          -4.6935  -17.4990   20.9749 H       1  UNL1        0.1571
     22 C          -2.8353  -18.3527   20.2578 C.ar    1  UNL1        0.1658
     23 N          -1.7411  -19.0365   21.0227 N.ar    1  UNL1       -0.2224
     24 C          -0.4511  -18.8053   20.2930 C.ar    1  UNL1        0.1079
     25 C          -0.7480  -17.9786   19.0771 C.ar    1  UNL1        0.0588
     26 S          -2.2216  -17.6989   19.0553 S.2     1  UNL1       -0.0508
@<TRIPOS>BOND
     1    14    15    1
     2    15    16    1
     3    15    17    1
     4    15    13    1
     5    13     9    1
     6     9    10    2
     7     9    11   am
     8    11     1    1
     9     1     2   ar
    10     2     3    1
    11     2     4   ar
    12     4     5   ar
    13     5    18    1
    14    18    19    2
    15    18    20   am
    16    20    22    1
    17    22    23   ar
    18    23    24   ar
    19    24    25   ar
    20    25    26   ar
    21     5     6   ar
    22     6     7   ar
    23     7     8    1
    24     7     1   ar
    25    26    22   ar
    26    11    12    1
    27    20    21    1
@<TRIPOS>MOLECULE
*****
 26 27 0 0 0
SMALL
GASTEIGER

@<TRIPOS>ATOM
      1 C          -9.4800  -19.4787   21.5528 C.ar    1  UNL1        0.1059
      2 C          -8.4394  -19.6877   22.6126 C.ar    1  UNL1        0.1558
      3 F          -8.8520  -19.8720   24.0430 F       1  UNL1       -0.2028
      4 C          -6.9861  -19.7125   22.2422 C.ar    1  UNL1        0.0356
      5 C          -6.5734  -19.5282   20.8119 C.ar    1  UNL1        0.0583
      6 C          -7.6140  -19.3192   19.7521 C.ar    1  UNL1        0.0356
      7 C          -9.0673  -19.2944   20.1225 C.ar    1  UNL1        0.1558
      8 F         -10.1080  -19.0854   19.0626 F       1  UNL1       -0.2028
      9 C         -11.5567  -18.1873   22.4300 C.2     1  UNL1        0.2262
     10 O         -10.7267  -16.9452   22.5665 O.2     1  UNL1       -0.2748
     11 N         -10.9334  -19.4539   21.9232 N.am    1  UNL1       -0.2804
     12 H         -11.4781  -20.2691   21.8336 H       1  UNL1        0.1550
     13 C         -13.0100  -18.1625   22.8004 C.3     1  UNL1        0.0854
     14 C         -14.8575  -18.1499   23.8428 C.3     1  UNL1        0.0005
     15 C         -13.4234  -18.3602   24.2288 C.3     1  UNL1        0.0086
     16 C         -11.9893  -18.5706   24.6148 C.3     1  UNL1        0.0005
     17 C         -13.8369  -18.5580   25.6570 C.3     1  UNL1        0.0005
     18 C          -5.1200  -19.5530   20.4415 C.2     1  UNL1        0.2510
     19 O          -4.5093  -20.8046   19.8844 O.2     1  UNL1       -0.2698
     20 N          -4.2775  -18.3262   20.6283 N.am    1  UNL1       -0.2606
     21 H          -4.6783  -17.5047   20.9939 H       1  UNL1        0.1571
     22 C          -2.8241  -18.3509   20.2578 C.ar    1  UNL1        0.1658
     23 N          -1.7195  -18.9692   21.0625 N.ar    1  UNL1       -0.2224
     24 C          -0.4329  -18.7622   20.3197 C.ar    1  UNL1        0.1079
     25 C          -0.7423  -18.0158   19.0559 C.ar    1  UNL1        0.0588
     26 S          -2.2202  -17.7616   19.0176 S.2     1  UNL1       -0.0508
@<TRIPOS>BOND
     1    14    15    1
     2    15    16    1
     3    15    17    1
     4    15    13    1
     5    13     9    1
     6     9    10    2
     7     9    11   am
     8    11     1    1
     9     1     2   ar
    10     2     3    1
    11     2     4   ar
    12     4     5   ar
    13     5    18    1
    14    18    19    2
    15    18    20   am
    16    20    22    1
    17    22    23   ar
    18    23    24   ar
    19    24    25   ar
    20    25    26   ar
    21     5     6   ar
    22     6     7   ar
    23     7     8    1
    24     7     1   ar
    25    26    22   ar
    26    11    12    1
    27    20    21    1
@<TRIPOS>MOLECULE
*****
 26 27 0 0 0
SMALL
GASTEIGER

@<TRIPOS>ATOM
      1 C          -5.4517  -18.8269   22.1585 C.ar    1  UNL1        0.1059
      2 C          -5.7352  -17.5596   22.9090 C.ar    1  UNL1        0.1558
      3 F          -4.6186  -16.6089   23.2244 F       1  UNL1       -0.2028
      4 C          -7.1353  -17.2428   23.3442 C.ar    1  UNL1        0.0356
      5 C          -8.2519  -18.1934   23.0288 C.ar    1  UNL1        0.0583
      6 C          -7.9684  -19.4608   22.2783 C.ar    1  UNL1        0.0356
      7 C          -6.5683  -19.7775   21.8431 C.ar    1  UNL1        0.1558
      8 F          -6.2849  -21.0450   21.0925 F       1  UNL1       -0.2028
      9 C          -3.6388  -18.9147   20.2995 C.2     1  UNL1        0.2262
     10 O          -4.6262  -18.3689   19.3109 O.2     1  UNL1       -0.2748
     11 N          -4.0516  -19.1437   21.7233 N.am    1  UNL1       -0.2804
     12 H          -3.4036  -19.5019   22.3721 H       1  UNL1        0.1550
     13 C          -2.2387  -19.2315   19.8644 C.3     1  UNL1        0.0854
     14 C          -1.3779  -17.9108   18.4449 C.3     1  UNL1        0.0005
     15 C          -1.1808  -18.1689   19.9093 C.3     1  UNL1        0.0086
     16 C          -0.9838  -18.4270   21.3737 C.3     1  UNL1        0.0005
     17 C          -0.1230  -17.1064   19.9542 C.3     1  UNL1        0.0005
     18 C          -9.6520  -17.8766   23.4640 C.2     1  UNL1        0.2510
     19 O         -10.0115  -16.4798   23.8757 O.2     1  UNL1       -0.2698
     20 N         -10.6926  -18.9567   23.4876 N.am    1  UNL1       -0.2606
     21 H         -10.4566  -19.8735   23.2174 H       1  UNL1        0.1571
     22 C         -12.0927  -18.6399   23.9227 C.ar    1  UNL1        0.1658
     23 N         -12.6784  -18.9132   25.2764 N.ar    1  UNL1       -0.2224
     24 C         -14.1006  -18.4364   25.2709 C.ar    1  UNL1        0.1079
     25 C         -14.3939  -17.8685   23.9139 C.ar    1  UNL1        0.0588
     26 S         -13.1530  -17.9943   23.0806 S.2     1  UNL1       -0.0508
@<TRIPOS>BOND
     1    14    15    1
     2    15    16    1
     3    15    17    1
     4    15    13    1
     5    13     9    1
     6     9    10    2
     7     9    11   am
     8    11     1    1
     9     1     2   ar
    10     2     3    1
    11     2     4   ar
    12     4     5   ar
    13     5    18    1
    14    18    19    2
    15    18    20   am
    16    20    22    1
    17    22    23   ar
    18    23    24   ar
    19    24    25   ar
    20    25    26   ar
    21     5     6   ar
    22     6     7   ar
    23     7     8    1
    24     7     1   ar
    25    26    22   ar
    26    11    12    1
    27    20    21    1
@<TRIPOS>MOLECULE
*****
 26 27 0 0 0
SMALL
GASTEIGER

@<TRIPOS>ATOM
      1 C          -8.1872  -18.7672   21.3097 C.ar    1  UNL1        0.1059
      2 C          -7.3801  -18.1304   22.4020 C.ar    1  UNL1        0.1558
      3 F          -8.0715  -17.4765   23.5615 F       1  UNL1       -0.2028
      4 C          -5.8817  -18.1475   22.3348 C.ar    1  UNL1        0.0356
      5 C          -5.1904  -18.8013   21.1753 C.ar    1  UNL1        0.0583
      6 C          -5.9974  -19.4382   20.0831 C.ar    1  UNL1        0.0356
      7 C          -7.4958  -19.4211   20.1503 C.ar    1  UNL1        0.1558
      8 F          -8.3028  -20.0580   19.0579 F       1  UNL1       -0.2028
      9 C         -10.3973  -19.5260   22.4453 C.2     1  UNL1        0.2262
     10 O          -9.6106  -20.3189   23.4466 O.2     1  UNL1       -0.2748
     11 N          -9.6856  -18.7502   21.3769 N.am    1  UNL1       -0.2804
     12 H         -10.2019  -18.2298   20.7198 H       1  UNL1        0.1550
     13 C         -11.8957  -19.5090   22.5125 C.3     1  UNL1        0.0854
     14 C         -12.8745  -17.8854   21.5607 C.3     1  UNL1        0.0005
     15 C         -12.6113  -18.2779   22.9843 C.3     1  UNL1        0.0086
     16 C         -12.3481  -18.6704   24.4079 C.3     1  UNL1        0.0005
     17 C         -13.3269  -17.0470   23.4560 C.3     1  UNL1        0.0005
     18 C          -3.6920  -18.8184   21.1081 C.2     1  UNL1        0.2510
     19 O          -2.9154  -19.8016   21.9328 O.2     1  UNL1       -0.2698
     20 N          -2.9702  -17.8522   20.2162 N.am    1  UNL1       -0.2606
     21 H          -3.4799  -17.2069   19.6750 H       1  UNL1        0.1571
     22 C          -1.4718  -17.8693   20.1490 C.ar    1  UNL1        0.1658
     23 N          -0.6178  -19.0551   19.8108 N.ar    1  UNL1       -0.2224
     24 C           0.8175  -18.6222   19.8610 C.ar    1  UNL1        0.1079
     25 C           0.8506  -17.1687   20.2302 C.ar    1  UNL1        0.0588
     26 S          -0.5643  -16.7033   20.4082 S.2     1  UNL1       -0.0508
@<TRIPOS>BOND
     1    14    15    1
     2    15    16    1
     3    15    17    1
     4    15    13    1
     5    13     9    1
     6     9    10    2
     7     9    11   am
     8    11     1    1
     9     1     2   ar
    10     2     3    1
    11     2     4   ar
    12     4     5   ar
    13     5    18    1
    14    18    19    2
    15    18    20   am
    16    20    22    1
    17    22    23   ar
    18    23    24   ar
    19    24    25   ar
    20    25    26   ar
    21     5     6   ar
    22     6     7   ar
    23     7     8    1
    24     7     1   ar
    25    26    22   ar
    26    11    12    1
    27    20    21    1
@<TRIPOS>MOLECULE
*****
 26 27 0 0 0
SMALL
GASTEIGER

@<TRIPOS>ATOM
      1 C          -6.6506  -18.6845   20.4991 C.ar    1  UNL1        0.1059
      2 C          -6.8265  -18.3921   21.9598 C.ar    1  UNL1        0.1558
      3 F          -5.6545  -17.9432   22.7814 F       1  UNL1       -0.2028
      4 C          -8.1745  -18.5485   22.5989 C.ar    1  UNL1        0.0356
      5 C          -9.3465  -18.9973   21.7774 C.ar    1  UNL1        0.0583
      6 C          -9.1706  -19.2897   20.3168 C.ar    1  UNL1        0.0356
      7 C          -7.8226  -19.1333   19.6776 C.ar    1  UNL1        0.1558
      8 F          -7.6467  -19.4257   18.2169 F       1  UNL1       -0.2028
      9 C          -4.3207  -19.6615   19.8934 C.2     1  UNL1        0.2262
     10 O          -4.6867  -20.9514   20.5660 O.2     1  UNL1       -0.2748
     11 N          -5.3026  -18.5281   19.8600 N.am    1  UNL1       -0.2804
     12 H          -5.0623  -17.6815   19.4186 H       1  UNL1        0.1550
     13 C          -2.9727  -19.5051   19.2543 C.3     1  UNL1        0.0854
     14 C          -2.0202  -17.7861   18.4557 C.3     1  UNL1        0.0005
     15 C          -2.0061  -18.4866   19.7820 C.3     1  UNL1        0.0086
     16 C          -1.9919  -19.1871   21.1083 C.3     1  UNL1        0.0005
     17 C          -1.0395  -17.4681   20.3096 C.3     1  UNL1        0.0005
     18 C         -10.6945  -19.1537   22.4165 C.2     1  UNL1        0.2510
     19 O         -11.4970  -20.3986   22.1797 O.2     1  UNL1       -0.2698
     20 N         -11.2400  -18.0651   23.2926 N.am    1  UNL1       -0.2606
     21 H         -10.7133  -17.2480   23.4481 H       1  UNL1        0.1571
     22 C         -12.5880  -18.2215   23.9317 C.ar    1  UNL1        0.1658
     23 N         -13.9126  -18.0620   23.2462 N.ar    1  UNL1       -0.2224
     24 C         -14.9913  -18.3068   24.2594 C.ar    1  UNL1        0.1079
     25 C         -14.3334  -18.6176   25.5711 C.ar    1  UNL1        0.0588
     26 S         -12.8480  -18.5649   25.3686 S.2     1  UNL1       -0.0508
@<TRIPOS>BOND
     1    14    15    1
     2    15    16    1
     3    15    17    1
     4    15    13    1
     5    13     9    1
     6     9    10    2
     7     9    11   am
     8    11     1    1
     9     1     2   ar
    10     2     3    1
    11     2     4   ar
    12     4     5   ar
    13     5    18    1
    14    18    19    2
    15    18    20   am
    16    20    22    1
    17    22    23   ar
    18    23    24   ar
    19    24    25   ar
    20    25    26   ar
    21     5     6   ar
    22     6     7   ar
    23     7     8    1
    24     7     1   ar
    25    26    22   ar
    26    11    12    1
    27    20    21    1
@<TRIPOS>MOLECULE
*****
 26 27 0 0 0
SMALL
GASTEIGER

@<TRIPOS>ATOM
      1 C           4.3304   -2.1675   20.4491 C.ar    1  UNL1        0.1059
      2 C           3.8680   -2.0811   21.8735 C.ar    1  UNL1        0.1558
      3 F           2.6735   -1.2446   22.2249 F       1  UNL1       -0.2028
      4 C           4.6002   -2.8312   22.9465 C.ar    1  UNL1        0.0356
      5 C           5.7947   -3.6676   22.5951 C.ar    1  UNL1        0.0583
      6 C           6.2570   -3.7540   21.1708 C.ar    1  UNL1        0.0356
      7 C           5.5249   -3.0039   20.0978 C.ar    1  UNL1        0.1558
      8 F           5.9873   -3.0903   18.6734 F       1  UNL1       -0.2028
      9 C           3.7747    0.0663   19.2445 C.2     1  UNL1        0.2262
     10 O           4.6833    0.8001   20.1858 O.2     1  UNL1       -0.2748
     11 N           3.5982   -1.4174   19.3761 N.am    1  UNL1       -0.2804
     12 H           3.0019   -1.8989   18.7583 H       1  UNL1        0.1550
     13 C           3.0425    0.8164   18.1715 C.3     1  UNL1        0.0854
     14 C           0.9999    0.7931   18.7433 C.3     1  UNL1        0.0005
     15 C           2.0330    1.8620   18.5428 C.3     1  UNL1        0.0086
     16 C           3.0660    2.9308   18.3422 C.3     1  UNL1        0.0005
     17 C           1.0234    2.9074   18.9140 C.3     1  UNL1        0.0005
     18 C           6.5269   -4.4177   23.6681 C.2     1  UNL1        0.2510
     19 O           7.4971   -5.5000   23.2979 O.2     1  UNL1       -0.2698
     20 N           6.2887   -4.0855   25.1113 N.am    1  UNL1       -0.2606
     21 H           5.6519   -3.3751   25.3543 H       1  UNL1        0.1571
     22 C           7.0209   -4.8355   26.1843 C.ar    1  UNL1        0.1658
     23 N           6.5414   -6.0770   26.8762 N.ar    1  UNL1       -0.2224
     24 C           7.5853   -6.4846   27.8733 C.ar    1  UNL1        0.1079
     25 C           8.7100   -5.4950   27.7977 C.ar    1  UNL1        0.0588
     26 S           8.3612   -4.4758   26.7538 S.2     1  UNL1       -0.0508
@<TRIPOS>BOND
     1    14    15    1
     2    15    16    1
     3    15    17    1
     4    15    13    1
     5    13     9    1
     6     9    10    2
     7     9    11   am
     8    11     1    1
     9     1     2   ar
    10     2     3    1
    11     2     4   ar
    12     4     5   ar
    13     5    18    1
    14    18    19    2
    15    18    20   am
    16    20    22    1
    17    22    23   ar
    18    23    24   ar
    19    24    25   ar
    20    25    26   ar
    21     5     6   ar
    22     6     7   ar
    23     7     8    1
    24     7     1   ar
    25    26    22   ar
    26    11    12    1
    27    20    21    1
@<TRIPOS>MOLECULE
*****
 26 27 0 0 0
SMALL
GASTEIGER

@<TRIPOS>ATOM
      1 C           4.2718   -2.1638   20.4672 C.ar    1  UNL1        0.1059
      2 C           5.4522   -3.0132   20.0996 C.ar    1  UNL1        0.1558
      3 F           5.8890   -3.1111   18.6679 F       1  UNL1       -0.2028
      4 C           6.1958   -3.7648   21.1637 C.ar    1  UNL1        0.0356
      5 C           5.7591   -3.6670   22.5953 C.ar    1  UNL1        0.0583
      6 C           4.5787   -2.8176   22.9629 C.ar    1  UNL1        0.0356
      7 C           3.8351   -2.0660   21.8989 C.ar    1  UNL1        0.1558
      8 F           2.6547   -1.2165   22.2665 F       1  UNL1       -0.2028
      9 C           3.7511    0.0610   19.2308 C.2     1  UNL1        0.2262
     10 O           4.7177    0.7828   20.1224 O.2     1  UNL1       -0.2748
     11 N           3.5282   -1.4122   19.4032 N.am    1  UNL1       -0.2804
     12 H           2.8939   -1.8859   18.8180 H       1  UNL1        0.1550
     13 C           3.0075    0.8126   18.1668 C.3     1  UNL1        0.0854
     14 C           0.9713    0.8165   18.7614 C.3     1  UNL1        0.0005
     15 C           2.0165    1.8714   18.5500 C.3     1  UNL1        0.0086
     16 C           3.0616    2.9263   18.3386 C.3     1  UNL1        0.0005
     17 C           1.0254    2.9302   18.9332 C.3     1  UNL1        0.0005
     18 C           6.5027   -4.4186   23.6593 C.2     1  UNL1        0.2510
     19 O           7.4718   -5.4977   23.2771 O.2     1  UNL1       -0.2698
     20 N           6.2771   -4.0910   25.1056 N.am    1  UNL1       -0.2606
     21 H           5.6410   -3.3828   25.3565 H       1  UNL1        0.1571
     22 C           7.0207   -4.8426   26.1696 C.ar    1  UNL1        0.1658
     23 N           6.5541   -6.0920   26.8562 N.ar    1  UNL1       -0.2224
     24 C           7.6065   -6.4984   27.8448 C.ar    1  UNL1        0.1079
     25 C           8.7236   -5.5001   27.7693 C.ar    1  UNL1        0.0588
     26 S           8.3616   -4.4768   26.7340 S.2     1  UNL1       -0.0508
@<TRIPOS>BOND
     1    14    15    1
     2    15    16    1
     3    15    17    1
     4    15    13    1
     5    13     9    1
     6     9    10    2
     7     9    11   am
     8    11     1    1
     9     1     2   ar
    10     2     3    1
    11     2     4   ar
    12     4     5   ar
    13     5    18    1
    14    18    19    2
    15    18    20   am
    16    20    22    1
    17    22    23   ar
    18    23    24   ar
    19    24    25   ar
    20    25    26   ar
    21     5     6   ar
    22     6     7   ar
    23     7     8    1
    24     7     1   ar
    25    26    22   ar
    26    11    12    1
    27    20    21    1
@<TRIPOS>MOLECULE
*****
 26 27 0 0 0
SMALL
GASTEIGER

@<TRIPOS>ATOM
      1 C           3.2121    0.4156   18.9708 C.ar    1  UNL1        0.1059
      2 C           3.4041    1.7909   18.4036 C.ar    1  UNL1        0.1558
      3 F           4.7706    2.2447   17.9831 F       1  UNL1       -0.2028
      4 C           2.2296    2.7123   18.2567 C.ar    1  UNL1        0.0356
      5 C           0.8631    2.2585   18.6771 C.ar    1  UNL1        0.0583
      6 C           0.6711    0.8833   19.2444 C.ar    1  UNL1        0.0356
      7 C           1.8456   -0.0382   19.3912 C.ar    1  UNL1        0.1558
      8 F           1.6535   -1.4135   19.9585 F       1  UNL1       -0.2028
      9 C           4.8794   -1.2869   17.9357 C.2     1  UNL1        0.2262
     10 O           4.1978   -1.1465   16.6069 O.2     1  UNL1       -0.2748
     11 N           4.3865   -0.5058   19.1177 N.am    1  UNL1       -0.2804
     12 H           4.8339   -0.5979   19.9898 H       1  UNL1        0.1550
     13 C           6.0539   -2.2083   18.0826 C.3     1  UNL1        0.0854
     14 C           7.3547   -2.2908   19.7562 C.3     1  UNL1        0.0005
     15 C           6.1710   -3.0870   19.2926 C.3     1  UNL1        0.0086
     16 C           4.9874   -3.8833   18.8291 C.3     1  UNL1        0.0005
     17 C           6.2882   -3.9657   20.5027 C.3     1  UNL1        0.0005
     18 C          -0.3113    3.1800   18.5303 C.2     1  UNL1        0.2510
     19 O          -0.8851    3.8618   19.7368 O.2     1  UNL1       -0.2698
     20 N          -0.9120    3.4195   17.1769 N.am    1  UNL1       -0.2606
     21 H          -0.5355    2.9720   16.3850 H       1  UNL1        0.1571
     22 C          -2.0865    4.3410   17.0301 C.ar    1  UNL1        0.1658
     23 N          -2.0389    5.8401   17.0494 N.ar    1  UNL1       -0.2224
     24 C          -3.4378    6.3507   16.8694 C.ar    1  UNL1        0.1079
     25 C          -4.3500    5.1672   16.7388 C.ar    1  UNL1        0.0588
     26 S          -3.5149    3.9251   16.8381 S.2     1  UNL1       -0.0508
@<TRIPOS>BOND
     1    14    15    1
     2    15    16    1
     3    15    17    1
     4    15    13    1
     5    13     9    1
     6     9    10    2
     7     9    11   am
     8    11     1    1
     9     1     2   ar
    10     2     3    1
    11     2     4   ar
    12     4     5   ar
    13     5    18    1
    14    18    19    2
    15    18    20   am
    16    20    22    1
    17    22    23   ar
    18    23    24   ar
    19    24    25   ar
    20    25    26   ar
    21     5     6   ar
    22     6     7   ar
    23     7     8    1
    24     7     1   ar
    25    26    22   ar
    26    11    12    1
    27    20    21    1
@<TRIPOS>MOLECULE
*****
 26 27 0 0 0
SMALL
GASTEIGER

@<TRIPOS>ATOM
      1 C           2.9344    0.5560   19.2395 C.ar    1  UNL1        0.1059
      2 C           2.8720    1.9371   18.6576 C.ar    1  UNL1        0.1558
      3 F           4.0699    2.5129   17.9621 F       1  UNL1       -0.2028
      4 C           1.6116    2.7425   18.7712 C.ar    1  UNL1        0.0356
      5 C           0.4138    2.1668   19.4667 C.ar    1  UNL1        0.0583
      6 C           0.4763    0.7858   20.0485 C.ar    1  UNL1        0.0356
      7 C           1.7366   -0.0197   19.9350 C.ar    1  UNL1        0.1558
      8 F           1.7990   -1.4008   20.5169 F       1  UNL1       -0.2028
      9 C           4.5016   -0.9869   17.8564 C.2     1  UNL1        0.2262
     10 O           3.5482   -0.9191   16.7003 O.2     1  UNL1       -0.2748
     11 N           4.1948   -0.2494   19.1259 N.am    1  UNL1       -0.2804
     12 H           4.8205   -0.2939   19.8846 H       1  UNL1        0.1550
     13 C           5.7620   -1.7924   17.7428 C.3     1  UNL1        0.0854
     14 C           5.0178   -3.5745   18.6204 C.3     1  UNL1        0.0005
     15 C           6.1917   -2.6764   18.8759 C.3     1  UNL1        0.0086
     16 C           7.3657   -1.7784   19.1314 C.3     1  UNL1        0.0005
     17 C           6.6214   -3.5605   20.0089 C.3     1  UNL1        0.0005
     18 C          -0.8465    2.9723   19.5802 C.2     1  UNL1        0.2510
     19 O          -1.1004    4.1057   18.6311 O.2     1  UNL1       -0.2698
     20 N          -1.8530    2.6443   20.6429 N.am    1  UNL1       -0.2606
     21 H          -1.6864    1.9004   21.2659 H       1  UNL1        0.1571
     22 C          -3.1133    3.4497   20.7565 C.ar    1  UNL1        0.1658
     23 N          -4.2673    3.4210   19.7987 N.ar    1  UNL1       -0.2224
     24 C          -5.3082    4.3788   20.2981 C.ar    1  UNL1        0.1079
     25 C          -4.7974    4.9994   21.5645 C.ar    1  UNL1        0.0588
     26 S          -3.4409    4.4253   21.8479 S.2     1  UNL1       -0.0508
@<TRIPOS>BOND
     1    14    15    1
     2    15    16    1
     3    15    17    1
     4    15    13    1
     5    13     9    1
     6     9    10    2
     7     9    11   am
     8    11     1    1
     9     1     2   ar
    10     2     3    1
    11     2     4   ar
    12     4     5   ar
    13     5    18    1
    14    18    19    2
    15    18    20   am
    16    20    22    1
    17    22    23   ar
    18    23    24   ar
    19    24    25   ar
    20    25    26   ar
    21     5     6   ar
    22     6     7   ar
    23     7     8    1
    24     7     1   ar
    25    26    22   ar
    26    11    12    1
    27    20    21    1
