@<TRIPOS>MOLECULE
*****
 30 31 0 0 0
SMALL
GASTEIGER

@<TRIPOS>ATOM
      1 C           5.3895   -3.5231   23.5515 C.2     1  UNL1        0.0786
      2 C           6.5872   -4.3262   23.9647 C.2     1  UNL1        0.1369
      3 O           7.3987   -5.0488   22.9307 O.2     1  UNL1       -0.5054
      4 H           7.1575   -4.9986   22.0267 H       1  UNL1        0.2922
      5 C           5.0034   -3.4427   22.1042 C.2     1  UNL1        0.1988
      6 O           5.4460   -4.5116   21.1494 O.2     1  UNL1       -0.2865
      7 C           3.6432   -2.2989   20.2091 C.2     1  UNL1        0.0034
      8 C           4.1746   -2.2936   21.6118 C.2     1  UNL1        0.0421
      9 C           0.8255    0.4906   20.0385 C.ar    1  UNL1        0.1721
     10 C           1.6543   -0.6586   20.5309 C.ar    1  UNL1        0.0400
     11 C           2.8144   -1.1497   19.7167 C.ar    1  UNL1        0.0033
     12 C           3.1458   -0.4916   18.4102 C.ar    1  UNL1        0.0033
     13 C           2.3170    0.6576   17.9178 C.ar    1  UNL1        0.0398
     14 C           1.1568    1.1487   18.7320 C.ar    1  UNL1        0.1677
     15 O           0.3281    2.2980   18.2396 O.3     1  UNL1       -0.5029
     16 H           0.5351    2.7090   17.4234 H       1  UNL1        0.2923
     17 C          -0.1806    2.1937   21.7229 C.3     1  UNL1        0.2526
     18 O          -0.3346    0.9817   20.8527 O.3     1  UNL1       -0.4684
     19 C           6.9733   -4.4065   25.4119 C.2     1  UNL1        0.0367
     20 C           6.9089   -5.7199   26.1335 C.2     1  UNL1        0.0032
     21 C           7.2950   -5.8003   27.5807 C.ar    1  UNL1        0.0033
     22 C           8.3280   -6.7919   28.0274 C.ar    1  UNL1        0.0033
     23 C           8.7142   -6.8722   29.4746 C.ar    1  UNL1        0.0398
     24 C           8.0673   -5.9610   30.4752 C.ar    1  UNL1        0.1677
     25 O           8.4534   -6.0413   31.9224 O.3     1  UNL1       -0.5029
     26 C           7.0343   -4.9694   30.0285 C.ar    1  UNL1        0.1721
     27 C           6.6481   -4.8890   28.5813 C.ar    1  UNL1        0.0400
     28 H           9.0987   -6.6608   32.2014 H       1  UNL1        0.2923
     29 O           6.3873   -4.0581   31.0290 O.3     1  UNL1       -0.4684
     30 C           7.0790   -2.7957   31.4509 C.3     1  UNL1        0.2526
@<TRIPOS>BOND
     1    17    18    1
     2    18     9    1
     3     9    10   ar
     4    10    11   ar
     5    11     7    1
     6     7     8    2
     7     8     5    1
     8     5     6    2
     9     5     1    1
    10     1     2    2
    11     2     3    1
    12     2    19    1
    13    19    20    2
    14    20    21    1
    15    21    22   ar
    16    22    23   ar
    17    23    24   ar
    18    24    25    1
    19    24    26   ar
    20    26    29    1
    21    29    30    1
    22    26    27   ar
    23    11    12   ar
    24    12    13   ar
    25    13    14   ar
    26    14    15    1
    27    14     9   ar
    28    27    21   ar
    29     3     4    1
    30    25    28    1
    31    15    16    1
@<TRIPOS>MOLECULE
*****
 30 31 0 0 0
SMALL
GASTEIGER

@<TRIPOS>ATOM
      1 C           6.9417   -3.7018   30.5986 C.2     1  UNL1        0.0786
      2 C           6.3310   -3.6190   31.9662 C.2     1  UNL1        0.1369
      3 O           6.1224   -4.8674   32.7712 O.2     1  UNL1       -0.5054
      4 H           6.3736   -5.6989   32.4199 H       1  UNL1        0.2922
      5 C           7.3438   -5.0330   30.0361 C.2     1  UNL1        0.1988
      6 O           7.5328   -6.2072   30.9502 O.2     1  UNL1       -0.2865
      7 C           8.0070   -6.5079   28.0028 C.2     1  UNL1        0.0034
      8 C           7.5570   -5.1899   28.5597 C.2     1  UNL1        0.0421
      9 C           7.6994   -5.9351   24.0878 C.ar    1  UNL1        0.1721
     10 C           7.4863   -5.7783   25.5642 C.ar    1  UNL1        0.0400
     11 C           8.2201   -6.6648   26.5263 C.ar    1  UNL1        0.0033
     12 C           9.1671   -7.7082   26.0118 C.ar    1  UNL1        0.0033
     13 C           9.3802   -7.8650   24.5354 C.ar    1  UNL1        0.0398
     14 C           8.6463   -6.9784   23.5734 C.ar    1  UNL1        0.1677
     15 O           8.8595   -7.1353   22.0968 O.3     1  UNL1       -0.5029
     16 H           9.4510   -7.7871   21.7755 H       1  UNL1        0.2923
     17 C           6.7290   -3.6068   23.4653 C.3     1  UNL1        0.2526
     18 O           6.9655   -5.0485   23.1257 O.3     1  UNL1       -0.4684
     19 C           5.9288   -2.2879   32.5286 C.2     1  UNL1        0.0367
     20 C           4.7355   -2.1848   33.4316 C.2     1  UNL1        0.0032
     21 C           4.3334   -0.8537   33.9941 C.ar    1  UNL1        0.0033
     22 C           3.5640    0.1167   33.1477 C.ar    1  UNL1        0.0033
     23 C           3.1619    1.4478   33.7101 C.ar    1  UNL1        0.0398
     24 C           3.5291    1.8086   35.1190 C.ar    1  UNL1        0.1677
     25 O           3.1270    3.1397   35.6814 O.3     1  UNL1       -0.5029
     26 C           4.2985    0.8382   35.9654 C.ar    1  UNL1        0.1721
     27 C           4.7006   -0.4929   35.4029 C.ar    1  UNL1        0.0400
     28 H           2.6463    3.7459   35.1527 H       1  UNL1        0.2923
     29 O           4.6657    1.1990   37.3743 O.3     1  UNL1       -0.4684
     30 C           3.6613    1.0360   38.4764 C.3     1  UNL1        0.2526
@<TRIPOS>BOND
     1    17    18    1
     2    18     9    1
     3     9    10   ar
     4    10    11   ar
     5    11     7    1
     6     7     8    2
     7     8     5    1
     8     5     6    2
     9     5     1    1
    10     1     2    2
    11     2     3    1
    12     2    19    1
    13    19    20    2
    14    20    21    1
    15    21    22   ar
    16    22    23   ar
    17    23    24   ar
    18    24    25    1
    19    24    26   ar
    20    26    29    1
    21    29    30    1
    22    26    27   ar
    23    11    12   ar
    24    12    13   ar
    25    13    14   ar
    26    14    15    1
    27    14     9   ar
    28    27    21   ar
    29     3     4    1
    30    25    28    1
    31    15    16    1
@<TRIPOS>MOLECULE
*****
 30 31 0 0 0
SMALL
GASTEIGER

@<TRIPOS>ATOM
      1 C           6.0543   -3.5997   22.9092 C.2     1  UNL1        0.0786
      2 C           6.1193   -3.6509   21.4114 C.2     1  UNL1        0.1369
      3 O           7.0534   -4.6089   20.7336 O.2     1  UNL1       -0.5054
      4 H           7.5964   -5.1754   21.2457 H       1  UNL1        0.2922
      5 C           6.9235   -4.5065   23.7290 C.2     1  UNL1        0.1988
      6 O           7.6534   -5.6408   23.0728 O.2     1  UNL1       -0.2865
      7 C           6.7737   -5.3937   26.1663 C.2     1  UNL1        0.0034
      8 C           7.0628   -4.2790   25.2051 C.2     1  UNL1        0.0421
      9 C           6.5419   -3.6691   29.7331 C.ar    1  UNL1        0.1721
     10 C           6.4026   -3.8966   28.2571 C.ar    1  UNL1        0.0400
     11 C           6.9130   -5.1662   27.6425 C.ar    1  UNL1        0.0033
     12 C           7.5627   -6.2082   28.5039 C.ar    1  UNL1        0.0033
     13 C           7.7020   -5.9807   29.9799 C.ar    1  UNL1        0.0398
     14 C           7.1916   -4.7111   30.5946 C.ar    1  UNL1        0.1677
     15 O           7.3309   -4.4836   32.0707 O.3     1  UNL1       -0.5029
     16 H           7.7367   -5.1346   32.6088 H       1  UNL1        0.2923
     17 C           6.8575   -1.1492   30.2813 C.3     1  UNL1        0.2526
     18 O           6.0316   -2.3996   30.3478 O.3     1  UNL1       -0.4684
     19 C           5.2500   -2.7441   20.5916 C.2     1  UNL1        0.0367
     20 C           3.9803   -2.1958   21.1720 C.2     1  UNL1        0.0032
     21 C           3.1111   -1.2890   20.3522 C.ar    1  UNL1        0.0033
     22 C           3.5094   -0.9339   18.9504 C.ar    1  UNL1        0.0033
     23 C           2.6402   -0.0272   18.1305 C.ar    1  UNL1        0.0398
     24 C           1.3726    0.5246   18.7125 C.ar    1  UNL1        0.1677
     25 O           0.5034    1.4314   17.8926 O.3     1  UNL1       -0.5029
     26 C           0.9742    0.1695   20.1143 C.ar    1  UNL1        0.1721
     27 C           1.8435   -0.7373   20.9341 C.ar    1  UNL1        0.0400
     28 H           0.7523    1.6532   17.0169 H       1  UNL1        0.2923
     29 O          -0.2934    0.7212   20.6963 O.3     1  UNL1       -0.4684
     30 C          -0.3193    2.1139   21.2528 C.3     1  UNL1        0.2526
@<TRIPOS>BOND
     1    17    18    1
     2    18     9    1
     3     9    10   ar
     4    10    11   ar
     5    11     7    1
     6     7     8    2
     7     8     5    1
     8     5     6    2
     9     5     1    1
    10     1     2    2
    11     2     3    1
    12     2    19    1
    13    19    20    2
    14    20    21    1
    15    21    22   ar
    16    22    23   ar
    17    23    24   ar
    18    24    25    1
    19    24    26   ar
    20    26    29    1
    21    29    30    1
    22    26    27   ar
    23    11    12   ar
    24    12    13   ar
    25    13    14   ar
    26    14    15    1
    27    14     9   ar
    28    27    21   ar
    29     3     4    1
    30    25    28    1
    31    15    16    1
@<TRIPOS>MOLECULE
*****
 30 31 0 0 0
SMALL
GASTEIGER

@<TRIPOS>ATOM
      1 C           1.1431    1.5576   24.4144 C.2     1  UNL1        0.0786
      2 C           0.4643    1.3368   25.7338 C.2     1  UNL1        0.1369
      3 O           1.0856    0.4302   26.7545 O.2     1  UNL1       -0.5054
      4 H           1.8978    0.0017   26.5680 H       1  UNL1        0.2922
      5 C           2.4433    0.8717   24.1159 C.2     1  UNL1        0.1988
      6 O           3.3133    0.3916   25.2396 O.2     1  UNL1       -0.2865
      7 C           2.2657   -0.4371   21.8786 C.2     1  UNL1        0.0034
      8 C           2.8734    0.6658   22.6937 C.2     1  UNL1        0.0421
      9 C           3.9869   -2.0231   18.6736 C.ar    1  UNL1        0.1721
     10 C           3.5567   -1.8172   20.0957 C.ar    1  UNL1        0.0400
     11 C           2.6959   -0.6430   20.4564 C.ar    1  UNL1        0.0033
     12 C           2.2652    0.3254   19.3949 C.ar    1  UNL1        0.0033
     13 C           2.6954    0.1195   17.9728 C.ar    1  UNL1        0.0398
     14 C           3.5562   -1.0548   17.6121 C.ar    1  UNL1        0.1677
     15 O           3.9864   -1.2606   16.1899 O.3     1  UNL1       -0.5029
     16 H           3.7173   -0.6557   15.5268 H       1  UNL1        0.2923
     17 C           4.5211   -4.5596   18.8491 C.3     1  UNL1        0.2526
     18 O           4.8477   -3.1974   18.3129 O.3     1  UNL1       -0.4684
     19 C          -0.8358    2.0228   26.0323 C.2     1  UNL1        0.0367
     20 C          -1.5184    2.8317   24.9695 C.2     1  UNL1        0.0032
     21 C          -2.8185    3.5176   25.2680 C.ar    1  UNL1        0.0033
     22 C          -3.0090    4.2277   26.5755 C.ar    1  UNL1        0.0033
     23 C          -4.3091    4.9136   26.8740 C.ar    1  UNL1        0.0398
     24 C          -5.4188    4.8895   25.8651 C.ar    1  UNL1        0.1677
     25 O          -6.7190    5.5754   26.1636 O.3     1  UNL1       -0.5029
     26 C          -5.2284    4.1795   24.5576 C.ar    1  UNL1        0.1721
     27 C          -3.9282    3.4935   24.2591 C.ar    1  UNL1        0.0400
     28 H          -6.8379    6.0190   26.9804 H       1  UNL1        0.2923
     29 O          -6.3381    4.1553   23.5486 O.3     1  UNL1       -0.4684
     30 C          -6.4609    5.2608   22.5423 C.3     1  UNL1        0.2526
@<TRIPOS>BOND
     1    17    18    1
     2    18     9    1
     3     9    10   ar
     4    10    11   ar
     5    11     7    1
     6     7     8    2
     7     8     5    1
     8     5     6    2
     9     5     1    1
    10     1     2    2
    11     2     3    1
    12     2    19    1
    13    19    20    2
    14    20    21    1
    15    21    22   ar
    16    22    23   ar
    17    23    24   ar
    18    24    25    1
    19    24    26   ar
    20    26    29    1
    21    29    30    1
    22    26    27   ar
    23    11    12   ar
    24    12    13   ar
    25    13    14   ar
    26    14    15    1
    27    14     9   ar
    28    27    21   ar
    29     3     4    1
    30    25    28    1
    31    15    16    1
@<TRIPOS>MOLECULE
*****
 30 31 0 0 0
SMALL
GASTEIGER

@<TRIPOS>ATOM
      1 C           7.1352   -3.7530   30.6847 C.2     1  UNL1        0.0786
      2 C           6.4402   -3.7058   32.0132 C.2     1  UNL1        0.1369
      3 O           6.1310   -4.9790   32.7436 O.2     1  UNL1       -0.5054
      4 H           6.3721   -5.8038   32.3700 H       1  UNL1        0.2922
      5 C           7.5211   -5.0734   30.0867 C.2     1  UNL1        0.1988
      6 O           7.6932   -6.2746   30.9686 O.2     1  UNL1       -0.2865
      7 C           7.9649   -6.5398   27.9884 C.2     1  UNL1        0.0034
      8 C           7.7348   -5.1927   28.6068 C.2     1  UNL1        0.0421
      9 C           7.6838   -5.8461   24.0910 C.ar    1  UNL1        0.1721
     10 C           7.4701   -5.7269   25.5709 C.ar    1  UNL1        0.0400
     11 C           8.1786   -6.6590   26.5085 C.ar    1  UNL1        0.0033
     12 C           9.1009   -7.7103   25.9662 C.ar    1  UNL1        0.0033
     13 C           9.3146   -7.8295   24.4863 C.ar    1  UNL1        0.0398
     14 C           8.6060   -6.8974   23.5487 C.ar    1  UNL1        0.1677
     15 O           8.8198   -7.0166   22.0688 O.3     1  UNL1       -0.5029
     16 H           9.3959   -7.6733   21.7300 H       1  UNL1        0.2923
     17 C           7.4515   -3.5000   22.9993 C.3     1  UNL1        0.2526
     18 O           6.9752   -4.9139   23.1534 O.3     1  UNL1       -0.4684
     19 C           6.0543   -2.3854   32.6113 C.2     1  UNL1        0.0367
     20 C           4.8016   -2.2695   33.4281 C.2     1  UNL1        0.0032
     21 C           4.4158   -0.9491   34.0262 C.ar    1  UNL1        0.0033
     22 C           4.8287   -0.6114   35.4281 C.ar    1  UNL1        0.0033
     23 C           4.4428    0.7090   36.0261 C.ar    1  UNL1        0.0398
     24 C           3.6440    1.6917   35.2223 C.ar    1  UNL1        0.1677
     25 O           3.2582    3.0121   35.8203 O.3     1  UNL1       -0.5029
     26 C           3.2311    1.3540   33.8204 C.ar    1  UNL1        0.1721
     27 C           3.6170    0.0336   33.2223 C.ar    1  UNL1        0.0400
     28 H           3.5161    3.2231   36.6961 H       1  UNL1        0.2923
     29 O           2.4323    2.3367   33.0164 O.3     1  UNL1       -0.4684
     30 C           1.5440    1.8532   31.9088 C.3     1  UNL1        0.2526
@<TRIPOS>BOND
     1    17    18    1
     2    18     9    1
     3     9    10   ar
     4    10    11   ar
     5    11     7    1
     6     7     8    2
     7     8     5    1
     8     5     6    2
     9     5     1    1
    10     1     2    2
    11     2     3    1
    12     2    19    1
    13    19    20    2
    14    20    21    1
    15    21    22   ar
    16    22    23   ar
    17    23    24   ar
    18    24    25    1
    19    24    26   ar
    20    26    29    1
    21    29    30    1
    22    26    27   ar
    23    11    12   ar
    24    12    13   ar
    25    13    14   ar
    26    14    15    1
    27    14     9   ar
    28    27    21   ar
    29     3     4    1
    30    25    28    1
    31    15    16    1
@<TRIPOS>MOLECULE
*****
 30 31 0 0 0
SMALL
GASTEIGER

@<TRIPOS>ATOM
      1 C           0.4083    1.8421   20.3050 C.2     1  UNL1        0.0786
      2 C           0.9325    0.8353   19.3244 C.2     1  UNL1        0.1369
      3 O           0.5861    0.9543   17.8698 O.2     1  UNL1       -0.5054
      4 H           0.0423    1.6576   17.5737 H       1  UNL1        0.2922
      5 C          -0.4623    2.9679   19.8310 C.2     1  UNL1        0.1988
      6 O           0.1025    4.0233   18.9269 O.2     1  UNL1       -0.2865
      7 C          -2.2691    3.7695   21.5171 C.2     1  UNL1        0.0034
      8 C          -1.8976    3.0384   20.2611 C.2     1  UNL1        0.0421
      9 C          -5.4883    3.8753   23.8357 C.ar    1  UNL1        0.1721
     10 C          -4.0530    3.8048   23.4057 C.ar    1  UNL1        0.0400
     11 C          -3.7045    3.8400   21.9471 C.ar    1  UNL1        0.0033
     12 C          -4.7912    3.9456   20.9187 C.ar    1  UNL1        0.0033
     13 C          -6.2265    4.0160   21.3487 C.ar    1  UNL1        0.0398
     14 C          -6.5750    3.9809   22.8073 C.ar    1  UNL1        0.1677
     15 O          -8.0104    4.0514   23.2373 O.3     1  UNL1       -0.5029
     16 H          -8.6892    4.1173   22.5949 H       1  UNL1        0.2923
     17 C          -5.4613    4.9887   26.1830 C.3     1  UNL1        0.2526
     18 O          -5.8368    3.8402   25.2943 O.3     1  UNL1       -0.4684
     19 C           1.8030   -0.2905   19.7984 C.2     1  UNL1        0.0367
     20 C           2.5245   -0.1801   21.1088 C.2     1  UNL1        0.0032
     21 C           3.3951   -1.3059   21.5828 C.ar    1  UNL1        0.0033
     22 C           3.7224   -1.4383   23.0406 C.ar    1  UNL1        0.0033
     23 C           4.5930   -2.5641   23.5146 C.ar    1  UNL1        0.0398
     24 C           5.1362   -3.5575   22.5308 C.ar    1  UNL1        0.1677
     25 O           6.0068   -4.6833   23.0048 O.3     1  UNL1       -0.5029
     26 C           4.8089   -3.4252   21.0730 C.ar    1  UNL1        0.1721
     27 C           3.9383   -2.2994   20.5990 C.ar    1  UNL1        0.0400
     28 H           6.2113   -4.7660   23.9155 H       1  UNL1        0.2923
     29 O           5.3521   -4.4187   20.0891 O.3     1  UNL1       -0.4684
     30 C           4.4664   -4.9661   19.0094 C.3     1  UNL1        0.2526
@<TRIPOS>BOND
     1    17    18    1
     2    18     9    1
     3     9    10   ar
     4    10    11   ar
     5    11     7    1
     6     7     8    2
     7     8     5    1
     8     5     6    2
     9     5     1    1
    10     1     2    2
    11     2     3    1
    12     2    19    1
    13    19    20    2
    14    20    21    1
    15    21    22   ar
    16    22    23   ar
    17    23    24   ar
    18    24    25    1
    19    24    26   ar
    20    26    29    1
    21    29    30    1
    22    26    27   ar
    23    11    12   ar
    24    12    13   ar
    25    13    14   ar
    26    14    15    1
    27    14     9   ar
    28    27    21   ar
    29     3     4    1
    30    25    28    1
    31    15    16    1
@<TRIPOS>MOLECULE
*****
 30 31 0 0 0
SMALL
GASTEIGER

@<TRIPOS>ATOM
      1 C           6.2360   -3.2782   19.8043 C.2     1  UNL1        0.0786
      2 C           7.5583   -3.4880   20.4808 C.2     1  UNL1        0.1369
      3 O           8.7575   -2.6999   20.0442 O.2     1  UNL1       -0.5054
      4 H           8.6807   -2.0766   19.3488 H       1  UNL1        0.2922
      5 C           6.1130   -2.2803   18.6911 C.2     1  UNL1        0.1988
      6 O           7.0683   -2.3245   17.5354 O.2     1  UNL1       -0.2865
      7 C           3.7664   -1.5020   19.4897 C.2     1  UNL1        0.0034
      8 C           5.0349   -1.2384   18.7336 C.2     1  UNL1        0.0421
      9 C           1.8128    1.8993   18.8863 C.ar    1  UNL1        0.1721
     10 C           2.8908    0.8573   18.8439 C.ar    1  UNL1        0.0400
     11 C           2.6882   -0.4600   19.5321 C.ar    1  UNL1        0.0033
     12 C           1.4075   -0.7352   20.2628 C.ar    1  UNL1        0.0033
     13 C           0.3294    0.3068   20.3052 C.ar    1  UNL1        0.0398
     14 C           0.5320    1.6241   19.6170 C.ar    1  UNL1        0.1677
     15 O          -0.5462    2.6661   19.6594 O.3     1  UNL1       -0.5029
     16 H          -1.3462    2.4942   20.1159 H       1  UNL1        0.2923
     17 C           3.3947    3.7923   18.0713 C.3     1  UNL1        0.2526
     18 O           2.0154    3.2166   18.1980 O.3     1  UNL1       -0.4684
     19 C           7.6813   -4.4858   21.5940 C.2     1  UNL1        0.0367
     20 C           7.2023   -4.1354   22.9716 C.2     1  UNL1        0.0032
     21 C           7.3253   -5.1333   24.0848 C.ar    1  UNL1        0.0033
     22 C           8.0817   -6.4102   23.8673 C.ar    1  UNL1        0.0033
     23 C           8.2046   -7.4080   24.9804 C.ar    1  UNL1        0.0398
     24 C           7.5712   -7.1290   26.3112 C.ar    1  UNL1        0.1677
     25 O           7.6942   -8.1268   27.4243 O.3     1  UNL1       -0.5029
     26 C           6.8148   -5.8521   26.5287 C.ar    1  UNL1        0.1721
     27 C           6.6918   -4.8543   25.4155 C.ar    1  UNL1        0.0400
     28 H           8.1667   -8.9245   27.2884 H       1  UNL1        0.2923
     29 O           6.1813   -5.5730   27.8595 O.3     1  UNL1       -0.4684
     30 C           6.9912   -4.9560   28.9610 C.3     1  UNL1        0.2526
@<TRIPOS>BOND
     1    17    18    1
     2    18     9    1
     3     9    10   ar
     4    10    11   ar
     5    11     7    1
     6     7     8    2
     7     8     5    1
     8     5     6    2
     9     5     1    1
    10     1     2    2
    11     2     3    1
    12     2    19    1
    13    19    20    2
    14    20    21    1
    15    21    22   ar
    16    22    23   ar
    17    23    24   ar
    18    24    25    1
    19    24    26   ar
    20    26    29    1
    21    29    30    1
    22    26    27   ar
    23    11    12   ar
    24    12    13   ar
    25    13    14   ar
    26    14    15    1
    27    14     9   ar
    28    27    21   ar
    29     3     4    1
    30    25    28    1
    31    15    16    1
@<TRIPOS>MOLECULE
*****
 30 31 0 0 0
SMALL
GASTEIGER

@<TRIPOS>ATOM
      1 C          -0.2455    1.2432   20.3825 C.2     1  UNL1        0.0786
      2 C          -0.7561    2.6504   20.2869 C.2     1  UNL1        0.1369
      3 O          -0.1659    3.5959   19.2832 O.2     1  UNL1       -0.5054
      4 H           0.5218    3.3076   18.7158 H       1  UNL1        0.2922
      5 C           0.8554    0.7816   19.4742 C.2     1  UNL1        0.1988
      6 O           1.0385    1.4239   18.1310 O.2     1  UNL1       -0.2865
      7 C           2.4505   -0.2518   21.2456 C.2     1  UNL1        0.0034
      8 C           1.7732   -0.3223   19.9091 C.2     1  UNL1        0.0421
      9 C           4.7940   -3.4518   21.1115 C.ar    1  UNL1        0.1721
     10 C           3.8762   -2.3479   20.6767 C.ar    1  UNL1        0.0400
     11 C           3.3683   -1.3557   21.6805 C.ar    1  UNL1        0.0033
     12 C           3.7782   -1.4673   23.1190 C.ar    1  UNL1        0.0033
     13 C           4.6960   -2.5712   23.5538 C.ar    1  UNL1        0.0398
     14 C           5.2039   -3.5634   22.5500 C.ar    1  UNL1        0.1677
     15 O           6.1217   -4.6673   22.9849 O.3     1  UNL1       -0.5029
     16 H           6.3778   -4.7371   23.8835 H       1  UNL1        0.2923
     17 C           4.4186   -4.8891   18.9801 C.3     1  UNL1        0.2526
     18 O           5.3019   -4.4440   20.1077 O.3     1  UNL1       -0.4684
     19 C          -1.8570    3.1120   21.1952 C.2     1  UNL1        0.0367
     20 C          -3.2823    3.0651   20.7300 C.2     1  UNL1        0.0032
     21 C          -4.3832    3.5268   21.6383 C.ar    1  UNL1        0.0033
     22 C          -5.5690    4.2501   21.0720 C.ar    1  UNL1        0.0033
     23 C          -6.6699    4.7117   21.9802 C.ar    1  UNL1        0.0398
     24 C          -6.5851    4.4500   23.4547 C.ar    1  UNL1        0.1677
     25 O          -7.6860    4.9116   24.3630 O.3     1  UNL1       -0.5029
     26 C          -5.3993    3.7266   24.0210 C.ar    1  UNL1        0.1721
     27 C          -4.2984    3.2650   23.1128 C.ar    1  UNL1        0.0400
     28 H          -8.4267    5.3635   24.0092 H       1  UNL1        0.2923
     29 O          -5.3144    3.4649   25.4956 O.3     1  UNL1       -0.4684
     30 C          -4.3936    4.2837   26.3509 C.3     1  UNL1        0.2526
@<TRIPOS>BOND
     1    17    18    1
     2    18     9    1
     3     9    10   ar
     4    10    11   ar
     5    11     7    1
     6     7     8    2
     7     8     5    1
     8     5     6    2
     9     5     1    1
    10     1     2    2
    11     2     3    1
    12     2    19    1
    13    19    20    2
    14    20    21    1
    15    21    22   ar
    16    22    23   ar
    17    23    24   ar
    18    24    25    1
    19    24    26   ar
    20    26    29    1
    21    29    30    1
    22    26    27   ar
    23    11    12   ar
    24    12    13   ar
    25    13    14   ar
    26    14    15    1
    27    14     9   ar
    28    27    21   ar
    29     3     4    1
    30    25    28    1
    31    15    16    1
@<TRIPOS>MOLECULE
*****
 30 31 0 0 0
SMALL
GASTEIGER

@<TRIPOS>ATOM
      1 C         -15.8068    0.9976   19.1266 C.2     1  UNL1        0.0786
      2 C         -16.3142   -0.1701   19.9197 C.2     1  UNL1        0.1369
      3 O         -17.2794    0.0511   21.0464 O.2     1  UNL1       -0.5054
      4 H         -17.5654    0.9187   21.2548 H       1  UNL1        0.2922
      5 C         -16.2646    2.3865   19.4602 C.2     1  UNL1        0.1988
      6 O         -17.3947    3.0080   18.6941 O.2     1  UNL1       -0.2865
      7 C         -16.3545    3.5062   21.8028 C.2     1  UNL1        0.0034
      8 C         -15.5925    3.1540   20.5598 C.2     1  UNL1        0.0421
      9 C         -15.7274    5.2787   25.2979 C.ar    1  UNL1        0.1721
     10 C         -16.3996    4.5113   24.1983 C.ar    1  UNL1        0.0400
     11 C         -15.6823    4.2737   22.9025 C.ar    1  UNL1        0.0033
     12 C         -14.2928    4.8036   22.7063 C.ar    1  UNL1        0.0033
     13 C         -13.6206    5.5710   23.8060 C.ar    1  UNL1        0.0398
     14 C         -14.3379    5.8086   25.1017 C.ar    1  UNL1        0.1677
     15 O         -13.6657    6.5761   26.2014 O.3     1  UNL1       -0.5029
     16 H         -12.7977    6.9071   26.0788 H       1  UNL1        0.2923
     17 C         -17.9182    5.7974   26.5946 C.3     1  UNL1        0.2526
     18 O         -16.4448    5.5163   26.5936 O.3     1  UNL1       -0.4684
     19 C         -15.8564   -1.5590   19.5861 C.2     1  UNL1        0.0367
     20 C         -14.6816   -2.1542   20.3042 C.2     1  UNL1        0.0032
     21 C         -14.2238   -3.5432   19.9706 C.ar    1  UNL1        0.0033
     22 C         -15.2236   -4.6556   19.8579 C.ar    1  UNL1        0.0033
     23 C         -14.7657   -6.0446   19.5243 C.ar    1  UNL1        0.0398
     24 C         -13.3081   -6.3210   19.3034 C.ar    1  UNL1        0.1677
     25 O         -12.8503   -7.7099   18.9698 O.3     1  UNL1       -0.5029
     26 C         -12.3083   -5.2085   19.4161 C.ar    1  UNL1        0.1721
     27 C         -12.7661   -3.8196   19.7497 C.ar    1  UNL1        0.0400
     28 H         -13.4749   -8.4049   18.8994 H       1  UNL1        0.2923
     29 O         -10.8506   -5.4850   19.1952 O.3     1  UNL1       -0.4684
     30 C          -9.9324   -4.3762   18.7741 C.3     1  UNL1        0.2526
@<TRIPOS>BOND
     1    17    18    1
     2    18     9    1
     3     9    10   ar
     4    10    11   ar
     5    11     7    1
     6     7     8    2
     7     8     5    1
     8     5     6    2
     9     5     1    1
    10     1     2    2
    11     2     3    1
    12     2    19    1
    13    19    20    2
    14    20    21    1
    15    21    22   ar
    16    22    23   ar
    17    23    24   ar
    18    24    25    1
    19    24    26   ar
    20    26    29    1
    21    29    30    1
    22    26    27   ar
    23    11    12   ar
    24    12    13   ar
    25    13    14   ar
    26    14    15    1
    27    14     9   ar
    28    27    21   ar
    29     3     4    1
    30    25    28    1
    31    15    16    1
