@<TRIPOS>MOLECULE
*****
 38 41 0 0 0
SMALL
GASTEIGER

@<TRIPOS>ATOM
      1 C           3.5250    0.6789   31.3382 C.ar    1  UNL1        0.1353
      2 N           4.4806    1.1456   30.2803 N.ar    1  UNL1       -0.2279
      3 C           3.6774    1.7142   29.1483 C.ar    1  UNL1        0.1171
      4 C           2.2253    1.5988   29.5064 C.ar    1  UNL1        0.0769
      5 N           2.1312    0.9590   30.8599 N.ar    1  UNL1       -0.3394
      6 H           1.3004    0.7581   31.3484 H       1  UNL1        0.1671
      7 C           3.4085    2.1096   34.2688 C.2     1  UNL1        0.2439
      8 O           2.9738    2.9960   33.1396 O.2     1  UNL1       -0.2731
      9 N           3.8442    0.7012   33.9919 N.am    1  UNL1       -0.2730
     10 C           4.3029   -0.2968   35.0135 C.3     1  UNL1        0.0939
     11 C           4.6399   -1.5712   34.2977 C.3     1  UNL1        0.0237
     12 C           4.3895   -1.3608   32.8338 C.3     1  UNL1        0.0293
     13 C           3.8977    0.0436   32.6449 C.3     1  UNL1        0.1319
     14 C           3.4075    2.6315   35.6751 C.3     1  UNL1        0.1512
     15 C           2.3923    1.5136   37.7893 C.2     1  UNL1        0.4021
     16 O           3.7280    0.9126   38.1130 O.2     1  UNL1       -0.2264
     17 N           2.2321    2.3730   36.5703 N.am    1  UNL1       -0.2640
     18 H           1.3554    2.7674   36.3579 H       1  UNL1        0.1532
     19 C           1.2243    0.0749   39.6103 C.3     1  UNL1        0.2573
     20 O           1.2168    1.2551   38.6844 O.3     1  UNL1       -0.4306
     21 C           4.5821    3.4120   36.1862 C.3     1  UNL1        0.0270
     22 C           4.3615    4.6538   36.9981 C.3     1  UNL1        0.0022
     23 C           5.9774    2.9506   35.8855 C.3     1  UNL1        0.0022
     24 C           1.0702    2.0450   28.6598 C.ar    1  UNL1        0.0172
     25 C           0.7694    3.5070   28.5119 C.ar    1  UNL1        0.0015
     26 C          -0.3857    3.9531   27.6654 C.ar    1  UNL1        0.0000
     27 C          -1.2399    2.9372   26.9666 C.ar    1  UNL1        0.0000
     28 C          -0.9391    1.4752   27.1145 C.ar    1  UNL1        0.0000
     29 C           0.2160    1.0291   27.9611 C.ar    1  UNL1        0.0015
     30 C          -2.3950    3.3834   26.1200 C.ar    1  UNL1       -0.0000
     31 C          -3.6708    3.8325   26.7685 C.ar    1  UNL1       -0.0002
     32 C          -4.8260    4.2787   25.9219 C.ar    1  UNL1       -0.0019
     33 C          -4.7052    4.2757   24.4268 C.ar    1  UNL1        0.0070
     34 C          -3.4293    3.8266   23.7783 C.ar    1  UNL1       -0.0019
     35 C          -2.2743    3.3804   24.6249 C.ar    1  UNL1       -0.0002
     36 C          -5.8602    4.7219   23.5802 C.3     1  UNL1        0.1636
     37 O          -7.0945    3.8744   23.4888 O.3     1  UNL1       -0.3772
     38 H          -6.8809    3.0389   23.0447 H       1  UNL1        0.2109
@<TRIPOS>BOND
     1    19    20    1
     2    20    15    1
     3    15    16    2
     4    15    17   am
     5    14    17    1
     6    14     7    1
     7     7     8    2
     8     7     9   am
     9     9    10    1
    10    10    11    1
    11    11    12    1
    12    12    13    1
    13    13     1    1
    14     1     2   ar
    15     2     3   ar
    16     3     4   ar
    17     4    24    1
    18    24    25   ar
    19    25    26   ar
    20    26    27   ar
    21    27    30    1
    22    30    31   ar
    23    31    32   ar
    24    32    33   ar
    25    33    36    1
    26    36    37    1
    27    33    34   ar
    28    34    35   ar
    29    27    28   ar
    30    28    29   ar
    31     4     5   ar
    32    14    21    1
    33    21    22    1
    34    21    23    1
    35    13     9    1
    36     5     1   ar
    37    29    24   ar
    38    35    30   ar
    39    17    18    1
    40    37    38    1
    41     5     6    1
@<TRIPOS>MOLECULE
*****
 38 41 0 0 0
SMALL
GASTEIGER

@<TRIPOS>ATOM
      1 C           7.9912   -4.9768   29.5348 C.ar    1  UNL1        0.1353
      2 N           9.2481   -4.7871   30.3313 N.ar    1  UNL1       -0.2279
      3 C           8.9396   -3.8615   31.4706 C.ar    1  UNL1        0.1171
      4 C           7.4921   -3.4791   31.3783 C.ar    1  UNL1        0.0769
      5 N           6.9059   -4.1685   30.1819 N.ar    1  UNL1       -0.3394
      6 H           5.9728   -4.1020   29.8753 H       1  UNL1        0.1671
      7 C           7.1617   -3.9211   26.5605 C.2     1  UNL1        0.2439
      8 O           7.2286   -2.8377   27.5957 O.2     1  UNL1       -0.2731
      9 N           7.4639   -5.3405   26.9397 N.am    1  UNL1       -0.2730
     10 C           7.4380   -6.5240   26.0184 C.3     1  UNL1        0.0939
     11 C           7.8032   -7.7406   26.8162 C.3     1  UNL1        0.0237
     12 C           8.0549   -7.3091   28.2305 C.3     1  UNL1        0.0293
     13 C           7.8452   -5.8258   28.3069 C.3     1  UNL1        0.1319
     14 C           6.7926   -3.5851   25.1459 C.3     1  UNL1        0.1512
     15 C           4.9976   -1.7344   24.8259 C.2     1  UNL1        0.4021
     16 O           6.0150   -0.6878   25.1718 O.2     1  UNL1       -0.2264
     17 N           5.3865   -3.1830   24.8129 N.am    1  UNL1       -0.2640
     18 H           4.7187   -3.8699   24.5858 H       1  UNL1        0.1532
     19 C           3.2762   -0.7520   23.1460 C.3     1  UNL1        0.2573
     20 O           3.5914   -1.3323   24.4929 O.3     1  UNL1       -0.4306
     21 C           7.8299   -3.6513   24.0643 C.3     1  UNL1        0.0270
     22 C           7.5001   -4.2883   22.7469 C.3     1  UNL1        0.0022
     23 C           9.1969   -3.0805   24.3001 C.3     1  UNL1        0.0022
     24 C           6.7593   -2.5675   32.3175 C.ar    1  UNL1        0.0172
     25 C           5.3158   -2.8218   32.6360 C.ar    1  UNL1        0.0015
     26 C           4.5831   -1.9102   33.5751 C.ar    1  UNL1        0.0000
     27 C           5.2939   -0.7443   34.1959 C.ar    1  UNL1        0.0000
     28 C           6.7374   -0.4900   33.8774 C.ar    1  UNL1        0.0000
     29 C           7.4701   -1.4016   32.9383 C.ar    1  UNL1        0.0015
     30 C           4.5611    0.1673   35.1351 C.ar    1  UNL1       -0.0000
     31 C           4.6432   -0.0580   36.6157 C.ar    1  UNL1       -0.0002
     32 C           3.9104    0.8536   37.5550 C.ar    1  UNL1       -0.0019
     33 C           3.0956    1.9906   37.0134 C.ar    1  UNL1        0.0070
     34 C           3.0135    2.2159   35.5327 C.ar    1  UNL1       -0.0019
     35 C           3.7462    1.3043   34.5935 C.ar    1  UNL1       -0.0002
     36 C           2.3628    2.9022   37.9525 C.3     1  UNL1        0.1636
     37 O           0.8925    2.7160   38.1839 O.3     1  UNL1       -0.3772
     38 H           0.4097    2.9052   37.3642 H       1  UNL1        0.2109
@<TRIPOS>BOND
     1    19    20    1
     2    20    15    1
     3    15    16    2
     4    15    17   am
     5    14    17    1
     6    14     7    1
     7     7     8    2
     8     7     9   am
     9     9    10    1
    10    10    11    1
    11    11    12    1
    12    12    13    1
    13    13     1    1
    14     1     2   ar
    15     2     3   ar
    16     3     4   ar
    17     4    24    1
    18    24    25   ar
    19    25    26   ar
    20    26    27   ar
    21    27    30    1
    22    30    31   ar
    23    31    32   ar
    24    32    33   ar
    25    33    36    1
    26    36    37    1
    27    33    34   ar
    28    34    35   ar
    29    27    28   ar
    30    28    29   ar
    31     4     5   ar
    32    14    21    1
    33    21    22    1
    34    21    23    1
    35    13     9    1
    36     5     1   ar
    37    29    24   ar
    38    35    30   ar
    39    17    18    1
    40    37    38    1
    41     5     6    1
@<TRIPOS>MOLECULE
*****
 38 41 0 0 0
SMALL
GASTEIGER

@<TRIPOS>ATOM
      1 C          -2.5359    3.5144   20.0003 C.ar    1  UNL1        0.1353
      2 N          -1.4703    4.2404   19.2337 N.ar    1  UNL1       -0.2279
      3 C          -0.1710    3.5243   19.4546 C.ar    1  UNL1        0.1171
      4 C          -0.4334    2.3557   20.3577 C.ar    1  UNL1        0.0769
      5 N          -1.8950    2.3496   20.6949 N.ar    1  UNL1       -0.3394
      6 H          -2.3532    1.6959   21.2710 H       1  UNL1        0.1671
      7 C          -4.2640    4.0576   22.7146 C.2     1  UNL1        0.2439
      8 O          -2.8291    3.7003   22.9663 O.2     1  UNL1       -0.2731
      9 N          -4.7817    4.1374   21.3091 N.am    1  UNL1       -0.2730
     10 C          -6.1847    4.4808   20.9044 C.3     1  UNL1        0.0939
     11 C          -6.2574    4.4434   19.4067 C.3     1  UNL1        0.0237
     12 C          -4.8994    4.0768   18.8857 C.3     1  UNL1        0.0293
     13 C          -3.9874    3.8877   20.0614 C.3     1  UNL1        0.1319
     14 C          -5.1813    4.3352   23.8686 C.3     1  UNL1        0.1512
     15 C          -7.7353    4.8044   23.9495 C.2     1  UNL1        0.4021
     16 O          -7.4613    6.2726   24.0882 O.2     1  UNL1       -0.2264
     17 N          -6.5953    3.8357   23.8397 N.am    1  UNL1       -0.2640
     18 H          -6.7752    2.8720   23.7488 H       1  UNL1        0.1532
     19 C         -10.2046    4.9924   24.7354 C.3     1  UNL1        0.2573
     20 O          -9.1494    4.3047   23.9207 O.3     1  UNL1       -0.4306
     21 C          -4.6844    5.1124   25.0514 C.3     1  UNL1        0.0270
     22 C          -4.0574    6.4606   24.8534 C.3     1  UNL1        0.0022
     23 C          -4.8145    4.5414   26.4325 C.3     1  UNL1        0.0022
     24 C           0.5866    1.3668   20.8391 C.ar    1  UNL1        0.0172
     25 C           0.9438    0.1838   19.9890 C.ar    1  UNL1        0.0015
     26 C           1.9638   -0.8051   20.4703 C.ar    1  UNL1        0.0000
     27 C           2.6266   -0.6108   21.8018 C.ar    1  UNL1        0.0000
     28 C           2.2695    0.5723   22.6520 C.ar    1  UNL1        0.0000
     29 C           1.2495    1.5611   22.1706 C.ar    1  UNL1        0.0015
     30 C           3.6467   -1.5997   22.2832 C.ar    1  UNL1       -0.0000
     31 C           4.1724   -1.5126   23.6854 C.ar    1  UNL1       -0.0002
     32 C           5.1924   -2.5015   24.1667 C.ar    1  UNL1       -0.0019
     33 C           5.6867   -3.5775   23.2459 C.ar    1  UNL1        0.0070
     34 C           5.1610   -3.6646   21.8437 C.ar    1  UNL1       -0.0019
     35 C           4.1410   -2.6757   21.3624 C.ar    1  UNL1       -0.0002
     36 C           6.7067   -4.5664   23.7272 C.3     1  UNL1        0.1636
     37 O           7.5045   -5.3626   22.7376 O.3     1  UNL1       -0.3772
     38 H           6.9144   -5.9609   22.2531 H       1  UNL1        0.2109
@<TRIPOS>BOND
     1    19    20    1
     2    20    15    1
     3    15    16    2
     4    15    17   am
     5    14    17    1
     6    14     7    1
     7     7     8    2
     8     7     9   am
     9     9    10    1
    10    10    11    1
    11    11    12    1
    12    12    13    1
    13    13     1    1
    14     1     2   ar
    15     2     3   ar
    16     3     4   ar
    17     4    24    1
    18    24    25   ar
    19    25    26   ar
    20    26    27   ar
    21    27    30    1
    22    30    31   ar
    23    31    32   ar
    24    32    33   ar
    25    33    36    1
    26    36    37    1
    27    33    34   ar
    28    34    35   ar
    29    27    28   ar
    30    28    29   ar
    31     4     5   ar
    32    14    21    1
    33    21    22    1
    34    21    23    1
    35    13     9    1
    36     5     1   ar
    37    29    24   ar
    38    35    30   ar
    39    17    18    1
    40    37    38    1
    41     5     6    1
@<TRIPOS>MOLECULE
*****
 38 41 0 0 0
SMALL
GASTEIGER

@<TRIPOS>ATOM
      1 C           7.7392   -4.9816   24.2778 C.ar    1  UNL1        0.1353
      2 N           7.3717   -6.3252   24.8343 N.ar    1  UNL1       -0.2279
      3 C           6.9810   -6.1409   26.2707 C.ar    1  UNL1        0.1171
      4 C           7.1070   -4.6834   26.6020 C.ar    1  UNL1        0.0769
      5 N           7.5756   -3.9669   25.3703 N.ar    1  UNL1       -0.3394
      6 H           7.7459   -3.0003   25.2926 H       1  UNL1        0.1671
      7 C           6.0309   -3.3979   21.9924 C.2     1  UNL1        0.2439
      8 O           5.3190   -3.5267   23.3063 O.2     1  UNL1       -0.2731
      9 N           7.4057   -3.9739   21.8246 N.am    1  UNL1       -0.2730
     10 C           8.2367   -3.9230   20.5768 C.3     1  UNL1        0.0939
     11 C           9.5355   -4.6195   20.8562 C.3     1  UNL1        0.0237
     12 C           9.5072   -5.1009   22.2766 C.3     1  UNL1        0.0293
     13 C           8.1910   -4.7018   22.8750 C.3     1  UNL1        0.1319
     14 C           5.3681   -2.6931   20.8461 C.3     1  UNL1        0.1512
     15 C           4.0640   -0.5151   21.3991 C.2     1  UNL1        0.4021
     16 O           2.9420   -1.3315   21.9688 O.2     1  UNL1       -0.2264
     17 N           5.2770   -1.1959   20.8378 N.am    1  UNL1       -0.2640
     18 H           6.0134   -0.6600   20.4638 H       1  UNL1        0.1532
     19 C           3.8359    1.7179   20.0908 C.3     1  UNL1        0.2573
     20 O           3.9731    0.9821   21.3907 O.3     1  UNL1       -0.4306
     21 C           4.7962   -3.4856   19.7081 C.3     1  UNL1        0.0270
     22 C           5.1536   -3.1333   18.2946 C.3     1  UNL1        0.0022
     23 C           3.8670   -4.6305   19.9836 C.3     1  UNL1        0.0022
     24 C           6.8156   -4.0529   27.9316 C.ar    1  UNL1        0.0172
     25 C           7.0131   -4.8390   29.1937 C.ar    1  UNL1        0.0015
     26 C           6.7217   -4.2086   30.5232 C.ar    1  UNL1        0.0000
     27 C           6.2328   -2.7921   30.5906 C.ar    1  UNL1        0.0000
     28 C           6.0353   -2.0060   29.3284 C.ar    1  UNL1        0.0000
     29 C           6.3267   -2.6364   27.9989 C.ar    1  UNL1        0.0015
     30 C           5.9414   -2.1617   31.9202 C.ar    1  UNL1       -0.0000
     31 C           4.6382   -2.4355   32.6105 C.ar    1  UNL1       -0.0002
     32 C           4.3468   -1.8051   33.9401 C.ar    1  UNL1       -0.0019
     33 C           5.3587   -0.9008   34.5793 C.ar    1  UNL1        0.0070
     34 C           6.6619   -0.6270   33.8888 C.ar    1  UNL1       -0.0019
     35 C           6.9533   -1.2574   32.5593 C.ar    1  UNL1       -0.0002
     36 C           5.0673   -0.2704   35.9088 C.3     1  UNL1        0.1636
     37 O           6.0824   -0.3411   37.0108 O.3     1  UNL1       -0.3772
     38 H           6.1936   -1.2635   37.2894 H       1  UNL1        0.2109
@<TRIPOS>BOND
     1    19    20    1
     2    20    15    1
     3    15    16    2
     4    15    17   am
     5    14    17    1
     6    14     7    1
     7     7     8    2
     8     7     9   am
     9     9    10    1
    10    10    11    1
    11    11    12    1
    12    12    13    1
    13    13     1    1
    14     1     2   ar
    15     2     3   ar
    16     3     4   ar
    17     4    24    1
    18    24    25   ar
    19    25    26   ar
    20    26    27   ar
    21    27    30    1
    22    30    31   ar
    23    31    32   ar
    24    32    33   ar
    25    33    36    1
    26    36    37    1
    27    33    34   ar
    28    34    35   ar
    29    27    28   ar
    30    28    29   ar
    31     4     5   ar
    32    14    21    1
    33    21    22    1
    34    21    23    1
    35    13     9    1
    36     5     1   ar
    37    29    24   ar
    38    35    30   ar
    39    17    18    1
    40    37    38    1
    41     5     6    1
@<TRIPOS>MOLECULE
*****
 38 41 0 0 0
SMALL
GASTEIGER

@<TRIPOS>ATOM
      1 C           3.6789    0.6198   32.4182 C.ar    1  UNL1        0.1353
      2 N           3.4056   -0.7743   31.9363 N.ar    1  UNL1       -0.2279
      3 C           2.4354   -0.6885   30.7956 C.ar    1  UNL1        0.1171
      4 C           2.1089    0.7584   30.5725 C.ar    1  UNL1        0.0769
      5 N           2.8775    1.5670   31.5753 N.ar    1  UNL1       -0.3394
      6 H           2.8592    2.5472   31.6645 H       1  UNL1        0.1671
      7 C           2.8676    2.4027   35.0282 C.2     1  UNL1        0.2439
      8 O           1.7395    2.1842   34.0641 O.2     1  UNL1       -0.2731
      9 N           4.2201    1.8193   34.7447 N.am    1  UNL1       -0.2730
     10 C           5.4372    1.9530   35.6112 C.3     1  UNL1        0.0939
     11 C           6.5623    1.2161   34.9471 C.3     1  UNL1        0.0237
     12 C           6.0406    0.6270   33.6701 C.3     1  UNL1        0.0293
     13 C           4.5931    0.9998   33.5451 C.3     1  UNL1        0.1319
     14 C           2.6433    3.2046   36.2758 C.3     1  UNL1        0.1512
     15 C           2.4463    1.9010   38.5145 C.2     1  UNL1        0.4021
     16 O           3.9343    1.7127   38.5358 O.2     1  UNL1       -0.2264
     17 N           1.8008    2.6470   37.3846 N.am    1  UNL1       -0.2640
     18 H           0.8242    2.7707   37.3706 H       1  UNL1        0.1532
     19 C           1.1853   -0.0968   39.5956 C.3     1  UNL1        0.2573
     20 O           1.6037    1.3434   39.6232 O.3     1  UNL1       -0.4306
     21 C           3.2615    4.5642   36.4147 C.3     1  UNL1        0.0270
     22 C           3.4644    5.1604   37.7762 C.3     1  UNL1        0.0022
     23 C           3.6768    5.3279   35.1922 C.3     1  UNL1        0.0022
     24 C           1.1775    1.3015   29.5296 C.ar    1  UNL1        0.0172
     25 C           0.2616    0.3749   28.7864 C.ar    1  UNL1        0.0015
     26 C          -0.6698    0.9180   27.7435 C.ar    1  UNL1        0.0000
     27 C          -0.6853    2.3877   27.4440 C.ar    1  UNL1        0.0000
     28 C           0.2306    3.3143   28.1872 C.ar    1  UNL1        0.0000
     29 C           1.1620    2.7712   29.2300 C.ar    1  UNL1        0.0015
     30 C          -1.6167    2.9308   26.4011 C.ar    1  UNL1       -0.0000
     31 C          -1.1912    2.9714   24.9634 C.ar    1  UNL1       -0.0002
     32 C          -2.1226    3.5145   23.9205 C.ar    1  UNL1       -0.0019
     33 C          -3.4796    4.0170   24.3154 C.ar    1  UNL1        0.0070
     34 C          -3.9052    3.9763   25.7533 C.ar    1  UNL1       -0.0019
     35 C          -2.9738    3.4332   26.7961 C.ar    1  UNL1       -0.0002
     36 C          -4.4111    4.5600   23.2727 C.3     1  UNL1        0.1636
     37 O          -5.8859    4.3086   23.3803 O.3     1  UNL1       -0.3772
     38 H          -6.0607    3.3602   23.2760 H       1  UNL1        0.2109
@<TRIPOS>BOND
     1    19    20    1
     2    20    15    1
     3    15    16    2
     4    15    17   am
     5    14    17    1
     6    14     7    1
     7     7     8    2
     8     7     9   am
     9     9    10    1
    10    10    11    1
    11    11    12    1
    12    12    13    1
    13    13     1    1
    14     1     2   ar
    15     2     3   ar
    16     3     4   ar
    17     4    24    1
    18    24    25   ar
    19    25    26   ar
    20    26    27   ar
    21    27    30    1
    22    30    31   ar
    23    31    32   ar
    24    32    33   ar
    25    33    36    1
    26    36    37    1
    27    33    34   ar
    28    34    35   ar
    29    27    28   ar
    30    28    29   ar
    31     4     5   ar
    32    14    21    1
    33    21    22    1
    34    21    23    1
    35    13     9    1
    36     5     1   ar
    37    29    24   ar
    38    35    30   ar
    39    17    18    1
    40    37    38    1
    41     5     6    1
@<TRIPOS>MOLECULE
*****
 38 41 0 0 0
SMALL
GASTEIGER

@<TRIPOS>ATOM
      1 C           5.3538    0.2446   18.4383 C.ar    1  UNL1        0.1353
      2 N           5.6127   -0.8466   17.4421 N.ar    1  UNL1       -0.2279
      3 C           6.0213   -2.0764   18.1973 C.ar    1  UNL1        0.1171
      4 C           6.0151   -1.7454   19.6603 C.ar    1  UNL1        0.0769
      5 N           5.6025   -0.3110   19.8093 N.ar    1  UNL1       -0.3394
      6 H           5.5111    0.1797   20.6578 H       1  UNL1        0.1671
      7 C           2.3857    1.5004   18.9506 C.2     1  UNL1        0.2439
      8 O           2.5225    0.0671   19.3711 O.2     1  UNL1       -0.2731
      9 N           3.5578    2.2225   18.3550 N.am    1  UNL1       -0.2730
     10 C           3.5714    3.6487   17.8904 C.3     1  UNL1        0.0939
     11 C           4.9441    3.9528   17.3677 C.3     1  UNL1        0.0237
     12 C           5.7789    2.7146   17.5094 C.3     1  UNL1        0.0293
     13 C           4.9221    1.6453   18.1196 C.3     1  UNL1        0.1319
     14 C           1.0767    2.2117   19.1257 C.3     1  UNL1        0.1512
     15 C          -0.2235    3.7812   17.5145 C.2     1  UNL1        0.4021
     16 O           0.3057    4.9759   18.2511 O.2     1  UNL1       -0.2264
     17 N           0.1620    2.3991   17.9518 N.am    1  UNL1       -0.2640
     18 H          -0.1854    1.6150   17.4683 H       1  UNL1        0.1532
     19 C          -2.6246    3.9823   16.5426 C.3     1  UNL1        0.2573
     20 O          -1.1382    3.9685   16.3405 O.3     1  UNL1       -0.4306
     21 C           0.6825    2.7356   20.4748 C.3     1  UNL1        0.0270
     22 C          -0.7227    2.5559   20.9679 C.3     1  UNL1        0.0022
     23 C           1.6935    3.4393   21.3309 C.3     1  UNL1        0.0022
     24 C           6.3607   -2.6841   20.7782 C.ar    1  UNL1        0.0172
     25 C           7.7014   -3.3560   20.8059 C.ar    1  UNL1        0.0015
     26 C           8.0470   -4.2946   21.9237 C.ar    1  UNL1        0.0000
     27 C           7.0517   -4.5613   23.0139 C.ar    1  UNL1        0.0000
     28 C           5.7110   -3.8893   22.9862 C.ar    1  UNL1        0.0000
     29 C           5.3654   -2.9508   21.8683 C.ar    1  UNL1        0.0015
     30 C           7.3973   -5.4999   24.1318 C.ar    1  UNL1       -0.0000
     31 C           8.1964   -6.7380   23.8515 C.ar    1  UNL1       -0.0002
     32 C           8.5420   -7.6767   24.9694 C.ar    1  UNL1       -0.0019
     33 C           8.0885   -7.3771   26.3675 C.ar    1  UNL1        0.0070
     34 C           7.2894   -6.1389   26.6477 C.ar    1  UNL1       -0.0019
     35 C           6.9438   -5.2004   25.5298 C.ar    1  UNL1       -0.0002
     36 C           8.4340   -8.3157   27.4853 C.3     1  UNL1        0.1636
     37 O           7.7151   -9.6258   27.6139 O.3     1  UNL1       -0.3772
     38 H           6.7815   -9.4633   27.8211 H       1  UNL1        0.2109
@<TRIPOS>BOND
     1    19    20    1
     2    20    15    1
     3    15    16    2
     4    15    17   am
     5    14    17    1
     6    14     7    1
     7     7     8    2
     8     7     9   am
     9     9    10    1
    10    10    11    1
    11    11    12    1
    12    12    13    1
    13    13     1    1
    14     1     2   ar
    15     2     3   ar
    16     3     4   ar
    17     4    24    1
    18    24    25   ar
    19    25    26   ar
    20    26    27   ar
    21    27    30    1
    22    30    31   ar
    23    31    32   ar
    24    32    33   ar
    25    33    36    1
    26    36    37    1
    27    33    34   ar
    28    34    35   ar
    29    27    28   ar
    30    28    29   ar
    31     4     5   ar
    32    14    21    1
    33    21    22    1
    34    21    23    1
    35    13     9    1
    36     5     1   ar
    37    29    24   ar
    38    35    30   ar
    39    17    18    1
    40    37    38    1
    41     5     6    1
@<TRIPOS>MOLECULE
*****
 38 41 0 0 0
SMALL
GASTEIGER

@<TRIPOS>ATOM
      1 C          -1.9686    3.7573   26.3078 C.ar    1  UNL1        0.1353
      2 N          -1.4057    4.9258   27.0614 N.ar    1  UNL1       -0.2279
      3 C          -0.2920    4.4233   27.9315 C.ar    1  UNL1        0.1171
      4 C          -0.1664    2.9443   27.7157 C.ar    1  UNL1        0.0769
      5 N          -1.2026    2.5327   26.7122 N.ar    1  UNL1       -0.3394
      6 H          -1.3535    1.6191   26.3777 H       1  UNL1        0.1671
      7 C          -1.6868    3.6526   23.0584 C.2     1  UNL1        0.2439
      8 O          -0.3772    3.5862   23.7867 O.2     1  UNL1       -0.2731
      9 N          -2.9693    3.7570   23.8293 N.am    1  UNL1       -0.2730
     10 C          -4.3475    3.8316   23.2419 C.3     1  UNL1        0.0939
     11 C          -5.3287    3.9258   24.3725 C.3     1  UNL1        0.0237
     12 C          -4.5570    3.9094   25.6586 C.3     1  UNL1        0.0293
     13 C          -3.0988    3.8051   25.3229 C.3     1  UNL1        0.1319
     14 C          -1.7139    3.6146   21.5591 C.3     1  UNL1        0.1512
     15 C          -0.0459    1.9753   20.4275 C.2     1  UNL1        0.4021
     16 O           1.0850    2.9095   20.7412 O.2     1  UNL1       -0.2264
     17 N          -1.4454    2.3279   20.8364 N.am    1  UNL1       -0.2640
     18 H          -2.1876    1.7147   20.6305 H       1  UNL1        0.1532
     19 C           1.1633    0.6667   18.5366 C.3     1  UNL1        0.2573
     20 O           0.2226    0.6886   19.7048 O.3     1  UNL1       -0.4306
     21 C          -2.0097    4.8633   20.7825 C.3     1  UNL1        0.0270
     22 C          -1.1616    6.0853   20.9759 C.3     1  UNL1        0.0022
     23 C          -3.1536    4.8901   19.8124 C.3     1  UNL1        0.0022
     24 C           0.8218    2.0362   28.3857 C.ar    1  UNL1        0.0172
     25 C           1.9282    2.6147   29.2170 C.ar    1  UNL1        0.0015
     26 C           2.9163    1.7066   29.8869 C.ar    1  UNL1        0.0000
     27 C           2.7981    0.2200   29.7256 C.ar    1  UNL1        0.0000
     28 C           1.6916   -0.3585   28.8943 C.ar    1  UNL1        0.0000
     29 C           0.7035    0.5496   28.2243 C.ar    1  UNL1        0.0015
     30 C           3.7863   -0.6881   30.3956 C.ar    1  UNL1       -0.0000
     31 C           3.5752   -1.1051   31.8209 C.ar    1  UNL1       -0.0002
     32 C           4.5634   -2.0132   32.4910 C.ar    1  UNL1       -0.0019
     33 C           5.7627   -2.5043   31.7356 C.ar    1  UNL1        0.0070
     34 C           5.9737   -2.0873   30.3102 C.ar    1  UNL1       -0.0019
     35 C           4.9855   -1.1793   29.6402 C.ar    1  UNL1       -0.0002
     36 C           6.7509   -3.4124   32.4055 C.3     1  UNL1        0.1636
     37 O           6.4399   -4.8709   32.5663 O.3     1  UNL1       -0.3772
     38 H           5.6876   -4.9765   33.1694 H       1  UNL1        0.2109
@<TRIPOS>BOND
     1    19    20    1
     2    20    15    1
     3    15    16    2
     4    15    17   am
     5    14    17    1
     6    14     7    1
     7     7     8    2
     8     7     9   am
     9     9    10    1
    10    10    11    1
    11    11    12    1
    12    12    13    1
    13    13     1    1
    14     1     2   ar
    15     2     3   ar
    16     3     4   ar
    17     4    24    1
    18    24    25   ar
    19    25    26   ar
    20    26    27   ar
    21    27    30    1
    22    30    31   ar
    23    31    32   ar
    24    32    33   ar
    25    33    36    1
    26    36    37    1
    27    33    34   ar
    28    34    35   ar
    29    27    28   ar
    30    28    29   ar
    31     4     5   ar
    32    14    21    1
    33    21    22    1
    34    21    23    1
    35    13     9    1
    36     5     1   ar
    37    29    24   ar
    38    35    30   ar
    39    17    18    1
    40    37    38    1
    41     5     6    1
@<TRIPOS>MOLECULE
*****
 38 41 0 0 0
SMALL
GASTEIGER

@<TRIPOS>ATOM
      1 C           7.7150   -5.0687   24.3958 C.ar    1  UNL1        0.1353
      2 N           7.3198   -6.4001   24.9627 N.ar    1  UNL1       -0.2279
      3 C           6.9296   -6.1960   26.3966 C.ar    1  UNL1        0.1171
      4 C           7.0835   -4.7385   26.7160 C.ar    1  UNL1        0.0769
      5 N           7.5689   -4.0418   25.4794 N.ar    1  UNL1       -0.3394
      6 H           7.7584   -3.0795   25.3941 H       1  UNL1        0.1671
      7 C           6.1083   -3.3461   22.1375 C.2     1  UNL1        0.2439
      8 O           5.3986   -3.4350   23.4559 O.2     1  UNL1       -0.2731
      9 N           7.4368   -4.0179   21.9539 N.am    1  UNL1       -0.2730
     10 C           8.2601   -4.0158   20.7000 C.3     1  UNL1        0.0939
     11 C           9.5074   -4.8063   20.9632 C.3     1  UNL1        0.0237
     12 C           9.4550   -5.2970   22.3797 C.3     1  UNL1        0.0293
     13 C           8.1753   -4.8097   22.9919 C.3     1  UNL1        0.1319
     14 C           5.4894   -2.5853   21.0024 C.3     1  UNL1        0.1512
     15 C           6.5700   -1.0196   19.2330 C.2     1  UNL1        0.4021
     16 O           6.5645   -2.1413   18.2371 O.2     1  UNL1       -0.2264
     17 N           6.0325   -1.2416   20.6157 N.am    1  UNL1       -0.2640
     18 H           6.0362   -0.5054   21.2693 H       1  UNL1        0.1532
     19 C           7.2741    0.6794   17.3979 C.3     1  UNL1        0.2573
     20 O           7.1131    0.3240   18.8463 O.3     1  UNL1       -0.4306
     21 C           4.3274   -3.1682   20.2542 C.3     1  UNL1        0.0270
     22 C           4.3547   -4.6064   19.8288 C.3     1  UNL1        0.0022
     23 C           3.1381   -2.3131   19.9312 C.3     1  UNL1        0.0022
     24 C           6.8016   -4.0914   28.0395 C.ar    1  UNL1        0.0172
     25 C           6.3840   -2.6518   28.0967 C.ar    1  UNL1        0.0015
     26 C           6.1020   -2.0047   29.4202 C.ar    1  UNL1        0.0000
     27 C           6.2377   -2.7971   30.6865 C.ar    1  UNL1        0.0000
     28 C           6.6553   -4.2366   30.6294 C.ar    1  UNL1        0.0000
     29 C           6.9372   -4.8838   29.3059 C.ar    1  UNL1        0.0015
     30 C           5.9557   -2.1499   32.0101 C.ar    1  UNL1       -0.0000
     31 C           6.9641   -1.2230   32.6216 C.ar    1  UNL1       -0.0002
     32 C           6.6821   -0.5758   33.9452 C.ar    1  UNL1       -0.0019
     33 C           5.3918   -0.8556   34.6571 C.ar    1  UNL1        0.0070
     34 C           4.3834   -1.7826   34.0455 C.ar    1  UNL1       -0.0019
     35 C           4.6654   -2.4297   32.7220 C.ar    1  UNL1       -0.0002
     36 C           5.1098   -0.2085   35.9806 C.3     1  UNL1        0.1636
     37 O           4.0908    0.8880   36.0773 O.3     1  UNL1       -0.3772
     38 H           4.4004    1.6618   35.5809 H       1  UNL1        0.2109
@<TRIPOS>BOND
     1    19    20    1
     2    20    15    1
     3    15    16    2
     4    15    17   am
     5    14    17    1
     6    14     7    1
     7     7     8    2
     8     7     9   am
     9     9    10    1
    10    10    11    1
    11    11    12    1
    12    12    13    1
    13    13     1    1
    14     1     2   ar
    15     2     3   ar
    16     3     4   ar
    17     4    24    1
    18    24    25   ar
    19    25    26   ar
    20    26    27   ar
    21    27    30    1
    22    30    31   ar
    23    31    32   ar
    24    32    33   ar
    25    33    36    1
    26    36    37    1
    27    33    34   ar
    28    34    35   ar
    29    27    28   ar
    30    28    29   ar
    31     4     5   ar
    32    14    21    1
    33    21    22    1
    34    21    23    1
    35    13     9    1
    36     5     1   ar
    37    29    24   ar
    38    35    30   ar
    39    17    18    1
    40    37    38    1
    41     5     6    1
@<TRIPOS>MOLECULE
*****
 38 41 0 0 0
SMALL
GASTEIGER

@<TRIPOS>ATOM
      1 C           6.3048    0.1476   18.1847 C.ar    1  UNL1        0.1353
      2 N           6.4999   -0.9756   17.2098 N.ar    1  UNL1       -0.2279
      3 C           6.7764   -2.2254   17.9917 C.ar    1  UNL1        0.1171
      4 C           6.7522   -1.8747   19.4499 C.ar    1  UNL1        0.0769
      5 N           6.4608   -0.4081   19.5692 N.ar    1  UNL1       -0.3394
      6 H           6.3851    0.1004   20.4088 H       1  UNL1        0.1671
      7 C           3.7325    1.8744   19.2095 C.2     1  UNL1        0.2439
      8 O           3.7657    0.4659   19.7240 O.2     1  UNL1       -0.2731
      9 N           4.8239    2.3694   18.3074 N.am    1  UNL1       -0.2730
     10 C           4.9245    3.7451   17.7179 C.3     1  UNL1        0.0939
     11 C           6.1690    3.8015   16.8825 C.3     1  UNL1        0.0237
     12 C           6.8376    2.4607   16.9557 C.3     1  UNL1        0.0293
     13 C           6.0062    1.5757   17.8363 C.3     1  UNL1        0.1319
     14 C           2.6078    2.7882   19.5972 C.3     1  UNL1        0.1512
     15 C           1.9348    2.7939   22.1066 C.2     1  UNL1        0.4021
     16 O           1.2548    1.4690   21.9273 O.2     1  UNL1       -0.2264
     17 N           2.6113    3.4535   20.9415 N.am    1  UNL1       -0.2640
     18 H           3.0576    4.3231   21.0592 H       1  UNL1        0.1532
     19 C           0.7966    3.2408   24.3989 C.3     1  UNL1        0.2573
     20 O           1.9383    3.4594   23.4508 O.3     1  UNL1       -0.4306
     21 C           1.4796    3.0365   18.6404 C.3     1  UNL1        0.0270
     22 C           0.5444    1.9212   18.2778 C.3     1  UNL1        0.0022
     23 C           1.2864    4.4002   18.0461 C.3     1  UNL1        0.0022
     24 C           6.9796   -2.8239   20.5890 C.ar    1  UNL1        0.0172
     25 C           5.9610   -2.9391   21.6840 C.ar    1  UNL1        0.0015
     26 C           6.1883   -3.8883   22.8230 C.ar    1  UNL1        0.0000
     27 C           7.4343   -4.7223   22.8669 C.ar    1  UNL1        0.0000
     28 C           8.4529   -4.6072   21.7719 C.ar    1  UNL1        0.0000
     29 C           8.2255   -3.6580   20.6329 C.ar    1  UNL1        0.0015
     30 C           7.6617   -5.6715   24.0060 C.ar    1  UNL1       -0.0000
     31 C           8.5005   -6.8985   23.8037 C.ar    1  UNL1       -0.0002
     32 C           8.7278   -7.8477   24.9428 C.ar    1  UNL1       -0.0019
     33 C           8.1163   -7.5699   26.2840 C.ar    1  UNL1        0.0070
     34 C           7.2774   -6.3429   26.4862 C.ar    1  UNL1       -0.0019
     35 C           7.0501   -5.3938   25.3472 C.ar    1  UNL1       -0.0002
     36 C           8.3436   -8.5191   27.4230 C.3     1  UNL1        0.1636
     37 O           7.4698   -9.7285   27.5772 O.3     1  UNL1       -0.3772
     38 H           6.5629   -9.4487   27.7776 H       1  UNL1        0.2109
@<TRIPOS>BOND
     1    19    20    1
     2    20    15    1
     3    15    16    2
     4    15    17   am
     5    14    17    1
     6    14     7    1
     7     7     8    2
     8     7     9   am
     9     9    10    1
    10    10    11    1
    11    11    12    1
    12    12    13    1
    13    13     1    1
    14     1     2   ar
    15     2     3   ar
    16     3     4   ar
    17     4    24    1
    18    24    25   ar
    19    25    26   ar
    20    26    27   ar
    21    27    30    1
    22    30    31   ar
    23    31    32   ar
    24    32    33   ar
    25    33    36    1
    26    36    37    1
    27    33    34   ar
    28    34    35   ar
    29    27    28   ar
    30    28    29   ar
    31     4     5   ar
    32    14    21    1
    33    21    22    1
    34    21    23    1
    35    13     9    1
    36     5     1   ar
    37    29    24   ar
    38    35    30   ar
    39    17    18    1
    40    37    38    1
    41     5     6    1
