@<TRIPOS>MOLECULE
*****
 38 41 0 0 0
SMALL
GASTEIGER

@<TRIPOS>ATOM
      1 C          -5.7926  -17.5955   22.5360 C.ar    1  UNL1        0.0575
      2 C          -7.1613  -17.9259   22.0189 C.ar    1  UNL1        0.0372
      3 C          -7.3439  -19.0547   21.0481 C.ar    1  UNL1        0.0782
      4 N          -6.1579  -19.8531   20.5945 N.ar    1  UNL1       -0.2480
      5 C          -4.7891  -19.5227   21.1116 C.ar    1  UNL1        0.0812
      6 C          -3.6031  -20.3211   20.6580 C.ar    1  UNL1        0.0214
      7 C          -2.2344  -19.9906   21.1751 C.ar    1  UNL1        0.0312
      8 C          -2.0518  -18.8618   22.1459 C.ar    1  UNL1        0.1402
      9 F          -0.6830  -18.5314   22.6631 F       1  UNL1       -0.2042
     10 C          -3.2378  -18.0634   22.5995 C.ar    1  UNL1        0.0313
     11 C          -4.6065  -18.3939   22.0824 C.ar    1  UNL1        0.0243
     12 C          -8.3475  -17.1275   22.4725 C.ar    1  UNL1        0.0826
     13 C          -8.7358  -17.1185   23.9213 C.ar    1  UNL1        0.0192
     14 C          -9.9218  -16.3202   24.3750 C.ar    1  UNL1        0.0031
     15 C         -10.7196  -15.5308   23.3798 C.ar    1  UNL1        0.0207
     16 C         -10.3313  -15.5398   21.9310 C.ar    1  UNL1        0.0988
     17 N          -9.1452  -16.3381   21.4773 N.ar    1  UNL1       -0.2438
     18 N          -5.4970  -16.7512   24.9753 N.am    1  UNL1       -0.3009
     19 C          -5.6100  -16.4667   23.5068 C.2     1  UNL1        0.2460
     20 O          -5.5404  -15.0533   23.0092 O.2     1  UNL1       -0.2701
     21 H          -5.5426  -17.6788   25.3019 H       1  UNL1        0.1497
     22 C          -6.3874  -15.3134   26.9475 C.3     1  UNL1        0.0230
     23 C          -5.3143  -15.6224   25.9461 C.3     1  UNL1        0.0898
     24 C          -8.7127  -19.3852   20.5309 C.3     1  UNL1        0.1110
     25 C          -9.0852  -19.0384   19.1199 C.3     1  UNL1        0.0278
     26 N          -9.7089  -20.0623   21.4248 N.pl3   1  UNL1       -0.3141
     27 H          -9.5665  -20.9961   21.7022 H       1  UNL1        0.1485
     28 C         -10.9221  -19.3166   21.8960 C.ar    1  UNL1        0.1429
     29 N         -11.7244  -18.5005   20.9263 N.ar    1  UNL1       -0.2084
     30 C         -12.9377  -17.7548   21.3975 C.ar    1  UNL1        0.2012
     31 N         -13.3486  -17.8253   22.8384 N.ar    1  UNL1       -0.2087
     32 C         -12.5464  -18.6414   23.8081 C.ar    1  UNL1        0.1396
     33 N         -12.9573  -18.7119   25.2490 N.pl3   1  UNL1       -0.3420
     34 C         -11.3331  -19.3871   23.3369 C.ar    1  UNL1        0.1308
     35 H         -13.7536  -18.2224   25.5582 H       1  UNL1        0.1437
     36 H         -12.4308  -19.2475   25.8854 H       1  UNL1        0.1437
     37 C         -10.5308  -20.2032   24.3066 C.1     1  UNL1        0.1061
     38 N          -9.7286  -21.0193   25.2763 N.1     1  UNL1       -0.1906
@<TRIPOS>BOND
     1    22    23    1
     2    23    18    1
     3    18    19   am
     4    19    20    2
     5    19     1    1
     6     1     2   ar
     7     2    12    1
     8    12    13   ar
     9    13    14   ar
    10    14    15   ar
    11    15    16   ar
    12    16    17   ar
    13     2     3   ar
    14     3    24    1
    15    24    25    1
    16    24    26    1
    17    26    28    1
    18    28    29   ar
    19    29    30   ar
    20    30    31   ar
    21    31    32   ar
    22    32    33    1
    23    32    34   ar
    24    34    37    1
    25    37    38    3
    26     3     4   ar
    27     4     5   ar
    28     5     6   ar
    29     6     7   ar
    30     7     8   ar
    31     8     9    1
    32     8    10   ar
    33    10    11   ar
    34    11     1   ar
    35    17    12   ar
    36    34    28   ar
    37    11     5   ar
    38    18    21    1
    39    26    27    1
    40    33    35    1
    41    33    36    1
@<TRIPOS>MOLECULE
*****
 38 41 0 0 0
SMALL
GASTEIGER

@<TRIPOS>ATOM
      1 C           4.4510   -1.5142   23.0611 C.ar    1  UNL1        0.0575
      2 C           4.2473   -1.8558   21.6148 C.ar    1  UNL1        0.0372
      3 C           4.8582   -3.1017   21.0452 C.ar    1  UNL1        0.0782
      4 N           5.6728   -4.0060   21.9219 N.ar    1  UNL1       -0.2480
      5 C           5.8765   -3.6644   23.3683 C.ar    1  UNL1        0.0812
      6 C           6.6911   -4.5687   24.2449 C.ar    1  UNL1        0.0214
      7 C           6.8948   -4.2271   25.6912 C.ar    1  UNL1        0.0312
      8 C           6.2839   -2.9812   26.2608 C.ar    1  UNL1        0.1402
      9 F           6.4877   -2.6396   27.7072 F       1  UNL1       -0.2042
     10 C           5.4693   -2.0769   25.3841 C.ar    1  UNL1        0.0313
     11 C           5.2656   -2.4185   23.9379 C.ar    1  UNL1        0.0243
     12 C           3.4327   -0.9515   20.7381 C.ar    1  UNL1        0.0826
     13 C           1.9483   -1.1427   20.6368 C.ar    1  UNL1        0.0192
     14 C           1.1337   -0.2385   19.7601 C.ar    1  UNL1        0.0031
     15 C           1.8034    0.8571   18.9847 C.ar    1  UNL1        0.0207
     16 C           3.2877    1.0483   19.0859 C.ar    1  UNL1        0.0988
     17 N           4.1023    0.1440   19.9626 N.ar    1  UNL1       -0.2438
     18 N           2.5084   -0.3325   24.3181 N.am    1  UNL1       -0.3009
     19 C           3.8401   -0.2682   23.6307 C.2     1  UNL1        0.2460
     20 O           4.5608    1.0420   23.5128 O.2     1  UNL1       -0.2701
     21 H           2.0353   -1.1924   24.3955 H       1  UNL1        0.1497
     22 C           0.4325    1.1803   24.7078 C.3     1  UNL1        0.0230
     23 C           1.8975    0.9135   24.8877 C.3     1  UNL1        0.0898
     24 C           4.6544   -3.4434   19.5989 C.3     1  UNL1        0.1110
     25 C           3.3150   -3.9221   19.1228 C.3     1  UNL1        0.0278
     26 N           5.7901   -3.3062   18.6287 N.pl3   1  UNL1       -0.3141
     27 H           6.1919   -4.1089   18.2244 H       1  UNL1        0.1485
     28 C           6.3137   -1.9459   18.2744 C.ar    1  UNL1        0.1429
     29 N           5.6142   -1.1202   17.2356 N.ar    1  UNL1       -0.2084
     30 C           6.1377    0.2401   16.8813 C.ar    1  UNL1        0.2012
     31 N           7.3607    0.7747   17.5658 N.ar    1  UNL1       -0.2087
     32 C           8.0602   -0.0510   18.6045 C.ar    1  UNL1        0.1396
     33 N           9.2832    0.4836   19.2890 N.pl3   1  UNL1       -0.3420
     34 C           7.5366   -1.4113   18.9588 C.ar    1  UNL1        0.1308
     35 H           9.6268    1.3764   19.0564 H       1  UNL1        0.1437
     36 H           9.7423   -0.0583   19.9707 H       1  UNL1        0.1437
     37 C           8.2361   -2.2370   19.9976 C.1     1  UNL1        0.1061
     38 N           8.9355   -3.0626   21.0363 N.1     1  UNL1       -0.1906
@<TRIPOS>BOND
     1    22    23    1
     2    23    18    1
     3    18    19   am
     4    19    20    2
     5    19     1    1
     6     1     2   ar
     7     2    12    1
     8    12    13   ar
     9    13    14   ar
    10    14    15   ar
    11    15    16   ar
    12    16    17   ar
    13     2     3   ar
    14     3    24    1
    15    24    25    1
    16    24    26    1
    17    26    28    1
    18    28    29   ar
    19    29    30   ar
    20    30    31   ar
    21    31    32   ar
    22    32    33    1
    23    32    34   ar
    24    34    37    1
    25    37    38    3
    26     3     4   ar
    27     4     5   ar
    28     5     6   ar
    29     6     7   ar
    30     7     8   ar
    31     8     9    1
    32     8    10   ar
    33    10    11   ar
    34    11     1   ar
    35    17    12   ar
    36    34    28   ar
    37    11     5   ar
    38    18    21    1
    39    26    27    1
    40    33    35    1
    41    33    36    1
@<TRIPOS>MOLECULE
*****
 38 41 0 0 0
SMALL
GASTEIGER

@<TRIPOS>ATOM
      1 C           2.3106   -0.1339   22.3670 C.ar    1  UNL1        0.0575
      2 C           2.3900    0.2781   23.8071 C.ar    1  UNL1        0.0372
      3 C           3.2797   -0.4716   24.7538 C.ar    1  UNL1        0.0782
      4 N           4.0901   -1.6334   24.2604 N.ar    1  UNL1       -0.2480
      5 C           4.0108   -2.0455   22.8203 C.ar    1  UNL1        0.0812
      6 C           4.8212   -3.2073   22.3269 C.ar    1  UNL1        0.0214
      7 C           4.7419   -3.6193   20.8868 C.ar    1  UNL1        0.0312
      8 C           3.8521   -2.8696   19.9401 C.ar    1  UNL1        0.1402
      9 F           3.7728   -3.2817   18.5000 F       1  UNL1       -0.2042
     10 C           3.0417   -1.7078   20.4335 C.ar    1  UNL1        0.0313
     11 C           3.1211   -1.2958   21.8735 C.ar    1  UNL1        0.0243
     12 C           1.5795    1.4400   24.3005 C.ar    1  UNL1        0.0826
     13 C           0.2462    1.2041   24.9459 C.ar    1  UNL1        0.0192
     14 C          -0.5642    2.3658   25.4393 C.ar    1  UNL1        0.0031
     15 C          -0.0413    3.7635   25.2874 C.ar    1  UNL1        0.0207
     16 C           1.2920    3.9993   24.6420 C.ar    1  UNL1        0.0988
     17 N           2.1025    2.8376   24.1485 N.ar    1  UNL1       -0.2438
     18 N           1.8759    1.9213   20.8382 N.am    1  UNL1       -0.3009
     19 C           1.4209    0.6158   21.4203 C.2     1  UNL1        0.2460
     20 O           0.0762    0.0601   21.0557 O.2     1  UNL1       -0.2701
     21 H           2.7585    2.2860   21.0775 H       1  UNL1        0.1497
     22 C           0.9011    2.2543   18.4530 C.3     1  UNL1        0.0230
     23 C           0.9861    2.6710   19.8915 C.3     1  UNL1        0.0898
     24 C           3.3590   -0.0595   26.1939 C.3     1  UNL1        0.1110
     25 C           4.1363    1.1632   26.5824 C.3     1  UNL1        0.0278
     26 N           2.6610   -0.8700   27.2455 N.pl3   1  UNL1       -0.3141
     27 H           2.5812   -1.8458   27.1425 H       1  UNL1        0.1485
     28 C           2.0847   -0.1937   28.4539 C.ar    1  UNL1        0.1429
     29 N           0.7374    0.4613   28.3758 N.ar    1  UNL1       -0.2084
     30 C           0.1611    1.1376   29.5843 C.ar    1  UNL1        0.2012
     31 N           0.9319    1.1589   30.8709 N.ar    1  UNL1       -0.2087
     32 C           2.2791    0.5040   30.9490 C.ar    1  UNL1        0.1396
     33 N           3.0499    0.5254   32.2357 N.pl3   1  UNL1       -0.3420
     34 C           2.8555   -0.1723   29.7406 C.ar    1  UNL1        0.1308
     35 H           2.6716    0.9693   33.0288 H       1  UNL1        0.1437
     36 H           3.9341    0.0955   32.2870 H       1  UNL1        0.1437
     37 C           4.2027   -0.8272   29.8187 C.1     1  UNL1        0.1061
     38 N           5.5498   -1.4822   29.8969 N.1     1  UNL1       -0.1906
@<TRIPOS>BOND
     1    22    23    1
     2    23    18    1
     3    18    19   am
     4    19    20    2
     5    19     1    1
     6     1     2   ar
     7     2    12    1
     8    12    13   ar
     9    13    14   ar
    10    14    15   ar
    11    15    16   ar
    12    16    17   ar
    13     2     3   ar
    14     3    24    1
    15    24    25    1
    16    24    26    1
    17    26    28    1
    18    28    29   ar
    19    29    30   ar
    20    30    31   ar
    21    31    32   ar
    22    32    33    1
    23    32    34   ar
    24    34    37    1
    25    37    38    3
    26     3     4   ar
    27     4     5   ar
    28     5     6   ar
    29     6     7   ar
    30     7     8   ar
    31     8     9    1
    32     8    10   ar
    33    10    11   ar
    34    11     1   ar
    35    17    12   ar
    36    34    28   ar
    37    11     5   ar
    38    18    21    1
    39    26    27    1
    40    33    35    1
    41    33    36    1
@<TRIPOS>MOLECULE
*****
 38 41 0 0 0
SMALL
GASTEIGER

@<TRIPOS>ATOM
      1 C          -5.7604  -17.4743   23.1547 C.ar    1  UNL1        0.0575
      2 C          -6.4244  -18.2886   22.0843 C.ar    1  UNL1        0.0372
      3 C          -7.9197  -18.2959   21.9663 C.ar    1  UNL1        0.0782
      4 N          -8.7511  -17.4887   22.9188 N.ar    1  UNL1       -0.2480
      5 C          -8.0871  -16.6743   23.9894 C.ar    1  UNL1        0.0812
      6 C          -8.9184  -15.8672   24.9419 C.ar    1  UNL1        0.0214
      7 C          -8.2545  -15.0528   26.0123 C.ar    1  UNL1        0.0312
      8 C          -6.7591  -15.0456   26.1303 C.ar    1  UNL1        0.1402
      9 F          -6.0951  -14.2312   27.2008 F       1  UNL1       -0.2042
     10 C          -5.9278  -15.8528   25.1778 C.ar    1  UNL1        0.0313
     11 C          -6.5917  -16.6671   24.1073 C.ar    1  UNL1        0.0243
     12 C          -5.5930  -19.0958   21.1317 C.ar    1  UNL1        0.0826
     13 C          -5.7168  -20.5906   21.1092 C.ar    1  UNL1        0.0192
     14 C          -4.8855  -21.3978   20.1567 C.ar    1  UNL1        0.0031
     15 C          -3.9304  -20.7102   19.2266 C.ar    1  UNL1        0.0207
     16 C          -3.8067  -19.2155   19.2491 C.ar    1  UNL1        0.0988
     17 N          -4.6380  -18.4083   20.2016 N.ar    1  UNL1       -0.2438
     18 N          -3.4363  -16.7348   22.2592 N.am    1  UNL1       -0.3009
     19 C          -4.2650  -17.4671   23.2727 C.2     1  UNL1        0.2460
     20 O          -3.5984  -18.1921   24.4040 O.2     1  UNL1       -0.2701
     21 H          -3.8738  -16.2589   21.5167 H       1  UNL1        0.1497
     22 C          -1.0911  -16.7463   21.1413 C.3     1  UNL1        0.0230
     23 C          -1.9410  -16.7276   22.3772 C.3     1  UNL1        0.0898
     24 C          -8.5837  -19.1103   20.8958 C.3     1  UNL1        0.1110
     25 C          -7.9773  -19.1852   19.5259 C.3     1  UNL1        0.0278
     26 N          -9.8540  -19.8496   21.1952 N.pl3   1  UNL1       -0.3141
     27 H          -9.9231  -20.8109   20.9942 H       1  UNL1        0.1485
     28 C         -11.0189  -19.1244   21.8009 C.ar    1  UNL1        0.1429
     29 N         -11.8739  -18.2344   20.9482 N.ar    1  UNL1       -0.2084
     30 C         -13.0388  -17.5091   21.5539 C.ar    1  UNL1        0.2012
     31 N         -13.3488  -17.6738   23.0123 N.ar    1  UNL1       -0.2087
     32 C         -12.4939  -18.5638   23.8649 C.ar    1  UNL1        0.1396
     33 N         -12.8039  -18.7285   25.3233 N.pl3   1  UNL1       -0.3420
     34 C         -11.3289  -19.2891   23.2592 C.ar    1  UNL1        0.1308
     35 H         -13.5685  -18.2524   25.7208 H       1  UNL1        0.1437
     36 H         -12.2428  -19.3126   25.8829 H       1  UNL1        0.1437
     37 C         -10.4740  -20.1790   24.1119 C.1     1  UNL1        0.1061
     38 N          -9.6191  -21.0690   24.9646 N.1     1  UNL1       -0.1906
@<TRIPOS>BOND
     1    22    23    1
     2    23    18    1
     3    18    19   am
     4    19    20    2
     5    19     1    1
     6     1     2   ar
     7     2    12    1
     8    12    13   ar
     9    13    14   ar
    10    14    15   ar
    11    15    16   ar
    12    16    17   ar
    13     2     3   ar
    14     3    24    1
    15    24    25    1
    16    24    26    1
    17    26    28    1
    18    28    29   ar
    19    29    30   ar
    20    30    31   ar
    21    31    32   ar
    22    32    33    1
    23    32    34   ar
    24    34    37    1
    25    37    38    3
    26     3     4   ar
    27     4     5   ar
    28     5     6   ar
    29     6     7   ar
    30     7     8   ar
    31     8     9    1
    32     8    10   ar
    33    10    11   ar
    34    11     1   ar
    35    17    12   ar
    36    34    28   ar
    37    11     5   ar
    38    18    21    1
    39    26    27    1
    40    33    35    1
    41    33    36    1
@<TRIPOS>MOLECULE
*****
 38 41 0 0 0
SMALL
GASTEIGER

@<TRIPOS>ATOM
      1 C           2.0117    0.2465   21.8343 C.ar    1  UNL1        0.0575
      2 C           1.9497    0.8703   23.1970 C.ar    1  UNL1        0.0372
      3 C           2.7080    0.2582   24.3373 C.ar    1  UNL1        0.0782
      4 N           3.5283   -0.9778   24.1149 N.ar    1  UNL1       -0.2480
      5 C           3.5903   -1.6017   22.7522 C.ar    1  UNL1        0.0812
      6 C           4.4106   -2.8376   22.5298 C.ar    1  UNL1        0.0214
      7 C           4.4726   -3.4615   21.1671 C.ar    1  UNL1        0.0312
      8 C           3.7143   -2.8493   20.0268 C.ar    1  UNL1        0.1402
      9 F           3.7763   -3.4733   18.6641 F       1  UNL1       -0.2042
     10 C           2.8940   -1.6134   20.2492 C.ar    1  UNL1        0.0313
     11 C           2.8320   -0.9895   21.6119 C.ar    1  UNL1        0.0243
     12 C           1.1294    2.1064   23.4194 C.ar    1  UNL1        0.0826
     13 C           1.6920    3.4526   23.0713 C.ar    1  UNL1        0.0192
     14 C           0.8718    4.6886   23.2937 C.ar    1  UNL1        0.0031
     15 C          -0.5110    4.5783   23.8642 C.ar    1  UNL1        0.0207
     16 C          -1.0736    3.2321   24.2124 C.ar    1  UNL1        0.0988
     17 N          -0.2534    1.9962   23.9900 N.ar    1  UNL1       -0.2438
     18 N           1.9396    1.8156   19.7648 N.am    1  UNL1       -0.3009
     19 C           1.2534    0.8586   20.6940 C.2     1  UNL1        0.2460
     20 O          -0.1910    0.5138   20.4829 O.2     1  UNL1       -0.2701
     21 H           2.8877    2.0419   19.9034 H       1  UNL1        0.1497
     22 C           0.3388    3.6475   18.8530 C.3     1  UNL1        0.0230
     23 C           1.1813    2.4277   18.6245 C.3     1  UNL1        0.0898
     24 C           2.6460    0.8821   25.7000 C.3     1  UNL1        0.1110
     25 C           3.7933    1.7098   26.1988 C.3     1  UNL1        0.0278
     26 N           1.4368    0.6783   26.5639 N.pl3   1  UNL1       -0.3141
     27 H           0.5476    0.5853   26.1519 H       1  UNL1        0.1485
     28 C           1.5826    0.6164   28.0555 C.ar    1  UNL1        0.1429
     29 N           2.2679   -0.5553   28.6941 N.ar    1  UNL1       -0.2084
     30 C           2.4136   -0.6172   30.1856 C.ar    1  UNL1        0.2012
     31 N           1.8741    0.4923   31.0387 N.ar    1  UNL1       -0.2087
     32 C           1.1888    1.6639   30.4002 C.ar    1  UNL1        0.1396
     33 N           0.6493    2.7735   31.2532 N.pl3   1  UNL1       -0.3420
     34 C           1.0430    1.7259   28.9085 C.ar    1  UNL1        0.1308
     35 H           0.7449    2.7328   32.2322 H       1  UNL1        0.1437
     36 H           0.1995    3.5425   30.8341 H       1  UNL1        0.1437
     37 C           0.3578    2.8975   28.2700 C.1     1  UNL1        0.1061
     38 N          -0.3275    4.0691   27.6315 N.1     1  UNL1       -0.1906
@<TRIPOS>BOND
     1    22    23    1
     2    23    18    1
     3    18    19   am
     4    19    20    2
     5    19     1    1
     6     1     2   ar
     7     2    12    1
     8    12    13   ar
     9    13    14   ar
    10    14    15   ar
    11    15    16   ar
    12    16    17   ar
    13     2     3   ar
    14     3    24    1
    15    24    25    1
    16    24    26    1
    17    26    28    1
    18    28    29   ar
    19    29    30   ar
    20    30    31   ar
    21    31    32   ar
    22    32    33    1
    23    32    34   ar
    24    34    37    1
    25    37    38    3
    26     3     4   ar
    27     4     5   ar
    28     5     6   ar
    29     6     7   ar
    30     7     8   ar
    31     8     9    1
    32     8    10   ar
    33    10    11   ar
    34    11     1   ar
    35    17    12   ar
    36    34    28   ar
    37    11     5   ar
    38    18    21    1
    39    26    27    1
    40    33    35    1
    41    33    36    1
@<TRIPOS>MOLECULE
*****
 38 41 0 0 0
SMALL
GASTEIGER

@<TRIPOS>ATOM
      1 C           4.1180   -1.0693   24.2448 C.ar    1  UNL1        0.0575
      2 C           4.9527   -1.6112   25.3671 C.ar    1  UNL1        0.0372
      3 C           5.7689   -2.8530   25.1629 C.ar    1  UNL1        0.0782
      4 N           5.7504   -3.5530   23.8364 N.ar    1  UNL1       -0.2480
      5 C           4.9157   -3.0111   22.7139 C.ar    1  UNL1        0.0812
      6 C           4.8971   -3.7110   21.3874 C.ar    1  UNL1        0.0214
      7 C           4.0625   -3.1691   20.2651 C.ar    1  UNL1        0.0312
      8 C           3.2463   -1.9273   20.4693 C.ar    1  UNL1        0.1402
      9 F           2.4116   -1.3854   19.3469 F       1  UNL1       -0.2042
     10 C           3.2648   -1.2273   21.7958 C.ar    1  UNL1        0.0313
     11 C           4.0995   -1.7692   22.9182 C.ar    1  UNL1        0.0243
     12 C           4.9712   -0.9112   26.6937 C.ar    1  UNL1        0.0826
     13 C           6.0642    0.0659   27.0109 C.ar    1  UNL1        0.0192
     14 C           6.0828    0.7658   28.3374 C.ar    1  UNL1        0.0031
     15 C           5.0084    0.4886   29.3467 C.ar    1  UNL1        0.0207
     16 C           3.9154   -0.4885   29.0295 C.ar    1  UNL1        0.0988
     17 N           3.8968   -1.1884   27.7030 N.ar    1  UNL1       -0.2438
     18 N           1.9637    0.0884   25.1216 N.am    1  UNL1       -0.3009
     19 C           3.3019    0.1726   24.4490 C.2     1  UNL1        0.2460
     20 O           3.8238    1.4985   23.9806 O.2     1  UNL1       -0.2701
     21 H           1.6211   -0.7819   25.4290 H       1  UNL1        0.1497
     22 C          -0.2300    1.2345   25.9116 C.3     1  UNL1        0.0230
     23 C           1.1475    1.3303   25.3258 C.3     1  UNL1        0.0898
     24 C           6.6036   -3.3949   26.2853 C.3     1  UNL1        0.1110
     25 C           8.0370   -2.9754   26.4241 C.3     1  UNL1        0.0278
     26 N           6.0048   -4.3563   27.2687 N.pl3   1  UNL1       -0.3141
     27 H           5.0344   -4.3505   27.4344 H       1  UNL1        0.1485
     28 C           6.8847   -5.3264   27.9999 C.ar    1  UNL1        0.1429
     29 N           7.4191   -6.5356   27.2910 N.ar    1  UNL1       -0.2084
     30 C           8.2989   -7.5058   28.0221 C.ar    1  UNL1        0.2012
     31 N           8.6445   -7.2669   29.4621 N.ar    1  UNL1       -0.2087
     32 C           8.1101   -6.0578   30.1709 C.ar    1  UNL1        0.1396
     33 N           8.4557   -5.8188   31.6109 N.pl3   1  UNL1       -0.3420
     34 C           7.2302   -5.0875   29.4398 C.ar    1  UNL1        0.1308
     35 H           9.0332   -6.4556   32.0908 H       1  UNL1        0.1437
     36 H           8.1049   -5.0252   32.0762 H       1  UNL1        0.1437
     37 C           6.6959   -3.8784   30.1487 C.1     1  UNL1        0.1061
     38 N           6.1616   -2.6693   30.8575 N.1     1  UNL1       -0.1906
@<TRIPOS>BOND
     1    22    23    1
     2    23    18    1
     3    18    19   am
     4    19    20    2
     5    19     1    1
     6     1     2   ar
     7     2    12    1
     8    12    13   ar
     9    13    14   ar
    10    14    15   ar
    11    15    16   ar
    12    16    17   ar
    13     2     3   ar
    14     3    24    1
    15    24    25    1
    16    24    26    1
    17    26    28    1
    18    28    29   ar
    19    29    30   ar
    20    30    31   ar
    21    31    32   ar
    22    32    33    1
    23    32    34   ar
    24    34    37    1
    25    37    38    3
    26     3     4   ar
    27     4     5   ar
    28     5     6   ar
    29     6     7   ar
    30     7     8   ar
    31     8     9    1
    32     8    10   ar
    33    10    11   ar
    34    11     1   ar
    35    17    12   ar
    36    34    28   ar
    37    11     5   ar
    38    18    21    1
    39    26    27    1
    40    33    35    1
    41    33    36    1
@<TRIPOS>MOLECULE
*****
 38 41 0 0 0
SMALL
GASTEIGER

@<TRIPOS>ATOM
      1 C           2.6565    3.8539   36.2880 C.ar    1  UNL1        0.0575
      2 C           3.7408    3.3267   35.3957 C.ar    1  UNL1        0.0372
      3 C           3.9141    3.8864   34.0149 C.ar    1  UNL1        0.0782
      4 N           3.0031    4.9733   33.5263 N.ar    1  UNL1       -0.2480
      5 C           1.9188    5.5006   34.4187 C.ar    1  UNL1        0.0812
      6 C           1.0078    6.5875   33.9302 C.ar    1  UNL1        0.0214
      7 C          -0.0765    7.1147   34.8225 C.ar    1  UNL1        0.0312
      8 C          -0.2498    6.5550   36.2033 C.ar    1  UNL1        0.1402
      9 F          -1.3342    7.0823   37.0957 F       1  UNL1       -0.2042
     10 C           0.6612    5.4681   36.6919 C.ar    1  UNL1        0.0313
     11 C           1.7455    4.9409   35.7995 C.ar    1  UNL1        0.0243
     12 C           4.6519    2.2397   35.8842 C.ar    1  UNL1        0.0826
     13 C           4.2795    0.8011   35.6805 C.ar    1  UNL1        0.0192
     14 C           5.1905   -0.2859   36.1689 C.ar    1  UNL1        0.0031
     15 C           6.4739    0.0659   36.8611 C.ar    1  UNL1        0.0207
     16 C           6.8463    1.5046   37.0648 C.ar    1  UNL1        0.0988
     17 N           5.9353    2.5915   36.5764 N.ar    1  UNL1       -0.2438
     18 N           1.5354    2.1554   37.9031 N.am    1  UNL1       -0.3009
     19 C           2.4832    3.2943   37.6689 C.2     1  UNL1        0.2460
     20 O           3.2577    3.8733   38.8155 O.2     1  UNL1       -0.2701
     21 H           1.0271    1.7754   37.1505 H       1  UNL1        0.1497
     22 C           1.1992    0.1175   39.4790 C.3     1  UNL1        0.0230
     23 C           1.3621    1.5958   39.2839 C.3     1  UNL1        0.0898
     24 C           4.9985    3.3591   33.1225 C.3     1  UNL1        0.1110
     25 C           6.2945    4.1038   32.9966 C.3     1  UNL1        0.0278
     26 N           4.7868    2.0872   32.3561 N.pl3   1  UNL1       -0.3141
     27 H           5.3097    1.2840   32.5813 H       1  UNL1        0.1485
     28 C           3.7786    2.0391   31.2466 C.ar    1  UNL1        0.1429
     29 N           3.4704    3.2780   30.4590 N.ar    1  UNL1       -0.2084
     30 C           2.4621    3.2299   29.3495 C.ar    1  UNL1        0.2012
     31 N           1.7620    1.9430   29.0275 N.ar    1  UNL1       -0.2087
     32 C           2.0701    0.7041   29.8151 C.ar    1  UNL1        0.1396
     33 N           1.3700   -0.5828   29.4931 N.pl3   1  UNL1       -0.3420
     34 C           3.0785    0.7522   30.9246 C.ar    1  UNL1        0.1308
     35 H           0.7083   -0.6144   28.7649 H       1  UNL1        0.1437
     36 H           1.5723   -1.3959   30.0100 H       1  UNL1        0.1437
     37 C           3.3866   -0.4867   31.7122 C.1     1  UNL1        0.1061
     38 N           3.6948   -1.7255   32.4997 N.1     1  UNL1       -0.1906
@<TRIPOS>BOND
     1    22    23    1
     2    23    18    1
     3    18    19   am
     4    19    20    2
     5    19     1    1
     6     1     2   ar
     7     2    12    1
     8    12    13   ar
     9    13    14   ar
    10    14    15   ar
    11    15    16   ar
    12    16    17   ar
    13     2     3   ar
    14     3    24    1
    15    24    25    1
    16    24    26    1
    17    26    28    1
    18    28    29   ar
    19    29    30   ar
    20    30    31   ar
    21    31    32   ar
    22    32    33    1
    23    32    34   ar
    24    34    37    1
    25    37    38    3
    26     3     4   ar
    27     4     5   ar
    28     5     6   ar
    29     6     7   ar
    30     7     8   ar
    31     8     9    1
    32     8    10   ar
    33    10    11   ar
    34    11     1   ar
    35    17    12   ar
    36    34    28   ar
    37    11     5   ar
    38    18    21    1
    39    26    27    1
    40    33    35    1
    41    33    36    1
@<TRIPOS>MOLECULE
*****
 38 41 0 0 0
SMALL
GASTEIGER

@<TRIPOS>ATOM
      1 C           4.6789   -2.0758   22.2943 C.ar    1  UNL1        0.0575
      2 C           3.7911   -0.9196   22.6477 C.ar    1  UNL1        0.0372
      3 C           3.6838   -0.4646   24.0730 C.ar    1  UNL1        0.0782
      4 N           4.4644   -1.1658   25.1449 N.ar    1  UNL1       -0.2480
      5 C           5.3523   -2.3220   24.7915 C.ar    1  UNL1        0.0812
      6 C           6.1328   -3.0232   25.8634 C.ar    1  UNL1        0.0214
      7 C           7.0207   -4.1794   25.5101 C.ar    1  UNL1        0.0312
      8 C           7.1279   -4.6344   24.0848 C.ar    1  UNL1        0.1402
      9 F           8.0158   -5.7906   23.7315 F       1  UNL1       -0.2042
     10 C           6.3474   -3.9332   23.0129 C.ar    1  UNL1        0.0313
     11 C           5.4595   -2.7771   23.3662 C.ar    1  UNL1        0.0243
     12 C           3.0104   -0.2184   21.5757 C.ar    1  UNL1        0.0826
     13 C           1.6920   -0.7729   21.1237 C.ar    1  UNL1        0.0192
     14 C           0.9114   -0.0717   20.0518 C.ar    1  UNL1        0.0031
     15 C           1.4492    1.1839   19.4320 C.ar    1  UNL1        0.0207
     16 C           2.7676    1.7383   19.8840 C.ar    1  UNL1        0.0988
     17 N           3.5482    1.0372   20.9559 N.ar    1  UNL1       -0.2438
     18 N           3.8829   -3.6138   20.3575 N.am    1  UNL1       -0.3009
     19 C           4.7862   -2.5309   20.8690 C.2     1  UNL1        0.2460
     20 O           5.7966   -1.9031   19.9553 O.2     1  UNL1       -0.2701
     21 H           3.2198   -4.0258   20.9572 H       1  UNL1        0.1497
     22 C           4.6803   -5.3603   18.6071 C.3     1  UNL1        0.0230
     23 C           3.9902   -4.0688   18.9322 C.3     1  UNL1        0.0898
     24 C           2.7959    0.6917   24.4263 C.3     1  UNL1        0.1110
     25 C           3.3712    2.0725   24.5371 C.3     1  UNL1        0.0278
     26 N           1.3328    0.4670   24.6688 N.pl3   1  UNL1       -0.3141
     27 H           1.0230   -0.3828   25.0574 H       1  UNL1        0.1485
     28 C           0.3417    1.5372   24.3192 C.ar    1  UNL1        0.1429
     29 N           0.2751    2.0691   22.9181 N.ar    1  UNL1       -0.2084
     30 C          -0.7160    3.1393   22.5685 C.ar    1  UNL1        0.2012
     31 N          -1.6406    3.6777   23.6198 N.ar    1  UNL1       -0.2087
     32 C          -1.5741    3.1459   25.0208 C.ar    1  UNL1        0.1396
     33 N          -2.4987    3.6843   26.0721 N.pl3   1  UNL1       -0.3420
     34 C          -0.5829    2.0756   25.3705 C.ar    1  UNL1        0.1308
     35 H          -3.1492    4.3867   25.8426 H       1  UNL1        0.1437
     36 H          -2.4550    3.3352   26.9916 H       1  UNL1        0.1437
     37 C          -0.5164    1.5438   26.7714 C.1     1  UNL1        0.1061
     38 N          -0.4499    1.0120   28.1724 N.1     1  UNL1       -0.1906
@<TRIPOS>BOND
     1    22    23    1
     2    23    18    1
     3    18    19   am
     4    19    20    2
     5    19     1    1
     6     1     2   ar
     7     2    12    1
     8    12    13   ar
     9    13    14   ar
    10    14    15   ar
    11    15    16   ar
    12    16    17   ar
    13     2     3   ar
    14     3    24    1
    15    24    25    1
    16    24    26    1
    17    26    28    1
    18    28    29   ar
    19    29    30   ar
    20    30    31   ar
    21    31    32   ar
    22    32    33    1
    23    32    34   ar
    24    34    37    1
    25    37    38    3
    26     3     4   ar
    27     4     5   ar
    28     5     6   ar
    29     6     7   ar
    30     7     8   ar
    31     8     9    1
    32     8    10   ar
    33    10    11   ar
    34    11     1   ar
    35    17    12   ar
    36    34    28   ar
    37    11     5   ar
    38    18    21    1
    39    26    27    1
    40    33    35    1
    41    33    36    1
@<TRIPOS>MOLECULE
*****
 38 41 0 0 0
SMALL
GASTEIGER

@<TRIPOS>ATOM
      1 C           3.6572   -0.6805   21.9962 C.ar    1  UNL1        0.0575
      2 C           3.9386   -0.5911   23.4669 C.ar    1  UNL1        0.0372
      3 C           3.0187    0.1868   24.3606 C.ar    1  UNL1        0.0782
      4 N           1.8174    0.8753   23.7836 N.ar    1  UNL1       -0.2480
      5 C           1.5360    0.7859   22.3129 C.ar    1  UNL1        0.0812
      6 C           0.3348    1.4744   21.7360 C.ar    1  UNL1        0.0214
      7 C           0.0534    1.3850   20.2653 C.ar    1  UNL1        0.0312
      8 C           0.9733    0.6071   19.3716 C.ar    1  UNL1        0.1402
      9 F           0.6919    0.5177   17.9009 F       1  UNL1       -0.2042
     10 C           2.1746   -0.0814   19.9486 C.ar    1  UNL1        0.0313
     11 C           2.4559    0.0080   21.4192 C.ar    1  UNL1        0.0243
     12 C           5.1399   -1.2796   24.0439 C.ar    1  UNL1        0.0826
     13 C           6.4017   -0.5065   24.2890 C.ar    1  UNL1        0.0192
     14 C           7.6030   -1.1950   24.8660 C.ar    1  UNL1        0.0031
     15 C           7.5424   -2.6565   25.1979 C.ar    1  UNL1        0.0207
     16 C           6.2806   -3.4296   24.9528 C.ar    1  UNL1        0.0988
     17 N           5.0793   -2.7412   24.3758 N.ar    1  UNL1       -0.2438
     18 N           4.4478   -2.9499   21.0088 N.am    1  UNL1       -0.3009
     19 C           4.5771   -1.4584   21.1026 C.2     1  UNL1        0.2460
     20 O           5.6263   -0.7449   20.3026 O.2     1  UNL1       -0.2701
     21 H           3.7591   -3.4183   21.5339 H       1  UNL1        0.1497
     22 C           5.0589   -3.8597   18.6532 C.3     1  UNL1        0.0230
     23 C           5.3677   -3.7278   20.1152 C.3     1  UNL1        0.0898
     24 C           3.3001    0.2761   25.8313 C.3     1  UNL1        0.1110
     25 C           3.7183    1.5832   26.4368 C.3     1  UNL1        0.0278
     26 N           3.1633   -0.9415   26.6964 N.pl3   1  UNL1       -0.3141
     27 H           2.5575   -1.6700   26.4288 H       1  UNL1        0.1485
     28 C           3.9494   -1.0493   27.9693 C.ar    1  UNL1        0.1429
     29 N           5.3988   -1.4334   27.9254 N.ar    1  UNL1       -0.2084
     30 C           6.1850   -1.5411   29.1983 C.ar    1  UNL1        0.2012
     31 N           5.5218   -1.2649   30.5151 N.ar    1  UNL1       -0.2087
     32 C           4.0725   -0.8809   30.5590 C.ar    1  UNL1        0.1396
     33 N           3.4094   -0.6046   31.8758 N.pl3   1  UNL1       -0.3420
     34 C           3.2863   -0.7731   29.2861 C.ar    1  UNL1        0.1308
     35 H           3.9254   -0.6754   32.7112 H       1  UNL1        0.1437
     36 H           2.4581   -0.3526   31.9046 H       1  UNL1        0.1437
     37 C           1.8370   -0.3891   29.3300 C.1     1  UNL1        0.1061
     38 N           0.3877   -0.0050   29.3739 N.1     1  UNL1       -0.1906
@<TRIPOS>BOND
     1    22    23    1
     2    23    18    1
     3    18    19   am
     4    19    20    2
     5    19     1    1
     6     1     2   ar
     7     2    12    1
     8    12    13   ar
     9    13    14   ar
    10    14    15   ar
    11    15    16   ar
    12    16    17   ar
    13     2     3   ar
    14     3    24    1
    15    24    25    1
    16    24    26    1
    17    26    28    1
    18    28    29   ar
    19    29    30   ar
    20    30    31   ar
    21    31    32   ar
    22    32    33    1
    23    32    34   ar
    24    34    37    1
    25    37    38    3
    26     3     4   ar
    27     4     5   ar
    28     5     6   ar
    29     6     7   ar
    30     7     8   ar
    31     8     9    1
    32     8    10   ar
    33    10    11   ar
    34    11     1   ar
    35    17    12   ar
    36    34    28   ar
    37    11     5   ar
    38    18    21    1
    39    26    27    1
    40    33    35    1
    41    33    36    1
