@<TRIPOS>MOLECULE
*****
 20 22 0 0 0
SMALL
GASTEIGER

@<TRIPOS>ATOM
      1 C          -9.2964  -18.5782   21.0047 C.ar    1  UNL1        0.0657
      2 C          -9.0456  -19.2570   19.6908 C.ar    1  UNL1        0.0207
      3 C          -7.8038  -20.0751   19.4944 C.ar    1  UNL1        0.0384
      4 C          -6.8129  -20.2144   20.6117 C.ar    1  UNL1        0.1387
      5 C          -7.0637  -19.5355   21.9256 C.ar    1  UNL1        0.0384
      6 C          -8.3055  -18.7174   22.1220 C.ar    1  UNL1        0.0207
      7 C         -12.3222  -16.4858   22.2427 C.ar    1  UNL1        0.1196
      8 C         -11.0626  -17.2544   22.5124 C.ar    1  UNL1        0.1022
      9 N         -10.5383  -17.7600   21.2012 N.ar    1  UNL1       -0.2864
     10 C         -11.4738  -17.3039   20.1210 C.ar    1  UNL1        0.1828
     11 N         -12.5763  -16.5164   20.7646 N.ar    1  UNL1       -0.2220
     12 O          -5.5710  -21.0325   20.4152 O.3     1  UNL1       -0.4740
     13 C          -4.2982  -20.3705   19.9777 C.3     1  UNL1        0.2226
     14 C          -3.2016  -20.1229   20.9710 C.3     1  UNL1        0.1202
     15 N          -2.4896  -18.8029   20.9886 N.3     1  UNL1       -0.2653
     16 C          -2.9268  -17.7276   21.9388 C.3     1  UNL1        0.1047
     17 C          -2.2148  -16.4075   21.9565 C.3     1  UNL1        0.1595
     18 O          -1.0656  -16.1626   21.0240 O.3     1  UNL1       -0.3508
     19 C          -0.6285  -17.2378   20.0739 C.3     1  UNL1        0.1595
     20 C          -1.3405  -18.5580   20.0562 C.3     1  UNL1        0.1047
@<TRIPOS>BOND
     1     7     8   ar
     2     8     9   ar
     3     9     1    1
     4     1     2   ar
     5     2     3   ar
     6     3     4   ar
     7     4    12    1
     8    12    13    1
     9    13    14    1
    10    14    15    1
    11    15    16    1
    12    16    17    1
    13    17    18    1
    14    18    19    1
    15    19    20    1
    16     4     5   ar
    17     5     6   ar
    18     9    10   ar
    19    10    11   ar
    20    11     7   ar
    21     6     1   ar
    22    20    15    1
@<TRIPOS>MOLECULE
*****
 20 22 0 0 0
SMALL
GASTEIGER

@<TRIPOS>ATOM
      1 C          -3.5910  -19.0402   20.7135 C.ar    1  UNL1        0.0657
      2 C          -4.0697  -18.4781   22.0192 C.ar    1  UNL1        0.0207
      3 C          -5.3599  -18.9586   22.6145 C.ar    1  UNL1        0.0384
      4 C          -6.1714  -20.0012   21.9041 C.ar    1  UNL1        0.1387
      5 C          -5.6927  -20.5632   20.5984 C.ar    1  UNL1        0.0384
      6 C          -4.4025  -20.0827   20.0031 C.ar    1  UNL1        0.0207
      7 C          -0.0116  -17.7870   19.8869 C.ar    1  UNL1        0.1196
      8 C          -1.0510  -18.2233   20.8764 C.ar    1  UNL1        0.1022
      9 N          -2.3007  -18.5597   20.1181 N.ar    1  UNL1       -0.2864
     10 C          -2.0336  -18.3313   18.6598 C.ar    1  UNL1        0.1828
     11 N          -0.6189  -17.8537   18.5169 N.ar    1  UNL1       -0.2220
     12 O          -7.4616  -20.4816   22.4995 O.3     1  UNL1       -0.4740
     13 C          -8.5221  -19.4944   22.8877 C.3     1  UNL1        0.2226
     14 C          -9.9668  -19.8053   22.6299 C.3     1  UNL1        0.1202
     15 N         -10.8322  -18.8102   21.9153 N.3     1  UNL1       -0.2653
     16 C         -12.0527  -18.2571   22.5894 C.3     1  UNL1        0.1047
     17 C         -12.9181  -17.2619   21.8748 C.3     1  UNL1        0.1595
     18 O         -12.5631  -16.8199   20.4860 O.3     1  UNL1       -0.3508
     19 C         -11.3426  -17.3730   19.8119 C.3     1  UNL1        0.1595
     20 C         -10.4771  -18.3682   20.5266 C.3     1  UNL1        0.1047
@<TRIPOS>BOND
     1     7     8   ar
     2     8     9   ar
     3     9     1    1
     4     1     2   ar
     5     2     3   ar
     6     3     4   ar
     7     4    12    1
     8    12    13    1
     9    13    14    1
    10    14    15    1
    11    15    16    1
    12    16    17    1
    13    17    18    1
    14    18    19    1
    15    19    20    1
    16     4     5   ar
    17     5     6   ar
    18     9    10   ar
    19    10    11   ar
    20    11     7   ar
    21     6     1   ar
    22    20    15    1
@<TRIPOS>MOLECULE
*****
 20 22 0 0 0
SMALL
GASTEIGER

@<TRIPOS>ATOM
      1 C          -9.3523  -17.2626   22.8858 C.ar    1  UNL1        0.0657
      2 C          -8.3627  -18.1122   22.1449 C.ar    1  UNL1        0.0207
      3 C          -6.8922  -17.8663   22.3088 C.ar    1  UNL1        0.0384
      4 C          -6.4111  -16.7709   23.2136 C.ar    1  UNL1        0.1387
      5 C          -7.4007  -15.9214   23.9546 C.ar    1  UNL1        0.0384
      6 C          -8.8712  -16.1672   23.7907 C.ar    1  UNL1        0.0207
      7 C         -13.1432  -18.0333   23.2032 C.ar    1  UNL1        0.1196
      8 C         -11.7799  -17.8901   23.8122 C.ar    1  UNL1        0.1022
      9 N         -10.8229  -17.5084   22.7219 N.ar    1  UNL1       -0.2864
     10 C         -11.5948  -17.4158   21.4391 C.ar    1  UNL1        0.1828
     11 N         -13.0288  -17.7401   21.7365 N.ar    1  UNL1       -0.2220
     12 O          -4.9404  -16.5251   23.3775 O.3     1  UNL1       -0.4740
     13 C          -4.0032  -17.6810   23.5657 C.3     1  UNL1        0.2226
     14 C          -2.6255  -17.6335   22.9743 C.3     1  UNL1        0.1202
     15 N          -2.4199  -17.9586   21.5245 N.3     1  UNL1       -0.2653
     16 C          -1.2313  -17.4081   20.7936 C.3     1  UNL1        0.1047
     17 C          -1.0258  -17.7332   19.3438 C.3     1  UNL1        0.1595
     18 O          -2.0089  -18.6088   18.6248 O.3     1  UNL1       -0.3508
     19 C          -3.1975  -19.1593   19.3557 C.3     1  UNL1        0.1595
     20 C          -3.4030  -18.8341   20.8056 C.3     1  UNL1        0.1047
@<TRIPOS>BOND
     1     7     8   ar
     2     8     9   ar
     3     9     1    1
     4     1     2   ar
     5     2     3   ar
     6     3     4   ar
     7     4    12    1
     8    12    13    1
     9    13    14    1
    10    14    15    1
    11    15    16    1
    12    16    17    1
    13    17    18    1
    14    18    19    1
    15    19    20    1
    16     4     5   ar
    17     5     6   ar
    18     9    10   ar
    19    10    11   ar
    20    11     7   ar
    21     6     1   ar
    22    20    15    1
@<TRIPOS>MOLECULE
*****
 20 22 0 0 0
SMALL
GASTEIGER

@<TRIPOS>ATOM
      1 C          -5.5794  -19.3193   20.9090 C.ar    1  UNL1        0.0657
      2 C          -6.2174  -19.5141   22.2525 C.ar    1  UNL1        0.0207
      3 C          -7.7099  -19.6102   22.3672 C.ar    1  UNL1        0.0384
      4 C          -8.5644  -19.5113   21.1383 C.ar    1  UNL1        0.1387
      5 C          -7.9264  -19.3164   19.7948 C.ar    1  UNL1        0.0384
      6 C          -6.4339  -19.2204   19.6802 C.ar    1  UNL1        0.0207
      7 C          -1.8612  -18.7995   19.9240 C.ar    1  UNL1        0.1196
      8 C          -3.3245  -18.7204   19.6044 C.ar    1  UNL1        0.1022
      9 N          -4.0868  -19.2232   20.7944 N.ar    1  UNL1       -0.2864
     10 C          -3.0946  -19.6132   21.8495 C.ar    1  UNL1        0.1828
     11 N          -1.7190  -19.3514   21.3116 N.ar    1  UNL1       -0.2220
     12 O         -10.0570  -19.6073   21.2530 O.3     1  UNL1       -0.4740
     13 C         -10.9219  -18.4959   20.7368 C.3     1  UNL1        0.2226
     14 C         -11.0719  -17.2319   21.5305 C.3     1  UNL1        0.1202
     15 N         -10.0041  -16.8252   22.5023 N.3     1  UNL1       -0.2653
     16 C          -8.8340  -16.0120   22.0339 C.3     1  UNL1        0.1047
     17 C          -7.7662  -15.6054   23.0057 C.3     1  UNL1        0.1595
     18 O          -7.8685  -16.0120   24.4459 O.3     1  UNL1       -0.3508
     19 C          -9.0386  -16.8253   24.9143 C.3     1  UNL1        0.1595
     20 C         -10.1065  -17.2319   23.9424 C.3     1  UNL1        0.1047
@<TRIPOS>BOND
     1     7     8   ar
     2     8     9   ar
     3     9     1    1
     4     1     2   ar
     5     2     3   ar
     6     3     4   ar
     7     4    12    1
     8    12    13    1
     9    13    14    1
    10    14    15    1
    11    15    16    1
    12    16    17    1
    13    17    18    1
    14    18    19    1
    15    19    20    1
    16     4     5   ar
    17     5     6   ar
    18     9    10   ar
    19    10    11   ar
    20    11     7   ar
    21     6     1   ar
    22    20    15    1
@<TRIPOS>MOLECULE
*****
 20 22 0 0 0
SMALL
GASTEIGER

@<TRIPOS>ATOM
      1 C          -8.4290  -15.8632   23.9511 C.ar    1  UNL1        0.0657
      2 C          -9.7602  -16.4536   24.3109 C.ar    1  UNL1        0.0207
      3 C         -10.7811  -16.7084   23.2419 C.ar    1  UNL1        0.0384
      4 C         -10.4709  -16.3729   21.8132 C.ar    1  UNL1        0.1387
      5 C          -9.1397  -15.7826   21.4534 C.ar    1  UNL1        0.0384
      6 C          -8.1188  -15.5278   22.5224 C.ar    1  UNL1        0.0207
      7 C          -5.3036  -15.1548   26.1410 C.ar    1  UNL1        0.1196
      8 C          -5.9451  -15.3593   24.8007 C.ar    1  UNL1        0.1022
      9 N          -7.4080  -15.6084   25.0201 N.ar    1  UNL1       -0.2864
     10 C          -7.6705  -15.5579   26.4960 C.ar    1  UNL1        0.1828
     11 N          -6.3699  -15.2776   27.1888 N.ar    1  UNL1       -0.2220
     12 O         -11.4919  -16.6277   20.7442 O.3     1  UNL1       -0.4740
     13 C         -11.1666  -17.5394   19.5984 C.3     1  UNL1        0.2226
     14 C         -10.9179  -18.9976   19.8474 C.3     1  UNL1        0.1202
     15 N         -10.1875  -19.4336   21.0829 N.3     1  UNL1       -0.2653
     16 C         -10.9498  -19.9980   22.2450 C.3     1  UNL1        0.1047
     17 C         -10.2194  -20.4339   23.4805 C.3     1  UNL1        0.1595
     18 O          -8.7267  -20.3055   23.5539 O.3     1  UNL1       -0.3508
     19 C          -7.9644  -19.7411   22.3919 C.3     1  UNL1        0.1595
     20 C          -8.6949  -19.3052   21.1563 C.3     1  UNL1        0.1047
@<TRIPOS>BOND
     1     7     8   ar
     2     8     9   ar
     3     9     1    1
     4     1     2   ar
     5     2     3   ar
     6     3     4   ar
     7     4    12    1
     8    12    13    1
     9    13    14    1
    10    14    15    1
    11    15    16    1
    12    16    17    1
    13    17    18    1
    14    18    19    1
    15    19    20    1
    16     4     5   ar
    17     5     6   ar
    18     9    10   ar
    19    10    11   ar
    20    11     7   ar
    21     6     1   ar
    22    20    15    1
@<TRIPOS>MOLECULE
*****
 20 22 0 0 0
SMALL
GASTEIGER

@<TRIPOS>ATOM
      1 C         -15.2433   -6.9030   19.3059 C.ar    1  UNL1        0.0657
      2 C         -16.2426   -5.8087   19.5380 C.ar    1  UNL1        0.0207
      3 C         -15.7745   -4.4037   19.7760 C.ar    1  UNL1        0.0384
      4 C         -14.3070   -4.0929   19.7819 C.ar    1  UNL1        0.1387
      5 C         -13.3077   -5.1872   19.5498 C.ar    1  UNL1        0.0384
      6 C         -13.7758   -6.5922   19.3118 C.ar    1  UNL1        0.0207
      7 C         -17.0495  -10.3326   19.1041 C.ar    1  UNL1        0.1196
      8 C         -16.9860   -8.9113   19.5792 C.ar    1  UNL1        0.1022
      9 N         -15.7114   -8.3081   19.0678 N.ar    1  UNL1       -0.2864
     10 C         -14.9871   -9.3566   18.2767 C.ar    1  UNL1        0.1828
     11 N         -15.8140  -10.6079   18.2991 N.ar    1  UNL1       -0.2220
     12 O         -13.8389   -2.6878   20.0199 O.3     1  UNL1       -0.4740
     13 C         -13.2169   -1.9049   18.9018 C.3     1  UNL1        0.2226
     14 C         -11.7383   -1.6519   18.8953 C.3     1  UNL1        0.1202
     15 N         -10.8253   -2.5608   18.1271 N.3     1  UNL1       -0.2653
     16 C         -10.3740   -3.8569   18.7325 C.3     1  UNL1        0.1047
     17 C          -9.4610   -4.7658   17.9643 C.3     1  UNL1        0.1595
     18 O          -8.9991   -4.3786   16.5906 O.3     1  UNL1       -0.3508
     19 C          -9.4504   -3.0825   15.9853 C.3     1  UNL1        0.1595
     20 C         -10.3635   -2.1736   16.7536 C.3     1  UNL1        0.1047
@<TRIPOS>BOND
     1     7     8   ar
     2     8     9   ar
     3     9     1    1
     4     1     2   ar
     5     2     3   ar
     6     3     4   ar
     7     4    12    1
     8    12    13    1
     9    13    14    1
    10    14    15    1
    11    15    16    1
    12    16    17    1
    13    17    18    1
    14    18    19    1
    15    19    20    1
    16     4     5   ar
    17     5     6   ar
    18     9    10   ar
    19    10    11   ar
    20    11     7   ar
    21     6     1   ar
    22    20    15    1
@<TRIPOS>MOLECULE
*****
 20 22 0 0 0
SMALL
GASTEIGER

@<TRIPOS>ATOM
      1 C          -7.7933  -16.3800   23.7366 C.ar    1  UNL1        0.0657
      2 C          -9.1414  -15.8416   23.3588 C.ar    1  UNL1        0.0207
      3 C          -9.8210  -16.3279   22.1132 C.ar    1  UNL1        0.0384
      4 C          -9.1526  -17.3526   21.2454 C.ar    1  UNL1        0.1387
      5 C          -7.8045  -17.8911   21.6231 C.ar    1  UNL1        0.0384
      6 C          -7.1249  -17.4047   22.8687 C.ar    1  UNL1        0.0207
      7 C          -6.6992  -15.2585   27.2878 C.ar    1  UNL1        0.1196
      8 C          -7.7357  -15.7909   26.3433 C.ar    1  UNL1        0.1022
      9 N          -7.1136  -15.8937   24.9822 N.ar    1  UNL1       -0.2864
     10 C          -5.6926  -15.4248   25.0855 C.ar    1  UNL1        0.1828
     11 N          -5.4364  -15.0323   26.5104 N.ar    1  UNL1       -0.2220
     12 O          -9.8323  -17.8390   19.9997 O.3     1  UNL1       -0.4740
     13 C         -10.0310  -19.3092   19.7789 C.3     1  UNL1        0.2226
     14 C         -10.9708  -20.0795   20.6585 C.3     1  UNL1        0.1202
     15 N         -11.2797  -19.5850   22.0405 N.3     1  UNL1       -0.2653
     16 C         -12.4177  -18.6326   22.2595 C.3     1  UNL1        0.1047
     17 C         -12.7266  -18.1382   23.6415 C.3     1  UNL1        0.1595
     18 O         -11.8974  -18.5960   24.8047 O.3     1  UNL1       -0.3508
     19 C         -10.7594  -19.5484   24.5858 C.3     1  UNL1        0.1595
     20 C         -10.4505  -20.0429   23.2037 C.3     1  UNL1        0.1047
@<TRIPOS>BOND
     1     7     8   ar
     2     8     9   ar
     3     9     1    1
     4     1     2   ar
     5     2     3   ar
     6     3     4   ar
     7     4    12    1
     8    12    13    1
     9    13    14    1
    10    14    15    1
    11    15    16    1
    12    16    17    1
    13    17    18    1
    14    18    19    1
    15    19    20    1
    16     4     5   ar
    17     5     6   ar
    18     9    10   ar
    19    10    11   ar
    20    11     7   ar
    21     6     1   ar
    22    20    15    1
@<TRIPOS>MOLECULE
*****
 20 22 0 0 0
SMALL
GASTEIGER

@<TRIPOS>ATOM
      1 C           3.0901   -0.5070   18.9311 C.ar    1  UNL1        0.0657
      2 C           2.5639    0.7382   18.2811 C.ar    1  UNL1        0.0207
      3 C           1.2796    1.3483   18.7587 C.ar    1  UNL1        0.0384
      4 C           0.5213    0.7131   19.8864 C.ar    1  UNL1        0.1387
      5 C           1.0475   -0.5321   20.5364 C.ar    1  UNL1        0.0384
      6 C           2.3319   -1.1422   20.0588 C.ar    1  UNL1        0.0207
      7 C           6.2120   -2.6690   18.1277 C.ar    1  UNL1        0.1196
      8 C           4.9046   -2.4675   18.8348 C.ar    1  UNL1        0.1022
      9 N           4.3745   -1.1171   18.4534 N.ar    1  UNL1       -0.2864
     10 C           5.3544   -0.4839   17.5106 C.ar    1  UNL1        0.1828
     11 N           6.4900   -1.4430   17.3093 N.ar    1  UNL1       -0.2220
     12 O          -0.7631    1.3232   20.3640 O.3     1  UNL1       -0.4740
     13 C          -0.7671    2.7085   20.9391 C.3     1  UNL1        0.2226
     14 C          -2.0681    3.3923   21.2393 C.3     1  UNL1        0.1202
     15 N          -3.1121    3.5207   20.1700 N.3     1  UNL1       -0.2653
     16 C          -2.7163    3.9205   18.7795 C.3     1  UNL1        0.1047
     17 C          -3.7603    4.0489   17.7102 C.3     1  UNL1        0.1595
     18 O          -5.2002    3.7776   18.0314 O.3     1  UNL1       -0.3508
     19 C          -5.5960    3.3778   19.4219 C.3     1  UNL1        0.1595
     20 C          -4.5519    3.2494   20.4912 C.3     1  UNL1        0.1047
@<TRIPOS>BOND
     1     7     8   ar
     2     8     9   ar
     3     9     1    1
     4     1     2   ar
     5     2     3   ar
     6     3     4   ar
     7     4    12    1
     8    12    13    1
     9    13    14    1
    10    14    15    1
    11    15    16    1
    12    16    17    1
    13    17    18    1
    14    18    19    1
    15    19    20    1
    16     4     5   ar
    17     5     6   ar
    18     9    10   ar
    19    10    11   ar
    20    11     7   ar
    21     6     1   ar
    22    20    15    1
@<TRIPOS>MOLECULE
*****
 20 22 0 0 0
SMALL
GASTEIGER

@<TRIPOS>ATOM
      1 C           3.1255   -0.5109   18.9768 C.ar    1  UNL1        0.0657
      2 C           2.5266   -0.9717   20.2725 C.ar    1  UNL1        0.0207
      3 C           1.2525   -0.3564   20.7706 C.ar    1  UNL1        0.0384
      4 C           0.5774    0.7197   19.9730 C.ar    1  UNL1        0.1387
      5 C           1.1762    1.1805   18.6773 C.ar    1  UNL1        0.0384
      6 C           2.4503    0.5652   18.1791 C.ar    1  UNL1        0.0207
      7 C           6.2221   -2.6881   18.1184 C.ar    1  UNL1        0.1196
      8 C           4.9250   -2.4830   18.8433 C.ar    1  UNL1        0.1022
      9 N           4.3996   -1.1262   18.4786 N.ar    1  UNL1       -0.2864
     10 C           5.3719   -0.4927   17.5282 C.ar    1  UNL1        0.1828
     11 N           6.4983   -1.4580   17.3056 N.ar    1  UNL1       -0.2220
     12 O          -0.6968    1.3349   20.4712 O.3     1  UNL1       -0.4740
     13 C          -0.9851    2.7825   20.2042 C.3     1  UNL1        0.2226
     14 C          -2.3876    3.3018   20.3203 C.3     1  UNL1        0.1202
     15 N          -3.0594    3.3545   21.6604 N.3     1  UNL1       -0.2653
     16 C          -2.2516    3.6294   22.8940 C.3     1  UNL1        0.1047
     17 C          -2.9233    3.6822   24.2341 C.3     1  UNL1        0.1595
     18 O          -4.4030    3.4599   24.3406 O.3     1  UNL1       -0.3508
     19 C          -5.2108    3.1850   23.1070 C.3     1  UNL1        0.1595
     20 C          -4.5390    3.1323   21.7668 C.3     1  UNL1        0.1047
@<TRIPOS>BOND
     1     7     8   ar
     2     8     9   ar
     3     9     1    1
     4     1     2   ar
     5     2     3   ar
     6     3     4   ar
     7     4    12    1
     8    12    13    1
     9    13    14    1
    10    14    15    1
    11    15    16    1
    12    16    17    1
    13    17    18    1
    14    18    19    1
    15    19    20    1
    16     4     5   ar
    17     5     6   ar
    18     9    10   ar
    19    10    11   ar
    20    11     7   ar
    21     6     1   ar
    22    20    15    1
