@<TRIPOS>MOLECULE
*****
 34 36 0 0 0
SMALL
GASTEIGER

@<TRIPOS>ATOM
      1 C          -6.5049  -20.3728   20.2920 C.ar    1  UNL1        0.0339
      2 C          -7.2467  -19.3304   21.0752 C.ar    1  UNL1        0.0377
      3 C          -8.6369  -19.2353   20.5196 C.ar    1  UNL1        0.0589
      4 N          -8.7541  -20.2187   19.3930 N.ar    1  UNL1       -0.3310
      5 C          -7.4365  -20.9217   19.2524 C.ar    1  UNL1        0.0364
      6 C          -7.5538  -21.9052   18.1258 C.3     1  UNL1        0.0456
      7 C          -8.9438  -21.8100   17.5703 C.3     1  UNL1        0.0307
      8 C          -9.6857  -20.7677   18.3534 C.3     1  UNL1        0.1061
      9 C          -9.7196  -18.3177   21.0052 C.ar    1  UNL1        0.0165
     10 C         -10.0442  -18.2491   22.4681 C.ar    1  UNL1        0.0023
     11 C         -11.1269  -17.3315   22.9538 C.ar    1  UNL1        0.0123
     12 C         -11.8850  -16.4827   21.9766 C.ar    1  UNL1        0.0682
     13 CL        -12.9677  -15.5651   22.4623 Cl      1  UNL1       -0.0814
     14 C         -11.5603  -16.5514   20.5138 C.ar    1  UNL1        0.0682
     15 CL        -12.3184  -15.7025   19.5366 Cl      1  UNL1       -0.0814
     16 C         -10.4776  -17.4689   20.0281 C.ar    1  UNL1        0.0137
     17 C          -5.0814  -20.7924   20.5101 C.3     1  UNL1        0.2377
     18 O          -3.9876  -20.1975   19.6736 O.3     1  UNL1       -0.4297
     19 N          -2.8610  -17.8857   20.0428 N.am    1  UNL1       -0.2723
     20 C          -2.9230  -19.3591   20.3169 C.2     1  UNL1        0.4019
     21 O          -1.9205  -19.9942   21.2343 O.2     1  UNL1       -0.2264
     22 H          -3.5190  -17.4689   19.4407 H       1  UNL1        0.1527
     23 C          -2.1329  -16.1825   21.8645 C.3     1  UNL1        0.0214
     24 C          -1.7965  -17.0473   20.6860 C.3     1  UNL1        0.0749
     25 C          -0.3955  -17.0738   20.1507 C.3     1  UNL1        0.0214
     26 C          -6.6954  -18.5248   22.2139 C.3     1  UNL1        0.2380
     27 O          -6.8639  -17.0344   22.2290 O.3     1  UNL1       -0.4296
     28 C          -6.6265  -16.2655   23.4950 C.2     1  UNL1        0.4019
     29 O          -5.5267  -15.2476   23.5591 O.2     1  UNL1       -0.2264
     30 N          -7.4890  -16.5145   24.6967 N.am    1  UNL1       -0.2723
     31 H          -8.2109  -17.1826   24.6546 H       1  UNL1        0.1527
     32 C          -7.2516  -15.7456   25.9625 C.3     1  UNL1        0.0749
     33 C          -5.8512  -15.4253   26.3941 C.3     1  UNL1        0.0214
     34 C          -8.4147  -15.2969   26.7968 C.3     1  UNL1        0.0214
@<TRIPOS>BOND
     1    23    24    1
     2    24    25    1
     3    24    19    1
     4    19    20   am
     5    20    21    2
     6    20    18    1
     7    18    17    1
     8    17     1    1
     9     1     2   ar
    10     2    26    1
    11    26    27    1
    12    27    28    1
    13    28    29    2
    14    28    30   am
    15    30    32    1
    16    32    33    1
    17    32    34    1
    18     2     3   ar
    19     3     9    1
    20     9    10   ar
    21    10    11   ar
    22    11    12   ar
    23    12    13    1
    24    12    14   ar
    25    14    15    1
    26    14    16   ar
    27     3     4   ar
    28     4     5   ar
    29     5     6    1
    30     6     7    1
    31     7     8    1
    32     5     1   ar
    33    16     9   ar
    34     8     4    1
    35    19    22    1
    36    30    31    1
@<TRIPOS>MOLECULE
*****
 34 36 0 0 0
SMALL
GASTEIGER

@<TRIPOS>ATOM
      1 C          -8.3029  -15.7109   24.2722 C.ar    1  UNL1        0.0339
      2 C          -7.3333  -16.1226   23.2042 C.ar    1  UNL1        0.0377
      3 C          -5.9840  -16.2824   23.8399 C.ar    1  UNL1        0.0589
      4 N          -6.1198  -15.9696   25.3006 N.ar    1  UNL1       -0.3310
      5 C          -7.5529  -15.6163   25.5678 C.ar    1  UNL1        0.0364
      6 C          -7.6887  -15.3034   27.0285 C.3     1  UNL1        0.0456
      7 C          -6.3395  -15.4633   27.6641 C.3     1  UNL1        0.0307
      8 C          -5.3698  -15.8750   26.5963 C.3     1  UNL1        0.1061
      9 C          -4.7208  -16.6846   23.1381 C.ar    1  UNL1        0.0165
     10 C          -3.7124  -15.6429   22.7532 C.ar    1  UNL1        0.0023
     11 C          -2.4492  -16.0450   22.0514 C.ar    1  UNL1        0.0123
     12 C          -2.1944  -17.4889   21.7344 C.ar    1  UNL1        0.0682
     13 CL         -0.9311  -17.8910   21.0326 Cl      1  UNL1       -0.0814
     14 C          -3.2027  -18.5305   22.1193 C.ar    1  UNL1        0.0682
     15 CL         -2.9479  -19.9744   21.8024 Cl      1  UNL1       -0.0814
     16 C          -4.4659  -18.1284   22.8212 C.ar    1  UNL1        0.0137
     17 C          -9.7656  -15.4411   24.0784 C.3     1  UNL1        0.2377
     18 O         -10.7227  -16.5834   23.9074 O.3     1  UNL1       -0.4297
     19 N         -10.6435  -16.5354   21.3110 N.am    1  UNL1       -0.2723
     20 C         -11.3888  -16.8121   22.5830 C.2     1  UNL1        0.4019
     21 O         -12.8001  -17.3174   22.5306 O.2     1  UNL1       -0.2264
     22 H          -9.7172  -16.2037   21.3454 H       1  UNL1        0.1527
     23 C         -11.9225  -15.6122   19.2466 C.3     1  UNL1        0.0214
     24 C         -11.3095  -16.7640   19.9866 C.3     1  UNL1        0.0749
     25 C         -11.3625  -18.1445   19.4022 C.3     1  UNL1        0.0214
     26 C          -7.6561  -16.3368   21.7552 C.3     1  UNL1        0.2380
     27 O          -7.4170  -17.6761   21.1236 O.3     1  UNL1       -0.4296
     28 C          -8.3036  -18.8364   21.4669 C.2     1  UNL1        0.4019
     29 O          -8.6081  -19.8792   20.4326 O.2     1  UNL1       -0.2264
     30 N          -8.8857  -18.9538   22.8443 N.am    1  UNL1       -0.2723
     31 H          -8.6859  -18.2693   23.5231 H       1  UNL1        0.1527
     32 C          -9.7722  -20.1140   23.1875 C.3     1  UNL1        0.0749
     33 C         -11.0007  -20.3864   22.3711 C.3     1  UNL1        0.0214
     34 C          -9.4303  -21.0019   24.3471 C.3     1  UNL1        0.0214
@<TRIPOS>BOND
     1    23    24    1
     2    24    25    1
     3    24    19    1
     4    19    20   am
     5    20    21    2
     6    20    18    1
     7    18    17    1
     8    17     1    1
     9     1     2   ar
    10     2    26    1
    11    26    27    1
    12    27    28    1
    13    28    29    2
    14    28    30   am
    15    30    32    1
    16    32    33    1
    17    32    34    1
    18     2     3   ar
    19     3     9    1
    20     9    10   ar
    21    10    11   ar
    22    11    12   ar
    23    12    13    1
    24    12    14   ar
    25    14    15    1
    26    14    16   ar
    27     3     4   ar
    28     4     5   ar
    29     5     6    1
    30     6     7    1
    31     7     8    1
    32     5     1   ar
    33    16     9   ar
    34     8     4    1
    35    19    22    1
    36    30    31    1
@<TRIPOS>MOLECULE
*****
 34 36 0 0 0
SMALL
GASTEIGER

@<TRIPOS>ATOM
      1 C          -8.5575  -15.8964   24.3893 C.ar    1  UNL1        0.0339
      2 C          -7.5352  -16.2273   23.3425 C.ar    1  UNL1        0.0377
      3 C          -6.1865  -16.2380   23.9989 C.ar    1  UNL1        0.0589
      4 N          -6.3752  -15.9137   25.4513 N.ar    1  UNL1       -0.3310
      5 C          -7.8405  -15.7026   25.6925 C.ar    1  UNL1        0.0364
      6 C          -8.0292  -15.3784   27.1448 C.3     1  UNL1        0.0456
      7 C          -6.6804  -15.3891   27.8012 C.3     1  UNL1        0.0307
      8 C          -5.6582  -15.7200   26.7545 C.3     1  UNL1        0.1061
      9 C          -4.8787  -16.5229   23.3218 C.ar    1  UNL1        0.0165
     10 C          -4.0513  -15.3936   22.7831 C.ar    1  UNL1        0.0023
     11 C          -2.7435  -15.6785   22.1060 C.ar    1  UNL1        0.0123
     12 C          -2.2631  -17.0928   21.9676 C.ar    1  UNL1        0.0682
     13 CL         -0.9553  -17.3778   21.2905 Cl      1  UNL1       -0.0814
     14 C          -3.0904  -18.2221   22.5063 C.ar    1  UNL1        0.0682
     15 CL         -2.6100  -19.6364   22.3679 Cl      1  UNL1       -0.0814
     16 C          -4.3982  -17.9371   23.1834 C.ar    1  UNL1        0.0137
     17 C         -10.0369  -15.7798   24.1710 C.3     1  UNL1        0.2377
     18 O         -10.8564  -17.0097   23.9147 O.3     1  UNL1       -0.4297
     19 N         -10.7373  -16.7231   21.3352 N.am    1  UNL1       -0.2723
     20 C         -11.4337  -17.2558   22.5522 C.2     1  UNL1        0.4019
     21 O         -12.7073  -18.0348   22.4069 O.2     1  UNL1       -0.2264
     22 H          -9.9013  -16.2119   21.4306 H       1  UNL1        0.1527
     23 C         -11.1900  -18.3230   19.3389 C.3     1  UNL1        0.0214
     24 C         -11.3145  -16.9692   19.9728 C.3     1  UNL1        0.0749
     25 C         -12.0162  -15.8616   19.2443 C.3     1  UNL1        0.0214
     26 C          -7.8130  -16.4996   21.8939 C.3     1  UNL1        0.2380
     27 O          -8.1005  -17.8986   21.4355 O.3     1  UNL1       -0.4296
     28 C          -6.9694  -18.8324   21.1214 C.2     1  UNL1        0.4019
     29 O          -6.7905  -20.0891   21.9206 O.2     1  UNL1       -0.2264
     30 N          -6.0172  -18.5096   20.0082 N.am    1  UNL1       -0.2723
     31 H          -6.1346  -17.6848   19.4837 H       1  UNL1        0.1527
     32 C          -4.8862  -19.4434   19.6942 C.3     1  UNL1        0.0749
     33 C          -3.6052  -18.9062   19.1281 C.3     1  UNL1        0.0214
     34 C          -5.0361  -20.9145   19.9463 C.3     1  UNL1        0.0214
@<TRIPOS>BOND
     1    23    24    1
     2    24    25    1
     3    24    19    1
     4    19    20   am
     5    20    21    2
     6    20    18    1
     7    18    17    1
     8    17     1    1
     9     1     2   ar
    10     2    26    1
    11    26    27    1
    12    27    28    1
    13    28    29    2
    14    28    30   am
    15    30    32    1
    16    32    33    1
    17    32    34    1
    18     2     3   ar
    19     3     9    1
    20     9    10   ar
    21    10    11   ar
    22    11    12   ar
    23    12    13    1
    24    12    14   ar
    25    14    15    1
    26    14    16   ar
    27     3     4   ar
    28     4     5   ar
    29     5     6    1
    30     6     7    1
    31     7     8    1
    32     5     1   ar
    33    16     9   ar
    34     8     4    1
    35    19    22    1
    36    30    31    1
@<TRIPOS>MOLECULE
*****
 34 36 0 0 0
SMALL
GASTEIGER

@<TRIPOS>ATOM
      1 C          -8.6133  -15.5730   24.4411 C.ar    1  UNL1        0.0339
      2 C          -7.5988  -15.8948   23.3841 C.ar    1  UNL1        0.0377
      3 C          -6.2718  -16.0839   24.0576 C.ar    1  UNL1        0.0589
      4 N          -6.4663  -15.8789   25.5308 N.ar    1  UNL1       -0.3310
      5 C          -7.9134  -15.5632   25.7678 C.ar    1  UNL1        0.0364
      6 C          -8.1079  -15.3582   27.2409 C.3     1  UNL1        0.0456
      7 C          -6.7810  -15.5472   27.9143 C.3     1  UNL1        0.0307
      8 C          -5.7664  -15.8691   26.8574 C.3     1  UNL1        0.1061
      9 C          -4.9777  -16.4191   23.3773 C.ar    1  UNL1        0.0165
     10 C          -4.1148  -15.3233   22.8252 C.ar    1  UNL1        0.0023
     11 C          -2.8206  -15.6585   22.1449 C.ar    1  UNL1        0.0123
     12 C          -2.3893  -17.0895   22.0168 C.ar    1  UNL1        0.0682
     13 CL         -1.0952  -17.4247   21.3365 Cl      1  UNL1       -0.0814
     14 C          -3.2522  -18.1852   22.5689 C.ar    1  UNL1        0.0682
     15 CL         -2.8209  -19.6162   22.4408 Cl      1  UNL1       -0.0814
     16 C          -4.5464  -17.8500   23.2492 C.ar    1  UNL1        0.0137
     17 C         -10.0717  -15.3076   24.2117 C.3     1  UNL1        0.2377
     18 O         -10.7900  -15.9897   23.0853 O.3     1  UNL1       -0.4297
     19 N         -10.0488  -18.4770   23.2061 N.am    1  UNL1       -0.2723
     20 C         -11.1375  -17.4452   23.1895 C.2     1  UNL1        0.4019
     21 O         -12.5738  -17.8690   23.2771 O.2     1  UNL1       -0.2264
     22 H          -9.1062  -18.1989   23.1486 H       1  UNL1        0.1527
     23 C         -11.0730  -20.6258   22.1652 C.3     1  UNL1        0.0214
     24 C         -10.3963  -19.9324   23.3103 C.3     1  UNL1        0.0749
     25 C         -10.0671  -20.6944   24.5596 C.3     1  UNL1        0.0214
     26 C          -7.8645  -16.0078   21.9123 C.3     1  UNL1        0.2380
     27 O          -8.2865  -17.3219   21.3250 O.3     1  UNL1       -0.4296
     28 C          -7.2984  -18.4448   21.2119 C.2     1  UNL1        0.4019
     29 O          -7.2105  -19.4784   22.2954 O.2     1  UNL1       -0.2264
     30 N          -6.3982  -18.5342   20.0153 N.am    1  UNL1       -0.2723
     31 H          -6.4560  -17.8559   19.3042 H       1  UNL1        0.1527
     32 C          -5.4102  -19.6571   19.9023 C.3     1  UNL1        0.0749
     33 C          -4.0095  -19.3801   19.4427 C.3     1  UNL1        0.0214
     34 C          -5.8229  -21.0570   20.2489 C.3     1  UNL1        0.0214
@<TRIPOS>BOND
     1    23    24    1
     2    24    25    1
     3    24    19    1
     4    19    20   am
     5    20    21    2
     6    20    18    1
     7    18    17    1
     8    17     1    1
     9     1     2   ar
    10     2    26    1
    11    26    27    1
    12    27    28    1
    13    28    29    2
    14    28    30   am
    15    30    32    1
    16    32    33    1
    17    32    34    1
    18     2     3   ar
    19     3     9    1
    20     9    10   ar
    21    10    11   ar
    22    11    12   ar
    23    12    13    1
    24    12    14   ar
    25    14    15    1
    26    14    16   ar
    27     3     4   ar
    28     4     5   ar
    29     5     6    1
    30     6     7    1
    31     7     8    1
    32     5     1   ar
    33    16     9   ar
    34     8     4    1
    35    19    22    1
    36    30    31    1
@<TRIPOS>MOLECULE
*****
 34 36 0 0 0
SMALL
GASTEIGER

@<TRIPOS>ATOM
      1 C           3.6943   -0.0865   25.6495 C.ar    1  UNL1        0.0339
      2 C           3.9237   -0.6506   24.2786 C.ar    1  UNL1        0.0377
      3 C           3.3202    0.2940   23.2818 C.ar    1  UNL1        0.0589
      4 N           2.7179    1.4418   24.0365 N.ar    1  UNL1       -0.3310
      5 C           2.9491    1.2067   25.4999 C.ar    1  UNL1        0.0364
      6 C           2.3468    2.3545   26.2547 C.3     1  UNL1        0.0456
      7 C           1.7434    3.2990   25.2578 C.3     1  UNL1        0.0307
      8 C           1.9727    2.7350   23.8869 C.3     1  UNL1        0.1061
      9 C           3.3193    0.1211   21.7918 C.ar    1  UNL1        0.0165
     10 C           2.1005   -0.4132   21.0995 C.ar    1  UNL1        0.0023
     11 C           2.0996   -0.5861   19.6095 C.ar    1  UNL1        0.0123
     12 C           3.3174   -0.2247   18.8117 C.ar    1  UNL1        0.0682
     13 CL          3.3165   -0.3976   17.3217 Cl      1  UNL1       -0.0814
     14 C           4.5361    0.3095   19.5040 C.ar    1  UNL1        0.0682
     15 CL          5.7540    0.6709   18.7063 Cl      1  UNL1       -0.0814
     16 C           4.5371    0.4824   20.9940 C.ar    1  UNL1        0.0137
     17 C           4.1330   -0.7067   26.9428 C.3     1  UNL1        0.2377
     18 O           3.1597   -1.5021   27.7613 O.3     1  UNL1       -0.4297
     19 N           0.8827   -0.2717   27.9881 N.am    1  UNL1       -0.2723
     20 C           2.1422   -0.7985   28.6096 C.2     1  UNL1        0.4019
     21 O           2.3841   -0.6217   30.0794 O.2     1  UNL1       -0.2264
     22 H           0.7240   -0.3877   27.0235 H       1  UNL1        0.1527
     23 C          -1.4582   -0.2173   29.1136 C.3     1  UNL1        0.0214
     24 C          -0.1348    0.4320   28.8363 C.3     1  UNL1        0.0749
     25 C           0.1712    1.7849   29.4073 C.3     1  UNL1        0.0214
     26 C           4.6321   -1.9339   23.9605 C.3     1  UNL1        0.2380
     27 O           3.9663   -2.9640   23.0970 O.3     1  UNL1       -0.4296
     28 C           4.6805   -3.5119   21.8971 C.2     1  UNL1        0.4019
     29 O           5.9455   -4.2988   22.0718 O.2     1  UNL1       -0.2264
     30 N           4.1297   -3.2731   20.5225 N.am    1  UNL1       -0.2723
     31 H           3.2994   -2.7566   20.4078 H       1  UNL1        0.1527
     32 C           4.8438   -3.8210   19.3227 C.3     1  UNL1        0.0749
     33 C           4.5381   -5.2065   18.8358 C.3     1  UNL1        0.0214
     34 C           5.8638   -2.9835   18.6096 C.3     1  UNL1        0.0214
@<TRIPOS>BOND
     1    23    24    1
     2    24    25    1
     3    24    19    1
     4    19    20   am
     5    20    21    2
     6    20    18    1
     7    18    17    1
     8    17     1    1
     9     1     2   ar
    10     2    26    1
    11    26    27    1
    12    27    28    1
    13    28    29    2
    14    28    30   am
    15    30    32    1
    16    32    33    1
    17    32    34    1
    18     2     3   ar
    19     3     9    1
    20     9    10   ar
    21    10    11   ar
    22    11    12   ar
    23    12    13    1
    24    12    14   ar
    25    14    15    1
    26    14    16   ar
    27     3     4   ar
    28     4     5   ar
    29     5     6    1
    30     6     7    1
    31     7     8    1
    32     5     1   ar
    33    16     9   ar
    34     8     4    1
    35    19    22    1
    36    30    31    1
@<TRIPOS>MOLECULE
*****
 34 36 0 0 0
SMALL
GASTEIGER

@<TRIPOS>ATOM
      1 C           4.6809   -1.4655   26.3419 C.ar    1  UNL1        0.0339
      2 C           4.3791   -1.3490   24.8771 C.ar    1  UNL1        0.0377
      3 C           5.2494   -2.3274   24.1453 C.ar    1  UNL1        0.0589
      4 N           6.0889   -3.0485   25.1578 N.ar    1  UNL1       -0.3310
      5 C           5.7376   -2.5158   26.5153 C.ar    1  UNL1        0.0364
      6 C           6.5772   -3.2370   27.5278 C.3     1  UNL1        0.0456
      7 C           7.4474   -4.2153   26.7960 C.3     1  UNL1        0.0307
      8 C           7.1457   -4.0988   25.3312 C.3     1  UNL1        0.1061
      9 C           5.2754   -2.5462   22.6616 C.ar    1  UNL1        0.0165
     10 C           6.1297   -1.6742   21.7898 C.ar    1  UNL1        0.0023
     11 C           6.1558   -1.8930   20.3061 C.ar    1  UNL1        0.0123
     12 C           5.3276   -2.9837   19.6942 C.ar    1  UNL1        0.0682
     13 CL          5.3536   -3.2025   18.2104 Cl      1  UNL1       -0.0814
     14 C           4.4733   -3.8556   20.5659 C.ar    1  UNL1        0.0682
     15 CL          3.6451   -4.9464   19.9540 Cl      1  UNL1       -0.0814
     16 C           4.4473   -3.6368   22.0497 C.ar    1  UNL1        0.0137
     17 C           4.0387   -0.6711   27.4403 C.3     1  UNL1        0.2377
     18 O           3.0333   -1.3192   28.3454 O.3     1  UNL1       -0.4297
     19 N           0.8253   -0.0725   27.7795 N.am    1  UNL1       -0.2723
     20 C           1.8224   -0.5543   28.7911 C.2     1  UNL1        0.4019
     21 O           1.6087   -0.2713   30.2486 O.2     1  UNL1       -0.2264
     22 H           0.9656   -0.2582   26.8229 H       1  UNL1        0.1527
     23 C          -0.5010    2.1570   27.9223 C.3     1  UNL1        0.0214
     24 C          -0.3856    0.6924   28.2252 C.3     1  UNL1        0.0749
     25 C          -1.4810   -0.0073   28.9738 C.3     1  UNL1        0.0214
     26 C           3.3822   -0.4177   24.2537 C.3     1  UNL1        0.2380
     27 O           3.8467    0.6700   23.3311 O.3     1  UNL1       -0.4296
     28 C           3.1961    0.8455   21.9909 C.2     1  UNL1        0.4019
     29 O           2.8874    2.2222   21.4818 O.2     1  UNL1       -0.2264
     30 N           2.8543   -0.3556   21.1600 N.am    1  UNL1       -0.2723
     31 H           3.0570   -1.2592   21.4942 H       1  UNL1        0.1527
     32 C           2.2038   -0.1800   19.8199 C.3     1  UNL1        0.0749
     33 C           0.7317    0.0937   19.7310 C.3     1  UNL1        0.0214
     34 C           3.0253   -0.2782   18.5687 C.3     1  UNL1        0.0214
@<TRIPOS>BOND
     1    23    24    1
     2    24    25    1
     3    24    19    1
     4    19    20   am
     5    20    21    2
     6    20    18    1
     7    18    17    1
     8    17     1    1
     9     1     2   ar
    10     2    26    1
    11    26    27    1
    12    27    28    1
    13    28    29    2
    14    28    30   am
    15    30    32    1
    16    32    33    1
    17    32    34    1
    18     2     3   ar
    19     3     9    1
    20     9    10   ar
    21    10    11   ar
    22    11    12   ar
    23    12    13    1
    24    12    14   ar
    25    14    15    1
    26    14    16   ar
    27     3     4   ar
    28     4     5   ar
    29     5     6    1
    30     6     7    1
    31     7     8    1
    32     5     1   ar
    33    16     9   ar
    34     8     4    1
    35    19    22    1
    36    30    31    1
@<TRIPOS>MOLECULE
*****
 34 36 0 0 0
SMALL
GASTEIGER

@<TRIPOS>ATOM
      1 C           2.9016    2.0599   34.3520 C.ar    1  UNL1        0.0339
      2 C           2.7243    1.4860   32.9774 C.ar    1  UNL1        0.0377
      3 C           1.7636    2.3624   32.2297 C.ar    1  UNL1        0.0589
      4 N           1.3471    3.4777   33.1421 N.ar    1  UNL1       -0.3310
      5 C           2.0505    3.2908   34.4537 C.ar    1  UNL1        0.0364
      6 C           1.6340    4.4062   35.3661 C.3     1  UNL1        0.0456
      7 C           0.6733    5.2825   34.6184 C.3     1  UNL1        0.0307
      8 C           0.4960    4.7087   33.2438 C.3     1  UNL1        0.1061
      9 C           1.3006    2.1590   30.8175 C.ar    1  UNL1        0.0165
     10 C           2.0817    2.7473   29.6800 C.ar    1  UNL1        0.0023
     11 C           1.6188    2.5439   28.2678 C.ar    1  UNL1        0.0123
     12 C           0.3746    1.7522   27.9931 C.ar    1  UNL1        0.0682
     13 CL         -0.0884    1.5488   26.5809 Cl      1  UNL1       -0.0814
     14 C          -0.4065    1.1639   29.1305 C.ar    1  UNL1        0.0682
     15 CL         -1.6506    0.3722   28.8558 Cl      1  UNL1       -0.0814
     16 C           0.0565    1.3673   30.5427 C.ar    1  UNL1        0.0137
     17 C           3.7764    1.5009   35.4346 C.3     1  UNL1        0.2377
     18 O           4.0327    2.2988   36.6786 O.3     1  UNL1       -0.4297
     19 N           1.8807    1.5877   37.9488 N.am    1  UNL1       -0.2723
     20 C           3.3396    1.9360   37.9586 C.2     1  UNL1        0.4019
     21 O           4.1056    1.9215   39.2482 O.2     1  UNL1       -0.2264
     22 H           1.3780    1.5972   37.1024 H       1  UNL1        0.1527
     23 C           0.5401    2.2926   40.0597 C.3     1  UNL1        0.0214
     24 C           1.1876    1.2249   39.2286 C.3     1  UNL1        0.0749
     25 C           1.1421   -0.2057   39.6773 C.3     1  UNL1        0.0214
     26 C           3.3907    0.2525   32.4443 C.3     1  UNL1        0.2380
     27 O           2.6649   -0.6326   31.4749 O.3     1  UNL1       -0.4296
     28 C           3.1936   -0.8124   30.0827 C.2     1  UNL1        0.4019
     29 O           2.2426   -0.9932   28.9369 O.2     1  UNL1       -0.2264
     30 N           4.6732   -0.8115   29.8362 N.am    1  UNL1       -0.2723
     31 H           5.2974   -0.6929   30.5883 H       1  UNL1        0.1527
     32 C           5.2018   -0.9914   28.4441 C.3     1  UNL1        0.0749
     33 C           5.2754    0.1819   27.5124 C.3     1  UNL1        0.0214
     34 C           5.6568   -2.3445   27.9836 C.3     1  UNL1        0.0214
@<TRIPOS>BOND
     1    23    24    1
     2    24    25    1
     3    24    19    1
     4    19    20   am
     5    20    21    2
     6    20    18    1
     7    18    17    1
     8    17     1    1
     9     1     2   ar
    10     2    26    1
    11    26    27    1
    12    27    28    1
    13    28    29    2
    14    28    30   am
    15    30    32    1
    16    32    33    1
    17    32    34    1
    18     2     3   ar
    19     3     9    1
    20     9    10   ar
    21    10    11   ar
    22    11    12   ar
    23    12    13    1
    24    12    14   ar
    25    14    15    1
    26    14    16   ar
    27     3     4   ar
    28     4     5   ar
    29     5     6    1
    30     6     7    1
    31     7     8    1
    32     5     1   ar
    33    16     9   ar
    34     8     4    1
    35    19    22    1
    36    30    31    1
@<TRIPOS>MOLECULE
*****
 34 36 0 0 0
SMALL
GASTEIGER

@<TRIPOS>ATOM
      1 C           6.5321   -3.1477   28.4869 C.ar    1  UNL1        0.0339
      2 C           5.9467   -2.2245   29.5141 C.ar    1  UNL1        0.0377
      3 C           6.3222   -2.7429   30.8708 C.ar    1  UNL1        0.0589
      4 N           7.1396   -3.9864   30.6819 N.ar    1  UNL1       -0.3310
      5 C           7.2693   -4.2366   29.2086 C.ar    1  UNL1        0.0364
      6 C           8.0867   -5.4800   29.0198 C.3     1  UNL1        0.0456
      7 C           8.4621   -5.9984   30.3764 C.3     1  UNL1        0.0307
      8 C           7.8768   -5.0753   31.4037 C.3     1  UNL1        0.1061
      9 C           5.9463   -2.1261   32.1854 C.ar    1  UNL1        0.0165
     10 C           4.5908   -2.3834   32.7743 C.ar    1  UNL1        0.0023
     11 C           4.2149   -1.7666   34.0889 C.ar    1  UNL1        0.0123
     12 C           5.1944   -0.8925   34.8146 C.ar    1  UNL1        0.0682
     13 CL          4.8184   -0.2757   36.1292 Cl      1  UNL1       -0.0814
     14 C           6.5497   -0.6352   34.2257 C.ar    1  UNL1        0.0682
     15 CL          7.5292    0.2389   34.9515 Cl      1  UNL1       -0.0814
     16 C           6.9257   -1.2521   32.9111 C.ar    1  UNL1        0.0137
     17 C           6.4030   -3.0067   26.9992 C.3     1  UNL1        0.2377
     18 O           6.4550   -4.2232   26.1232 O.3     1  UNL1       -0.4297
     19 N           5.3385   -3.2842   23.9733 N.am    1  UNL1       -0.2723
     20 C           6.4309   -4.0744   24.6307 C.2     1  UNL1        0.4019
     21 O           7.4992   -4.7158   23.7957 O.2     1  UNL1       -0.2264
     22 H           4.6373   -2.8632   24.5214 H       1  UNL1        0.1527
     23 C           4.4514   -4.0389   21.6510 C.3     1  UNL1        0.0214
     24 C           5.3143   -3.1354   22.4810 C.3     1  UNL1        0.0749
     25 C           6.1532   -2.0830   21.8186 C.3     1  UNL1        0.0214
     26 C           5.1295   -0.9984   29.2340 C.3     1  UNL1        0.2380
     27 O           3.8450   -1.1121   28.4678 O.3     1  UNL1       -0.4296
     28 C           2.5565   -0.6665   29.0933 C.2     1  UNL1        0.4019
     29 O           2.3948   -0.7024   30.5841 O.2     1  UNL1       -0.2264
     30 N           1.4298   -0.1849   28.2281 N.am    1  UNL1       -0.2723
     31 H           1.5359   -0.1614   27.2496 H       1  UNL1        0.1527
     32 C           0.1414    0.2607   28.8536 C.3     1  UNL1        0.0749
     33 C          -1.0692   -0.6226   28.7878 C.3     1  UNL1        0.0214
     34 C           0.0635    1.5896   29.5450 C.3     1  UNL1        0.0214
@<TRIPOS>BOND
     1    23    24    1
     2    24    25    1
     3    24    19    1
     4    19    20   am
     5    20    21    2
     6    20    18    1
     7    18    17    1
     8    17     1    1
     9     1     2   ar
    10     2    26    1
    11    26    27    1
    12    27    28    1
    13    28    29    2
    14    28    30   am
    15    30    32    1
    16    32    33    1
    17    32    34    1
    18     2     3   ar
    19     3     9    1
    20     9    10   ar
    21    10    11   ar
    22    11    12   ar
    23    12    13    1
    24    12    14   ar
    25    14    15    1
    26    14    16   ar
    27     3     4   ar
    28     4     5   ar
    29     5     6    1
    30     6     7    1
    31     7     8    1
    32     5     1   ar
    33    16     9   ar
    34     8     4    1
    35    19    22    1
    36    30    31    1
@<TRIPOS>MOLECULE
*****
 34 36 0 0 0
SMALL
GASTEIGER

@<TRIPOS>ATOM
      1 C           6.8701   -4.3648   25.8404 C.ar    1  UNL1        0.0339
      2 C           6.2961   -3.5964   24.6871 C.ar    1  UNL1        0.0377
      3 C           6.7506   -4.2558   23.4187 C.ar    1  UNL1        0.0589
      4 N           7.6054   -5.4317   23.7882 N.ar    1  UNL1       -0.3310
      5 C           7.6793   -5.4991   25.2849 C.ar    1  UNL1        0.0364
      6 C           8.5341   -6.6749   25.6544 C.3     1  UNL1        0.0456
      7 C           8.9886   -7.3343   24.3861 C.3     1  UNL1        0.0307
      8 C           8.4146   -6.5660   23.2327 C.3     1  UNL1        0.1061
      9 C           6.4100   -3.8165   22.0255 C.ar    1  UNL1        0.0165
     10 C           7.3798   -2.9798   21.2448 C.ar    1  UNL1        0.0023
     11 C           7.0392   -2.5405   19.8516 C.ar    1  UNL1        0.0123
     12 C           5.7288   -2.9379   19.2392 C.ar    1  UNL1        0.0682
     13 CL          5.3882   -2.4985   17.8460 Cl      1  UNL1       -0.0814
     14 C           4.7591   -3.7745   20.0199 C.ar    1  UNL1        0.0682
     15 CL          3.4486   -4.1719   19.4074 Cl      1  UNL1       -0.0814
     16 C           5.0997   -4.2138   21.4131 C.ar    1  UNL1        0.0137
     17 C           6.6700   -4.0534   27.2940 C.3     1  UNL1        0.2377
     18 O           6.6005   -5.1668   28.2968 O.3     1  UNL1       -0.4297
     19 N           6.7908   -3.4437   30.2320 N.am    1  UNL1       -0.2723
     20 C           6.7262   -4.8664   29.7611 C.2     1  UNL1        0.4019
     21 O           6.7873   -5.9887   30.7544 O.2     1  UNL1       -0.2264
     22 H           6.7507   -2.7071   29.5800 H       1  UNL1        0.1527
     23 C           8.2726   -2.9607   32.3106 C.3     1  UNL1        0.0214
     24 C           6.9165   -3.1432   31.6961 C.3     1  UNL1        0.0749
     25 C           5.6860   -3.0253   32.5459 C.3     1  UNL1        0.0214
     26 C           5.4213   -2.3819   24.7849 C.3     1  UNL1        0.2380
     27 O           5.5278   -1.2960   23.7556 O.3     1  UNL1       -0.4296
     28 C           4.3035   -0.8359   23.0212 C.2     1  UNL1        0.4019
     29 O           2.9865   -0.7565   23.7347 O.2     1  UNL1       -0.2264
     30 N           4.3961   -0.4552   21.5733 N.am    1  UNL1       -0.2723
     31 H           5.2605   -0.5073   21.1049 H       1  UNL1        0.1527
     32 C           3.1719    0.0049   20.8389 C.3     1  UNL1        0.0749
     33 C           2.9119    1.4711   20.6590 C.3     1  UNL1        0.0214
     34 C           2.2074   -1.0014   20.2844 C.3     1  UNL1        0.0214
@<TRIPOS>BOND
     1    23    24    1
     2    24    25    1
     3    24    19    1
     4    19    20   am
     5    20    21    2
     6    20    18    1
     7    18    17    1
     8    17     1    1
     9     1     2   ar
    10     2    26    1
    11    26    27    1
    12    27    28    1
    13    28    29    2
    14    28    30   am
    15    30    32    1
    16    32    33    1
    17    32    34    1
    18     2     3   ar
    19     3     9    1
    20     9    10   ar
    21    10    11   ar
    22    11    12   ar
    23    12    13    1
    24    12    14   ar
    25    14    15    1
    26    14    16   ar
    27     3     4   ar
    28     4     5   ar
    29     5     6    1
    30     6     7    1
    31     7     8    1
    32     5     1   ar
    33    16     9   ar
    34     8     4    1
    35    19    22    1
    36    30    31    1
