@<TRIPOS>MOLECULE
*****
 27 30 0 0 0
SMALL
GASTEIGER

@<TRIPOS>ATOM
      1 C          -9.0982  -17.5779   22.4351 C.3     1  UNL1        0.0070
      2 C         -10.1586  -18.6214   22.6268 C.3     1  UNL1        0.0163
      3 C         -11.5461  -18.3848   22.1083 C.3     1  UNL1        0.0578
      4 C         -12.7349  -17.7453   21.4543 C.3     1  UNL1        0.0173
      5 C         -12.3116  -16.4038   20.9336 C.3     1  UNL1        0.0173
      6 C         -10.8612  -16.2142   21.2658 C.3     1  UNL1        0.0578
      7 C          -9.4254  -16.2978   21.7249 C.3     1  UNL1        0.0163
      8 N         -10.3880  -17.4386   21.9918 N.3     1  UNL1       -0.2716
      9 C          -7.7106  -17.8144   22.9536 C.3     1  UNL1        0.0264
     10 C          -4.2962  -19.3330   21.6175 C.ar    1  UNL1        0.0528
     11 C          -4.7967  -20.2593   20.5492 C.ar    1  UNL1        0.0045
     12 C          -6.2686  -20.3707   20.2824 C.ar    1  UNL1       -0.0002
     13 C          -7.2398  -19.5558   21.0838 C.ar    1  UNL1       -0.0043
     14 C          -6.7393  -18.6294   22.1521 C.ar    1  UNL1       -0.0220
     15 C          -5.2675  -18.5180   22.4190 C.ar    1  UNL1        0.0002
     16 N          -2.2781  -18.0115   22.5825 N.am    1  UNL1       -0.3253
     17 C          -2.8243  -19.2216   21.8843 C.2     1  UNL1        0.2427
     18 O          -1.8986  -20.3203   21.4529 O.2     1  UNL1       -0.2704
     19 H          -1.3121  -17.9384   22.7576 H       1  UNL1        0.1453
     20 H          -2.8856  -17.2904   22.8657 H       1  UNL1        0.1453
     21 C          -9.0005  -17.6751   22.5103 C.3     1  UNL1        0.0991
     22 C          -8.5089  -16.9195   23.7092 C.ar    1  UNL1       -0.0061
     23 C          -7.4901  -15.8311   23.5438 C.ar    1  UNL1       -0.0029
     24 C          -6.9985  -15.0755   24.7426 C.ar    1  UNL1       -0.0003
     25 C          -7.5256  -15.4083   26.1069 C.ar    1  UNL1       -0.0000
     26 C          -8.5444  -16.4968   26.2724 C.ar    1  UNL1       -0.0003
     27 C          -9.0360  -17.2524   25.0734 C.ar    1  UNL1       -0.0029
@<TRIPOS>BOND
     1    16    17   am
     2    17    18    2
     3    17    10    1
     4    10    11   ar
     5    11    12   ar
     6    12    13   ar
     7    13    14   ar
     8    14     9    1
     9     1     9    1
    10     1     2    1
    11     3     2    1
    12     3     4    1
    13     4     5    1
    14     6     5    1
    15     6     7    1
    16     6     8    1
    17     8    21    1
    18    21    22    1
    19    22    23   ar
    20    23    24   ar
    21    24    25   ar
    22    25    26   ar
    23    26    27   ar
    24    14    15   ar
    25    15    10   ar
    26     7     1    1
    27    27    22   ar
    28     8     3    1
    29    16    19    1
    30    16    20    1
@<TRIPOS>MOLECULE
*****
 27 30 0 0 0
SMALL
GASTEIGER

@<TRIPOS>ATOM
      1 C          -9.0298  -17.2513   24.1435 C.3     1  UNL1        0.0070
      2 C          -8.2473  -15.9716   24.1535 C.3     1  UNL1        0.0163
      3 C          -7.8013  -15.3755   25.4557 C.3     1  UNL1        0.0578
      4 C          -7.5768  -15.1587   26.9228 C.3     1  UNL1        0.0173
      5 C          -8.2228  -16.2922   27.6630 C.3     1  UNL1        0.0173
      6 C          -8.8466  -17.2094   26.6533 C.3     1  UNL1        0.0578
      7 C          -9.3663  -17.9348   25.4356 C.3     1  UNL1        0.0163
      8 N          -8.5861  -16.6429   25.2891 N.3     1  UNL1       -0.2716
      9 C          -9.4758  -17.8475   22.8412 C.3     1  UNL1        0.0264
     10 C          -6.0389  -19.2549   21.4426 C.ar    1  UNL1        0.0528
     11 C          -6.4726  -19.7888   20.1096 C.ar    1  UNL1        0.0045
     12 C          -7.9074  -19.6756   19.6872 C.ar    1  UNL1       -0.0002
     13 C          -8.9085  -19.0285   20.5977 C.ar    1  UNL1       -0.0043
     14 C          -8.4747  -18.4946   21.9307 C.ar    1  UNL1       -0.0220
     15 C          -7.0400  -18.6078   22.3531 C.ar    1  UNL1        0.0002
     16 N          -3.5930  -19.9676   20.9332 N.am    1  UNL1       -0.3253
     17 C          -4.6041  -19.3681   21.8650 C.2     1  UNL1        0.2427
     18 O          -4.1803  -18.8818   23.2193 O.2     1  UNL1       -0.2704
     19 H          -2.6512  -20.0419   21.2104 H       1  UNL1        0.1453
     20 H          -3.8711  -20.2868   20.0443 H       1  UNL1        0.1453
     21 C          -9.0321  -17.2390   23.9869 C.3     1  UNL1        0.0991
     22 C         -10.4903  -17.2701   23.6366 C.ar    1  UNL1       -0.0061
     23 C         -11.0818  -16.1816   22.7908 C.ar    1  UNL1       -0.0029
     24 C         -12.5399  -16.2127   22.4405 C.ar    1  UNL1       -0.0003
     25 C         -13.4067  -17.3322   22.9360 C.ar    1  UNL1       -0.0000
     26 C         -12.8152  -18.4207   23.7818 C.ar    1  UNL1       -0.0003
     27 C         -11.3570  -18.3896   24.1321 C.ar    1  UNL1       -0.0029
@<TRIPOS>BOND
     1    16    17   am
     2    17    18    2
     3    17    10    1
     4    10    11   ar
     5    11    12   ar
     6    12    13   ar
     7    13    14   ar
     8    14     9    1
     9     1     9    1
    10     1     2    1
    11     3     2    1
    12     3     4    1
    13     4     5    1
    14     6     5    1
    15     6     7    1
    16     6     8    1
    17     8    21    1
    18    21    22    1
    19    22    23   ar
    20    23    24   ar
    21    24    25   ar
    22    25    26   ar
    23    26    27   ar
    24    14    15   ar
    25    15    10   ar
    26     7     1    1
    27    27    22   ar
    28     8     3    1
    29    16    19    1
    30    16    20    1
@<TRIPOS>MOLECULE
*****
 27 30 0 0 0
SMALL
GASTEIGER

@<TRIPOS>ATOM
      1 C          -9.0167  -18.0340   21.5855 C.3     1  UNL1        0.0070
      2 C          -9.8091  -18.7133   20.5082 C.3     1  UNL1        0.0163
      3 C         -10.7944  -17.9284   19.6938 C.3     1  UNL1        0.0578
      4 C         -11.6245  -16.7997   19.1584 C.3     1  UNL1        0.0173
      5 C         -11.2783  -15.5622   19.9322 C.3     1  UNL1        0.0173
      6 C         -10.2343  -15.9261   20.9458 C.3     1  UNL1        0.0578
      7 C          -9.2095  -16.5698   21.8484 C.3     1  UNL1        0.0163
      8 N          -9.9352  -17.3886   20.7985 N.3     1  UNL1       -0.2716
      9 C          -8.0313  -18.8188   22.3999 C.3     1  UNL1        0.0264
     10 C          -4.1468  -18.9168   21.5932 C.ar    1  UNL1        0.0528
     11 C          -4.0916  -20.0400   20.6006 C.ar    1  UNL1        0.0045
     12 C          -5.3497  -20.7562   20.2078 C.ar    1  UNL1       -0.0002
     13 C          -6.6629  -20.3491   20.8075 C.ar    1  UNL1       -0.0043
     14 C          -6.7180  -19.2259   21.8001 C.ar    1  UNL1       -0.0220
     15 C          -5.4600  -18.5097   22.1930 C.ar    1  UNL1        0.0002
     16 N          -2.9327  -16.7414   22.3307 N.am    1  UNL1       -0.3253
     17 C          -2.8887  -18.2006   21.9860 C.2     1  UNL1        0.2427
     18 O          -1.5865  -18.9437   22.0342 O.2     1  UNL1       -0.2704
     19 H          -2.1070  -16.2714   22.5885 H       1  UNL1        0.1453
     20 H          -3.7873  -16.2537   22.2990 H       1  UNL1        0.1453
     21 C          -8.9499  -18.1735   21.6129 C.3     1  UNL1        0.0991
     22 C          -9.3307  -18.6708   22.9758 C.ar    1  UNL1       -0.0061
     23 C          -9.2835  -17.7425   24.1532 C.ar    1  UNL1       -0.0029
     24 C          -9.6643  -18.2398   25.5160 C.ar    1  UNL1       -0.0003
     25 C         -10.0923  -19.6654   25.7017 C.ar    1  UNL1       -0.0000
     26 C         -10.1395  -20.5938   24.5243 C.ar    1  UNL1       -0.0003
     27 C          -9.7587  -20.0963   23.1614 C.ar    1  UNL1       -0.0029
@<TRIPOS>BOND
     1    16    17   am
     2    17    18    2
     3    17    10    1
     4    10    11   ar
     5    11    12   ar
     6    12    13   ar
     7    13    14   ar
     8    14     9    1
     9     1     9    1
    10     1     2    1
    11     3     2    1
    12     3     4    1
    13     4     5    1
    14     6     5    1
    15     6     7    1
    16     6     8    1
    17     8    21    1
    18    21    22    1
    19    22    23   ar
    20    23    24   ar
    21    24    25   ar
    22    25    26   ar
    23    26    27   ar
    24    14    15   ar
    25    15    10   ar
    26     7     1    1
    27    27    22   ar
    28     8     3    1
    29    16    19    1
    30    16    20    1
@<TRIPOS>MOLECULE
*****
 27 30 0 0 0
SMALL
GASTEIGER

@<TRIPOS>ATOM
      1 C          -8.7995  -17.7292   21.9131 C.3     1  UNL1        0.0070
      2 C          -9.0397  -16.2489   21.9442 C.3     1  UNL1        0.0163
      3 C         -10.0222  -15.6284   20.9957 C.3     1  UNL1        0.0578
      4 C         -11.0462  -15.4558   19.9133 C.3     1  UNL1        0.0173
      5 C         -11.3361  -16.8069   19.3298 C.3     1  UNL1        0.0173
      6 C         -10.4912  -17.8145   20.0516 C.3     1  UNL1        0.0578
      7 C          -9.5418  -18.5891   20.9335 C.3     1  UNL1        0.0163
      8 N          -9.6792  -17.0862   21.0812 N.3     1  UNL1       -0.2716
      9 C          -7.8169  -18.3498   22.8617 C.3     1  UNL1        0.0264
     10 C          -4.0028  -18.5633   21.7862 C.ar    1  UNL1        0.0528
     11 C          -3.4361  -17.3813   22.5154 C.ar    1  UNL1        0.0045
     12 C          -4.3297  -16.5222   23.3601 C.ar    1  UNL1       -0.0002
     13 C          -5.7899  -16.8450   23.4755 C.ar    1  UNL1       -0.0043
     14 C          -6.3566  -18.0270   22.7463 C.ar    1  UNL1       -0.0220
     15 C          -5.4632  -18.8861   21.9016 C.ar    1  UNL1        0.0002
     16 N          -3.2623  -19.4240   19.4493 N.am    1  UNL1       -0.3253
     17 C          -3.1093  -19.4224   20.9415 C.2     1  UNL1        0.2427
     18 O          -2.0626  -20.2799   21.5890 O.2     1  UNL1       -0.2704
     19 H          -2.6759  -19.9878   18.8949 H       1  UNL1        0.1453
     20 H          -3.9493  -18.8612   19.0243 H       1  UNL1        0.1453
     21 C          -8.6967  -17.7067   22.0297 C.3     1  UNL1        0.0991
     22 C          -9.1798  -18.6110   23.1246 C.ar    1  UNL1       -0.0061
     23 C          -8.9230  -20.0868   23.0465 C.ar    1  UNL1       -0.0029
     24 C          -9.4060  -20.9911   24.1413 C.ar    1  UNL1       -0.0003
     25 C         -10.1459  -20.4196   25.3144 C.ar    1  UNL1       -0.0000
     26 C         -10.4027  -18.9438   25.3925 C.ar    1  UNL1       -0.0003
     27 C          -9.9196  -18.0395   24.2976 C.ar    1  UNL1       -0.0029
@<TRIPOS>BOND
     1    16    17   am
     2    17    18    2
     3    17    10    1
     4    10    11   ar
     5    11    12   ar
     6    12    13   ar
     7    13    14   ar
     8    14     9    1
     9     1     9    1
    10     1     2    1
    11     3     2    1
    12     3     4    1
    13     4     5    1
    14     6     5    1
    15     6     7    1
    16     6     8    1
    17     8    21    1
    18    21    22    1
    19    22    23   ar
    20    23    24   ar
    21    24    25   ar
    22    25    26   ar
    23    26    27   ar
    24    14    15   ar
    25    15    10   ar
    26     7     1    1
    27    27    22   ar
    28     8     3    1
    29    16    19    1
    30    16    20    1
@<TRIPOS>MOLECULE
*****
 27 30 0 0 0
SMALL
GASTEIGER

@<TRIPOS>ATOM
      1 C          -7.3949  -18.8709   21.9070 C.3     1  UNL1        0.0070
      2 C          -7.8362  -17.4413   22.0139 C.3     1  UNL1        0.0163
      3 C          -8.9643  -17.0711   22.9307 C.3     1  UNL1        0.0578
      4 C         -10.0809  -17.1631   23.9280 C.3     1  UNL1        0.0173
      5 C         -10.2226  -18.6001   24.3339 C.3     1  UNL1        0.0173
      6 C          -9.1936  -19.3963   23.5874 C.3     1  UNL1        0.0578
      7 C          -8.0817  -19.9303   22.7169 C.3     1  UNL1        0.0163
      8 N          -8.4159  -18.4513   22.7202 N.3     1  UNL1       -0.2716
      9 C          -6.2669  -19.2411   20.9902 C.3     1  UNL1        0.0264
     10 C          -2.4148  -18.3747   20.5893 C.ar    1  UNL1        0.0528
     11 C          -2.0536  -18.0280   22.0033 C.ar    1  UNL1        0.0045
     12 C          -3.0968  -18.0857   23.0795 C.ar    1  UNL1       -0.0002
     13 C          -4.5012  -18.4900   22.7419 C.ar    1  UNL1       -0.0043
     14 C          -4.8624  -18.8367   21.3279 C.ar    1  UNL1       -0.0220
     15 C          -3.8193  -18.7791   20.2516 C.ar    1  UNL1        0.0002
     16 N          -1.7059  -17.7267   18.1753 N.am    1  UNL1       -0.3253
     17 C          -1.3716  -18.3171   19.5131 C.2     1  UNL1        0.2427
     18 O           0.0061  -18.8498   19.7746 O.2     1  UNL1       -0.2704
     19 H          -1.0212  -17.6889   17.4689 H       1  UNL1        0.1453
     20 H          -2.6101  -17.3771   18.0036 H       1  UNL1        0.1453
     21 C          -7.2878  -18.8215   21.8034 C.3     1  UNL1        0.0991
     22 C          -7.5428  -19.7078   20.6204 C.ar    1  UNL1       -0.0061
     23 C          -8.7058  -19.4326   19.7139 C.ar    1  UNL1       -0.0029
     24 C          -8.9607  -20.3188   18.5310 C.ar    1  UNL1       -0.0003
     25 C          -8.0527  -21.4803   18.2544 C.ar    1  UNL1       -0.0000
     26 C          -6.8896  -21.7555   19.1609 C.ar    1  UNL1       -0.0003
     27 C          -6.6347  -20.8692   20.3439 C.ar    1  UNL1       -0.0029
@<TRIPOS>BOND
     1    16    17   am
     2    17    18    2
     3    17    10    1
     4    10    11   ar
     5    11    12   ar
     6    12    13   ar
     7    13    14   ar
     8    14     9    1
     9     1     9    1
    10     1     2    1
    11     3     2    1
    12     3     4    1
    13     4     5    1
    14     6     5    1
    15     6     7    1
    16     6     8    1
    17     8    21    1
    18    21    22    1
    19    22    23   ar
    20    23    24   ar
    21    24    25   ar
    22    25    26   ar
    23    26    27   ar
    24    14    15   ar
    25    15    10   ar
    26     7     1    1
    27    27    22   ar
    28     8     3    1
    29    16    19    1
    30    16    20    1
@<TRIPOS>MOLECULE
*****
 27 30 0 0 0
SMALL
GASTEIGER

@<TRIPOS>ATOM
      1 C          -6.1227  -19.3238   21.0220 C.3     1  UNL1        0.0070
      2 C          -5.2574  -19.7300   22.1779 C.3     1  UNL1        0.0163
      3 C          -3.7636  -19.6865   22.0482 C.3     1  UNL1        0.0578
      4 C          -2.3853  -19.4924   21.4893 C.3     1  UNL1        0.0173
      5 C          -2.5221  -18.9983   20.0796 C.3     1  UNL1        0.0173
      6 C          -3.9850  -18.8869   19.7673 C.3     1  UNL1        0.0578
      7 C          -5.4943  -18.8741   19.7363 C.3     1  UNL1        0.0163
      8 N          -4.7523  -19.3123   20.9840 N.3     1  UNL1       -0.2716
      9 C          -7.6165  -19.3673   21.1516 C.3     1  UNL1        0.0264
     10 C          -8.6702  -17.0103   24.1656 C.ar    1  UNL1        0.0528
     11 C          -9.5904  -17.9179   24.9269 C.ar    1  UNL1        0.0045
     12 C          -9.8526  -19.3086   24.4298 C.ar    1  UNL1       -0.0002
     13 C          -9.1946  -19.7917   23.1714 C.ar    1  UNL1       -0.0043
     14 C          -8.2745  -18.8842   22.4101 C.ar    1  UNL1       -0.0220
     15 C          -8.0122  -17.4935   22.9071 C.ar    1  UNL1        0.0002
     16 N          -7.9376  -14.5593   23.7116 N.am    1  UNL1       -0.3253
     17 C          -8.4080  -15.6196   24.6627 C.2     1  UNL1        0.2427
     18 O          -8.6161  -15.2891   26.1110 O.2     1  UNL1       -0.2704
     19 H          -7.7655  -13.6466   24.0379 H       1  UNL1        0.1453
     20 H          -7.8010  -14.7762   22.7610 H       1  UNL1        0.1453
     21 C          -6.2461  -19.3558   21.1137 C.3     1  UNL1        0.0991
     22 C          -7.0674  -20.0777   20.0868 C.ar    1  UNL1       -0.0061
     23 C          -6.6916  -21.4681   19.6681 C.ar    1  UNL1       -0.0029
     24 C          -7.5128  -22.1899   18.6413 C.ar    1  UNL1       -0.0003
     25 C          -8.7099  -21.5213   18.0332 C.ar    1  UNL1       -0.0000
     26 C          -9.0858  -20.1307   18.4519 C.ar    1  UNL1       -0.0003
     27 C          -8.2644  -19.4090   19.4788 C.ar    1  UNL1       -0.0029
@<TRIPOS>BOND
     1    16    17   am
     2    17    18    2
     3    17    10    1
     4    10    11   ar
     5    11    12   ar
     6    12    13   ar
     7    13    14   ar
     8    14     9    1
     9     1     9    1
    10     1     2    1
    11     3     2    1
    12     3     4    1
    13     4     5    1
    14     6     5    1
    15     6     7    1
    16     6     8    1
    17     8    21    1
    18    21    22    1
    19    22    23   ar
    20    23    24   ar
    21    24    25   ar
    22    25    26   ar
    23    26    27   ar
    24    14    15   ar
    25    15    10   ar
    26     7     1    1
    27    27    22   ar
    28     8     3    1
    29    16    19    1
    30    16    20    1
@<TRIPOS>MOLECULE
*****
 27 30 0 0 0
SMALL
GASTEIGER

@<TRIPOS>ATOM
      1 C          -8.5506  -17.2189   22.7463 C.3     1  UNL1        0.0070
      2 C          -9.1612  -18.5789   22.5808 C.3     1  UNL1        0.0163
      3 C         -10.4517  -18.7356   21.8323 C.3     1  UNL1        0.0578
      4 C         -11.6913  -18.4274   21.0460 C.3     1  UNL1        0.0173
      5 C         -11.7312  -16.9474   20.8050 C.3     1  UNL1        0.0173
      6 C         -10.5163  -16.3410   21.4424 C.3     1  UNL1        0.0578
      7 C          -9.2305  -16.0155   22.1634 C.3     1  UNL1        0.0163
      8 N          -9.7255  -17.4462   22.0773 N.3     1  UNL1       -0.2716
      9 C          -7.2601  -17.0621   23.4948 C.3     1  UNL1        0.0264
     10 C          -4.8128  -19.3521   21.3697 C.ar    1  UNL1        0.0528
     11 C          -3.4789  -18.8770   21.8646 C.ar    1  UNL1        0.0045
     12 C          -3.4054  -17.7969   22.9028 C.ar    1  UNL1       -0.0002
     13 C          -4.6658  -17.1920   23.4462 C.ar    1  UNL1       -0.0043
     14 C          -5.9997  -17.6671   22.9514 C.ar    1  UNL1       -0.0220
     15 C          -6.0732  -18.7471   21.9132 C.ar    1  UNL1        0.0002
     16 N          -6.1271  -21.2650   20.2020 N.am    1  UNL1       -0.3253
     17 C          -4.8862  -20.4322   20.3315 C.2     1  UNL1        0.2427
     18 O          -3.7188  -20.6796   19.4226 O.2     1  UNL1       -0.2704
     19 H          -6.1753  -21.9739   19.5206 H       1  UNL1        0.1453
     20 H          -6.8933  -21.1026   20.7985 H       1  UNL1        0.1453
     21 C          -8.4350  -17.2895   22.8258 C.3     1  UNL1        0.0991
     22 C          -8.4497  -16.8756   24.2675 C.ar    1  UNL1       -0.0061
     23 C          -7.8332  -15.5718   24.6798 C.ar    1  UNL1       -0.0029
     24 C          -7.8478  -15.1580   26.1214 C.ar    1  UNL1       -0.0003
     25 C          -8.4790  -16.0479   27.1508 C.ar    1  UNL1       -0.0000
     26 C          -9.0955  -17.3518   26.7385 C.ar    1  UNL1       -0.0003
     27 C          -9.0808  -17.7656   25.2968 C.ar    1  UNL1       -0.0029
@<TRIPOS>BOND
     1    16    17   am
     2    17    18    2
     3    17    10    1
     4    10    11   ar
     5    11    12   ar
     6    12    13   ar
     7    13    14   ar
     8    14     9    1
     9     1     9    1
    10     1     2    1
    11     3     2    1
    12     3     4    1
    13     4     5    1
    14     6     5    1
    15     6     7    1
    16     6     8    1
    17     8    21    1
    18    21    22    1
    19    22    23   ar
    20    23    24   ar
    21    24    25   ar
    22    25    26   ar
    23    26    27   ar
    24    14    15   ar
    25    15    10   ar
    26     7     1    1
    27    27    22   ar
    28     8     3    1
    29    16    19    1
    30    16    20    1
@<TRIPOS>MOLECULE
*****
 27 30 0 0 0
SMALL
GASTEIGER

@<TRIPOS>ATOM
      1 C         -12.0810   -3.9922   18.2365 C.3     1  UNL1        0.0070
      2 C         -11.7204   -2.7847   19.0500 C.3     1  UNL1        0.0163
      3 C         -11.2147   -1.5466   18.3709 C.3     1  UNL1        0.0578
      4 C         -10.7721   -0.5790   17.3136 C.3     1  UNL1        0.0173
      5 C         -10.8965   -1.2585   15.9821 C.3     1  UNL1        0.0173
      6 C         -11.4159   -2.6461   16.2165 C.3     1  UNL1        0.0578
      7 C         -11.9358   -3.9616   16.7438 C.3     1  UNL1        0.0163
      8 N         -11.6126   -2.8241   17.6929 N.3     1  UNL1       -0.2716
      9 C         -12.5868   -5.2305   18.9156 C.3     1  UNL1        0.0264
     10 C         -16.1219   -6.9603   19.4258 C.ar    1  UNL1        0.0528
     11 C         -16.9972   -5.7603   19.6346 C.ar    1  UNL1        0.0045
     12 C         -16.4024   -4.3836   19.6037 C.ar    1  UNL1       -0.0002
     13 C         -14.9323   -4.2070   19.3641 C.ar    1  UNL1       -0.0043
     14 C         -14.0570   -5.4071   19.1553 C.ar    1  UNL1       -0.0220
     15 C         -14.6517   -6.7837   19.1861 C.ar    1  UNL1        0.0002
     16 N         -16.0942   -9.4041   20.3073 N.am    1  UNL1       -0.3253
     17 C         -16.7167   -8.3370   19.4566 C.2     1  UNL1        0.2427
     18 O         -17.9342   -8.6465   18.6367 O.2     1  UNL1       -0.2704
     19 H         -16.4846  -10.3077   20.3276 H       1  UNL1        0.1453
     20 H         -15.2952   -9.2010   20.8454 H       1  UNL1        0.1453
     21 C         -12.1183   -4.0622   18.3720 C.3     1  UNL1        0.0991
     22 C         -11.3003   -5.3193   18.3461 C.ar    1  UNL1       -0.0061
     23 C         -10.1028   -5.4534   19.2395 C.ar    1  UNL1       -0.0029
     24 C          -9.2848   -6.7103   19.2136 C.ar    1  UNL1       -0.0003
     25 C          -9.6642   -7.8333   18.2943 C.ar    1  UNL1       -0.0000
     26 C         -10.8617   -7.6992   17.4009 C.ar    1  UNL1       -0.0003
     27 C         -11.6797   -6.4421   17.4269 C.ar    1  UNL1       -0.0029
@<TRIPOS>BOND
     1    16    17   am
     2    17    18    2
     3    17    10    1
     4    10    11   ar
     5    11    12   ar
     6    12    13   ar
     7    13    14   ar
     8    14     9    1
     9     1     9    1
    10     1     2    1
    11     3     2    1
    12     3     4    1
    13     4     5    1
    14     6     5    1
    15     6     7    1
    16     6     8    1
    17     8    21    1
    18    21    22    1
    19    22    23   ar
    20    23    24   ar
    21    24    25   ar
    22    25    26   ar
    23    26    27   ar
    24    14    15   ar
    25    15    10   ar
    26     7     1    1
    27    27    22   ar
    28     8     3    1
    29    16    19    1
    30    16    20    1
@<TRIPOS>MOLECULE
*****
 27 30 0 0 0
SMALL
GASTEIGER

@<TRIPOS>ATOM
      1 C          -9.4341  -17.4807   22.9778 C.3     1  UNL1        0.0070
      2 C         -10.3109  -18.5023   23.6392 C.3     1  UNL1        0.0163
      3 C         -11.8009  -18.3296   23.6315 C.3     1  UNL1        0.0578
      4 C         -13.1709  -17.7701   23.3869 C.3     1  UNL1        0.0173
      5 C         -13.0187  -16.4908   22.6186 C.3     1  UNL1        0.0173
      6 C         -11.5546  -16.2596   22.3885 C.3     1  UNL1        0.0578
      7 C         -10.0473  -16.2864   22.3086 C.3     1  UNL1        0.0163
      8 N         -10.8019  -17.3961   23.0146 N.3     1  UNL1       -0.2716
      9 C          -7.9440  -17.6533   22.9855 C.3     1  UNL1        0.0264
     10 C          -7.4468  -20.2221   20.0016 C.ar    1  UNL1        0.0528
     11 C          -6.0053  -20.5941   20.1850 C.ar    1  UNL1        0.0045
     12 C          -5.2100  -19.9857   21.3019 C.ar    1  UNL1       -0.0002
     13 C          -5.8562  -19.0055   22.2353 C.ar    1  UNL1       -0.0043
     14 C          -7.2978  -18.6336   22.0519 C.ar    1  UNL1       -0.0220
     15 C          -8.0931  -19.2418   20.9351 C.ar    1  UNL1        0.0002
     16 N          -9.5065  -20.1715   18.4188 N.am    1  UNL1       -0.3253
     17 C          -8.2421  -20.8305   18.8847 C.2     1  UNL1        0.2427
     18 O          -7.7729  -22.0979   18.2337 O.2     1  UNL1       -0.2704
     19 H         -10.0284  -20.5708   17.6857 H       1  UNL1        0.1453
     20 H          -9.8144  -19.3397   18.8461 H       1  UNL1        0.1453
     21 C          -9.3119  -17.5687   23.0223 C.3     1  UNL1        0.0991
     22 C          -8.4668  -16.7500   23.9526 C.ar    1  UNL1       -0.0061
     23 C          -8.7418  -16.7675   25.4270 C.ar    1  UNL1       -0.0029
     24 C          -7.8967  -15.9488   26.3573 C.ar    1  UNL1       -0.0003
     25 C          -6.7766  -15.1125   25.8131 C.ar    1  UNL1       -0.0000
     26 C          -6.5016  -15.0951   24.3385 C.ar    1  UNL1       -0.0003
     27 C          -7.3468  -15.9138   23.4083 C.ar    1  UNL1       -0.0029
@<TRIPOS>BOND
     1    16    17   am
     2    17    18    2
     3    17    10    1
     4    10    11   ar
     5    11    12   ar
     6    12    13   ar
     7    13    14   ar
     8    14     9    1
     9     1     9    1
    10     1     2    1
    11     3     2    1
    12     3     4    1
    13     4     5    1
    14     6     5    1
    15     6     7    1
    16     6     8    1
    17     8    21    1
    18    21    22    1
    19    22    23   ar
    20    23    24   ar
    21    24    25   ar
    22    25    26   ar
    23    26    27   ar
    24    14    15   ar
    25    15    10   ar
    26     7     1    1
    27    27    22   ar
    28     8     3    1
    29    16    19    1
    30    16    20    1
