@<TRIPOS>MOLECULE
*****
 37 40 0 0 0
SMALL
GASTEIGER

@<TRIPOS>ATOM
      1 C           3.7794   -0.1262   21.2317 C.3     1  UNL1        0.0771
      2 C           5.2564   -0.3698   21.1374 C.3     1  UNL1        0.0370
      3 C           5.7911   -1.3621   20.1477 C.3     1  UNL1        0.0738
      4 N           4.8488   -2.1107   19.2524 N.3     1  UNL1       -0.2713
      5 C           5.3836   -3.1030   18.2627 C.3     1  UNL1        0.0896
      6 C           3.3718   -1.8670   19.3467 C.3     1  UNL1        0.0751
      7 C           2.8371   -0.8748   20.3363 C.3     1  UNL1        0.0500
      8 N           2.3870    1.4231   24.6097 N.am    1  UNL1       -0.2485
      9 C           2.9218    0.4309   23.6201 C.2     1  UNL1        0.3058
     10 O           3.1337   -0.9967   24.0291 O.2     1  UNL1       -0.2524
     11 N           3.2446    0.8661   22.2214 N.am    1  UNL1       -0.2901
     12 H           2.2479    2.3600   24.3413 H       1  UNL1        0.1583
     13 H           3.1055    1.8030   21.9529 H       1  UNL1        0.1509
     14 C           0.8648    0.5664   28.0760 C.ar    1  UNL1        0.0803
     15 S           0.7377    1.1339   26.6933 S.2     1  UNL1       -0.0488
     16 C           2.0642    0.9878   26.0084 C.ar    1  UNL1        0.1664
     17 N           3.0112    0.3300   26.9679 N.ar    1  UNL1       -0.2282
     18 C           2.2700    0.0696   28.2457 C.ar    1  UNL1        0.0701
     19 C           2.8348   -0.5746   29.4770 C.3     1  UNL1        0.0528
     20 C          -1.4415   -0.3329   28.8645 C.3     1  UNL1        0.0779
     21 C          -0.2222    0.5063   29.1078 C.2     1  UNL1        0.1807
     22 O          -0.0901    1.2853   30.3827 O.2     1  UNL1       -0.2908
     23 C           1.3599   -0.6311   20.4307 C.3     1  UNL1        0.0751
     24 N           0.7977    0.7139   20.0774 N.3     1  UNL1       -0.2726
     25 C           0.8774    1.2127   18.6649 C.3     1  UNL1        0.0721
     26 C           0.3151    2.5577   18.3117 C.3     1  UNL1        0.0174
     27 C          -0.3269    3.4039   19.3708 C.3     1  UNL1        0.0031
     28 C          -0.4067    2.9051   20.7832 C.3     1  UNL1        0.0204
     29 C           0.1556    1.5601   21.1365 C.3     1  UNL1        0.0724
     30 C          -1.0487    3.7513   21.8423 C.3     1  UNL1        0.0277
     31 C          -2.5341    3.7003   22.0449 C.ar    1  UNL1       -0.0220
     32 C          -3.4425    3.4573   20.8761 C.ar    1  UNL1       -0.0020
     33 C          -4.9279    3.4062   21.0786 C.ar    1  UNL1        0.0293
     34 C          -5.5049    3.5982   22.4499 C.ar    1  UNL1        0.1401
     35 F          -6.9903    3.5472   22.6524 F       1  UNL1       -0.2042
     36 C          -4.5965    3.8412   23.6185 C.ar    1  UNL1        0.0293
     37 C          -3.1111    3.8923   23.4160 C.ar    1  UNL1       -0.0020
@<TRIPOS>BOND
     1    20    21    1
     2    21    22    2
     3    21    14    1
     4    14    15   ar
     5    15    16   ar
     6    16     8    1
     7     8     9   am
     8     9    10    2
     9     9    11   am
    10     1    11    1
    11     1     2    1
    12     2     3    1
    13     3     4    1
    14     4     5    1
    15     4     6    1
    16     6     7    1
    17     7    23    1
    18    23    24    1
    19    24    25    1
    20    25    26    1
    21    26    27    1
    22    27    28    1
    23    28    30    1
    24    30    31    1
    25    31    32   ar
    26    32    33   ar
    27    33    34   ar
    28    34    35    1
    29    34    36   ar
    30    36    37   ar
    31    28    29    1
    32    16    17   ar
    33    17    18   ar
    34    18    19    1
    35    18    14   ar
    36     7     1    1
    37    29    24    1
    38    37    31   ar
    39     8    12    1
    40    11    13    1
@<TRIPOS>MOLECULE
*****
 37 40 0 0 0
SMALL
GASTEIGER

@<TRIPOS>ATOM
      1 C           8.3111   -4.4337   26.1881 C.3     1  UNL1        0.0771
      2 C           8.0218   -5.8799   26.4613 C.3     1  UNL1        0.0370
      3 C           7.5530   -6.3070   27.8206 C.3     1  UNL1        0.0738
      4 N           7.3735   -5.2880   28.9066 N.3     1  UNL1       -0.2713
      5 C           6.9047   -5.7153   30.2660 C.3     1  UNL1        0.0896
      6 C           7.6629   -3.8418   28.6333 C.3     1  UNL1        0.0751
      7 C           8.1317   -3.4146   27.2741 C.3     1  UNL1        0.0500
      8 N           8.2719   -3.4830   22.3352 N.am    1  UNL1       -0.2485
      9 C           7.8032   -3.9102   23.6944 C.2     1  UNL1        0.3058
     10 O           6.3575   -4.2413   23.9195 O.2     1  UNL1       -0.2524
     11 N           8.7800   -4.0064   24.8287 N.am    1  UNL1       -0.2901
     12 H           9.2207   -3.2657   22.1875 H       1  UNL1        0.1583
     13 H           9.7288   -3.7891   24.6810 H       1  UNL1        0.1509
     14 C           6.0949   -2.5843   19.2499 C.ar    1  UNL1        0.0803
     15 S           7.2112   -2.2712   20.2018 S.2     1  UNL1       -0.0488
     16 C           7.2951   -3.3869   21.2009 C.ar    1  UNL1        0.1664
     17 N           6.2307   -4.3895   20.8665 N.ar    1  UNL1       -0.2282
     18 C           5.4889   -3.8935   19.6608 C.ar    1  UNL1        0.0701
     19 C           4.3425   -4.5852   18.9847 C.3     1  UNL1        0.0528
     20 C           4.2091   -1.4102   17.9028 C.3     1  UNL1        0.0779
     21 C           5.6609   -1.7369   18.0908 C.2     1  UNL1        0.1807
     22 O           6.6786   -1.2164   17.1197 O.2     1  UNL1       -0.2908
     23 C           8.4210   -1.9684   27.0007 C.3     1  UNL1        0.0751
     24 N           7.6520   -1.2370   25.9406 N.3     1  UNL1       -0.2726
     25 C           8.3731   -0.3545   24.9652 C.3     1  UNL1        0.0721
     26 C           7.6041    0.3769   23.9051 C.3     1  UNL1        0.0174
     27 C           6.1140    0.2257   23.8205 C.3     1  UNL1        0.0031
     28 C           5.3931   -0.6568   24.7958 C.3     1  UNL1        0.0204
     29 C           6.1621   -1.3881   25.8559 C.3     1  UNL1        0.0724
     30 C           3.9031   -0.8080   24.7112 C.3     1  UNL1        0.0277
     31 C           3.2101   -0.6775   23.3873 C.ar    1  UNL1       -0.0220
     32 C           3.5104   -1.6491   22.2846 C.ar    1  UNL1       -0.0020
     33 C           2.8174   -1.5186   20.9607 C.ar    1  UNL1        0.0293
     34 C           1.8240   -0.4166   20.7395 C.ar    1  UNL1        0.1401
     35 F           1.1310   -0.2861   19.4156 F       1  UNL1       -0.2042
     36 C           1.5237    0.5549   21.8422 C.ar    1  UNL1        0.0293
     37 C           2.2167    0.4244   23.1661 C.ar    1  UNL1       -0.0020
@<TRIPOS>BOND
     1    20    21    1
     2    21    22    2
     3    21    14    1
     4    14    15   ar
     5    15    16   ar
     6    16     8    1
     7     8     9   am
     8     9    10    2
     9     9    11   am
    10     1    11    1
    11     1     2    1
    12     2     3    1
    13     3     4    1
    14     4     5    1
    15     4     6    1
    16     6     7    1
    17     7    23    1
    18    23    24    1
    19    24    25    1
    20    25    26    1
    21    26    27    1
    22    27    28    1
    23    28    30    1
    24    30    31    1
    25    31    32   ar
    26    32    33   ar
    27    33    34   ar
    28    34    35    1
    29    34    36   ar
    30    36    37   ar
    31    28    29    1
    32    16    17   ar
    33    17    18   ar
    34    18    19    1
    35    18    14   ar
    36     7     1    1
    37    29    24    1
    38    37    31   ar
    39     8    12    1
    40    11    13    1
@<TRIPOS>MOLECULE
*****
 37 40 0 0 0
SMALL
GASTEIGER

@<TRIPOS>ATOM
      1 C           6.5688   -2.5410   28.3752 C.3     1  UNL1        0.0771
      2 C           6.5872   -3.8893   29.0321 C.3     1  UNL1        0.0370
      3 C           7.3528   -5.0177   28.4072 C.3     1  UNL1        0.0738
      4 N           8.1002   -4.7976   27.1254 N.3     1  UNL1       -0.2713
      5 C           8.8659   -5.9260   26.5004 C.3     1  UNL1        0.0896
      6 C           8.0818   -3.4493   26.4685 C.3     1  UNL1        0.0751
      7 C           7.3161   -2.3210   27.0934 C.3     1  UNL1        0.0500
      8 N           3.6214   -0.0173   29.2082 N.am    1  UNL1       -0.2485
      9 C           4.3871   -1.1456   28.5834 C.2     1  UNL1        0.3058
     10 O           3.7368   -2.0071   27.5417 O.2     1  UNL1       -0.2524
     11 N           5.8031   -1.4126   29.0001 N.am    1  UNL1       -0.2901
     12 H           4.0482    0.5481   29.8919 H       1  UNL1        0.1583
     13 H           6.2299   -0.8472   29.6838 H       1  UNL1        0.1509
     14 C           0.2727    1.1004   27.5949 C.ar    1  UNL1        0.0803
     15 S           1.7717    1.1184   27.6482 S.2     1  UNL1       -0.0488
     16 C           2.2054    0.2496   28.7914 C.ar    1  UNL1        0.1664
     17 N           0.9745   -0.3053   29.4448 N.ar    1  UNL1       -0.2282
     18 C          -0.2200    0.2204   28.7053 C.ar    1  UNL1        0.0701
     19 C          -1.6552   -0.0809   29.0208 C.3     1  UNL1        0.0528
     20 C          -0.2961    1.7212   25.1371 C.3     1  UNL1        0.0779
     21 C          -0.5832    1.8336   26.6050 C.2     1  UNL1        0.1807
     22 O          -1.7262    2.6791   27.0831 O.2     1  UNL1       -0.2908
     23 C           7.2977   -0.9725   26.4365 C.3     1  UNL1        0.0751
     24 N           6.1128   -0.5532   25.6179 N.3     1  UNL1       -0.2726
     25 C           5.5041    0.8030   25.8194 C.3     1  UNL1        0.0721
     26 C           4.3192    1.2224   25.0008 C.3     1  UNL1        0.0174
     27 C           3.7429    0.2856   23.9808 C.3     1  UNL1        0.0031
     28 C           4.3515   -1.0705   23.7794 C.3     1  UNL1        0.0204
     29 C           5.5365   -1.4899   24.5979 C.3     1  UNL1        0.0724
     30 C           3.7752   -2.0073   22.7594 C.3     1  UNL1        0.0277
     31 C           3.6965   -1.5925   21.3200 C.ar    1  UNL1       -0.0220
     32 C           4.8281   -1.9055   20.3863 C.ar    1  UNL1       -0.0020
     33 C           4.7493   -1.4907   18.9470 C.ar    1  UNL1        0.0293
     34 C           3.5390   -0.7630   18.4413 C.ar    1  UNL1        0.1401
     35 F           3.4603   -0.3482   17.0019 F       1  UNL1       -0.2042
     36 C           2.4075   -0.4501   19.3749 C.ar    1  UNL1        0.0293
     37 C           2.4863   -0.8648   20.8143 C.ar    1  UNL1       -0.0020
@<TRIPOS>BOND
     1    20    21    1
     2    21    22    2
     3    21    14    1
     4    14    15   ar
     5    15    16   ar
     6    16     8    1
     7     8     9   am
     8     9    10    2
     9     9    11   am
    10     1    11    1
    11     1     2    1
    12     2     3    1
    13     3     4    1
    14     4     5    1
    15     4     6    1
    16     6     7    1
    17     7    23    1
    18    23    24    1
    19    24    25    1
    20    25    26    1
    21    26    27    1
    22    27    28    1
    23    28    30    1
    24    30    31    1
    25    31    32   ar
    26    32    33   ar
    27    33    34   ar
    28    34    35    1
    29    34    36   ar
    30    36    37   ar
    31    28    29    1
    32    16    17   ar
    33    17    18   ar
    34    18    19    1
    35    18    14   ar
    36     7     1    1
    37    29    24    1
    38    37    31   ar
    39     8    12    1
    40    11    13    1
@<TRIPOS>MOLECULE
*****
 37 40 0 0 0
SMALL
GASTEIGER

@<TRIPOS>ATOM
      1 C           9.1326   -5.6613   24.6831 C.3     1  UNL1        0.0771
      2 C           8.8687   -7.1110   24.9635 C.3     1  UNL1        0.0370
      3 C           8.7441   -7.5905   26.3793 C.3     1  UNL1        0.0738
      4 N           8.8834   -6.6203   27.5147 N.3     1  UNL1       -0.2713
      5 C           8.7588   -7.0998   28.9306 C.3     1  UNL1        0.0896
      6 C           9.1473   -5.1706   27.2344 C.3     1  UNL1        0.0751
      7 C           9.2719   -4.6911   25.8186 C.3     1  UNL1        0.0500
      8 N           8.1648   -4.2398   21.1064 N.am    1  UNL1       -0.2485
      9 C           8.0402   -4.7194   22.5222 C.2     1  UNL1        0.3058
     10 O           6.6986   -4.7365   23.1930 O.2     1  UNL1       -0.2524
     11 N           9.2572   -5.1818   23.2673 N.am    1  UNL1       -0.2901
     12 H           9.0453   -4.2286   20.6662 H       1  UNL1        0.1583
     13 H          10.1378   -5.1705   22.8270 H       1  UNL1        0.1509
     14 C           5.4123   -2.4119   19.0698 C.ar    1  UNL1        0.0803
     15 S           6.7782   -2.4475   19.6888 S.2     1  UNL1       -0.0488
     16 C           6.9478   -3.7774   20.3613 C.ar    1  UNL1        0.1664
     17 N           5.6868   -4.5638   20.1580 N.ar    1  UNL1       -0.2282
     18 C           4.7378   -3.7199   19.3598 C.ar    1  UNL1        0.0701
     19 C           3.3568   -4.1146   18.9275 C.3     1  UNL1        0.0528
     20 C           4.7376    0.0926   18.9201 C.3     1  UNL1        0.0779
     21 C           4.8243   -1.2689   18.2965 C.2     1  UNL1        0.1807
     22 O           4.3230   -1.4875   16.8999 O.2     1  UNL1       -0.2908
     23 C           9.5358   -3.2413   25.5382 C.3     1  UNL1        0.0751
     24 N           8.5377   -2.2027   25.9565 N.3     1  UNL1       -0.2726
     25 C           9.0056   -0.9200   26.5777 C.3     1  UNL1        0.0721
     26 C           8.0075    0.1186   26.9961 C.3     1  UNL1        0.0174
     27 C           6.5414   -0.1255   26.7932 C.3     1  UNL1        0.0031
     28 C           6.0735   -1.4081   26.1720 C.3     1  UNL1        0.0204
     29 C           7.0717   -2.4467   25.7536 C.3     1  UNL1        0.0724
     30 C           4.6075   -1.6522   25.9691 C.3     1  UNL1        0.0277
     31 C           3.9536   -1.2600   24.6773 C.ar    1  UNL1       -0.0220
     32 C           2.9786   -0.1204   24.6459 C.ar    1  UNL1       -0.0020
     33 C           2.3247    0.2718   23.3542 C.ar    1  UNL1        0.0293
     34 C           2.6458   -0.4755   22.0938 C.ar    1  UNL1        0.1401
     35 F           1.9920   -0.0833   20.8021 F       1  UNL1       -0.2042
     36 C           3.6208   -1.6150   22.1252 C.ar    1  UNL1        0.0293
     37 C           4.2747   -2.0072   23.4170 C.ar    1  UNL1       -0.0020
@<TRIPOS>BOND
     1    20    21    1
     2    21    22    2
     3    21    14    1
     4    14    15   ar
     5    15    16   ar
     6    16     8    1
     7     8     9   am
     8     9    10    2
     9     9    11   am
    10     1    11    1
    11     1     2    1
    12     2     3    1
    13     3     4    1
    14     4     5    1
    15     4     6    1
    16     6     7    1
    17     7    23    1
    18    23    24    1
    19    24    25    1
    20    25    26    1
    21    26    27    1
    22    27    28    1
    23    28    30    1
    24    30    31    1
    25    31    32   ar
    26    32    33   ar
    27    33    34   ar
    28    34    35    1
    29    34    36   ar
    30    36    37   ar
    31    28    29    1
    32    16    17   ar
    33    17    18   ar
    34    18    19    1
    35    18    14   ar
    36     7     1    1
    37    29    24    1
    38    37    31   ar
    39     8    12    1
    40    11    13    1
@<TRIPOS>MOLECULE
*****
 37 40 0 0 0
SMALL
GASTEIGER

@<TRIPOS>ATOM
      1 C           3.2614    0.0442   19.8126 C.3     1  UNL1        0.0771
      2 C           3.8378   -0.1276   18.4385 C.3     1  UNL1        0.0370
      3 C           4.4362   -1.4426   18.0352 C.3     1  UNL1        0.0738
      4 N           4.4581   -2.5858   19.0061 N.3     1  UNL1       -0.2713
      5 C           5.0565   -3.9009   18.6027 C.3     1  UNL1        0.0896
      6 C           3.8816   -2.4141   20.3801 C.3     1  UNL1        0.0751
      7 C           3.2833   -1.0991   20.7834 C.3     1  UNL1        0.0500
      8 N           0.6052    2.9356   20.3909 N.am    1  UNL1       -0.2485
      9 C           1.2036    1.6207   19.9876 C.2     1  UNL1        0.3058
     10 O           0.3428    0.5670   19.3560 O.2     1  UNL1       -0.2524
     11 N           2.6629    1.3592   20.2159 N.am    1  UNL1       -0.2901
     12 H           1.1702    3.6271   20.8054 H       1  UNL1        0.1583
     13 H           3.2280    2.0507   20.6304 H       1  UNL1        0.1509
     14 C          -2.9401    3.9121   19.1486 C.ar    1  UNL1        0.0803
     15 S          -1.4535    3.8567   18.9561 S.2     1  UNL1       -0.0488
     16 C          -0.8541    3.1971   20.1626 C.ar    1  UNL1        0.1664
     17 N          -1.9703    2.8448   21.1007 N.ar    1  UNL1       -0.2282
     18 C          -3.2594    3.2866   20.4740 C.ar    1  UNL1        0.0701
     19 C          -4.6278    3.1305   21.0684 C.3     1  UNL1        0.0528
     20 C          -4.4377    5.8904   18.3783 C.3     1  UNL1        0.0779
     21 C          -3.9329    4.4912   18.1848 C.2     1  UNL1        0.1807
     22 O          -4.4209    3.6712   17.0275 O.2     1  UNL1       -0.2908
     23 C           2.7067   -0.9273   22.1575 C.3     1  UNL1        0.0751
     24 N           3.4497   -0.1301   23.1883 N.3     1  UNL1       -0.2726
     25 C           4.9496   -0.1075   23.1811 C.3     1  UNL1        0.0721
     26 C           5.6926    0.6897   24.2118 C.3     1  UNL1        0.0174
     27 C           4.9358    1.4643   25.2498 C.3     1  UNL1        0.0031
     28 C           3.4360    1.4417   25.2569 C.3     1  UNL1        0.0204
     29 C           2.6930    0.6445   24.2262 C.3     1  UNL1        0.0724
     30 C           2.6791    2.2163   26.2948 C.3     1  UNL1        0.0277
     31 C           1.5645    1.5608   27.0551 C.ar    1  UNL1       -0.0220
     32 C           0.1455    1.9881   26.8227 C.ar    1  UNL1       -0.0020
     33 C          -0.9692    1.3326   27.5829 C.ar    1  UNL1        0.0293
     34 C          -0.6648    0.2499   28.5756 C.ar    1  UNL1        0.1401
     35 F          -1.7795   -0.4055   29.3358 F       1  UNL1       -0.2042
     36 C           0.7541   -0.1772   28.8079 C.ar    1  UNL1        0.0293
     37 C           1.8688    0.4782   28.0477 C.ar    1  UNL1       -0.0020
@<TRIPOS>BOND
     1    20    21    1
     2    21    22    2
     3    21    14    1
     4    14    15   ar
     5    15    16   ar
     6    16     8    1
     7     8     9   am
     8     9    10    2
     9     9    11   am
    10     1    11    1
    11     1     2    1
    12     2     3    1
    13     3     4    1
    14     4     5    1
    15     4     6    1
    16     6     7    1
    17     7    23    1
    18    23    24    1
    19    24    25    1
    20    25    26    1
    21    26    27    1
    22    27    28    1
    23    28    30    1
    24    30    31    1
    25    31    32   ar
    26    32    33   ar
    27    33    34   ar
    28    34    35    1
    29    34    36   ar
    30    36    37   ar
    31    28    29    1
    32    16    17   ar
    33    17    18   ar
    34    18    19    1
    35    18    14   ar
    36     7     1    1
    37    29    24    1
    38    37    31   ar
    39     8    12    1
    40    11    13    1
@<TRIPOS>MOLECULE
*****
 37 40 0 0 0
SMALL
GASTEIGER

@<TRIPOS>ATOM
      1 C           3.3772    0.2314   21.4639 C.3     1  UNL1        0.0771
      2 C           4.8375   -0.0579   21.6474 C.3     1  UNL1        0.0370
      3 C           5.5260   -1.0412   20.7480 C.3     1  UNL1        0.0738
      4 N           4.7543   -1.7351   19.6650 N.3     1  UNL1       -0.2713
      5 C           5.4429   -2.7184   18.7656 C.3     1  UNL1        0.0896
      6 C           3.2939   -1.4458   19.4815 C.3     1  UNL1        0.0751
      7 C           2.6054   -0.4625   20.3810 C.3     1  UNL1        0.0500
      8 N           1.5645    1.7808   24.6362 N.am    1  UNL1       -0.2485
      9 C           2.2531    0.7976   23.7368 C.2     1  UNL1        0.3058
     10 O           2.5061   -0.6030   24.2107 O.2     1  UNL1       -0.2524
     11 N           2.6886    1.2148   22.3634 N.am    1  UNL1       -0.2901
     12 H           1.3984    2.7000   24.3252 H       1  UNL1        0.1583
     13 H           2.5225    2.1339   22.0523 H       1  UNL1        0.1509
     14 C           1.1714    0.7432   28.3557 C.ar    1  UNL1        0.0803
     15 S           2.0261    1.1534   27.1933 S.2     1  UNL1       -0.0488
     16 C           1.1289    1.3636   26.0096 C.ar    1  UNL1        0.1664
     17 N          -0.2802    1.0832   26.4406 N.ar    1  UNL1       -0.2282
     18 C          -0.2540    0.6999   27.8905 C.ar    1  UNL1        0.0701
     19 C          -1.4442    0.3368   28.7282 C.3     1  UNL1        0.0528
     20 C           2.6938   -0.6323   29.9495 C.3     1  UNL1        0.0779
     21 C           1.6569    0.4312   29.7403 C.2     1  UNL1        0.1807
     22 O           1.1055    1.1827   30.9155 O.2     1  UNL1       -0.2908
     23 C           1.1450   -0.1731   20.1975 C.3     1  UNL1        0.0751
     24 N           0.6947    1.2102   19.8320 N.3     1  UNL1       -0.2726
     25 C           1.5178    2.0439   18.8951 C.3     1  UNL1        0.0721
     26 C           1.0675    3.4272   18.5296 C.3     1  UNL1        0.0174
     27 C          -0.2059    3.9769   19.1010 C.3     1  UNL1        0.0031
     28 C          -1.0288    3.1433   20.0379 C.3     1  UNL1        0.0204
     29 C          -0.5785    1.7600   20.4034 C.3     1  UNL1        0.0724
     30 C          -2.3022    3.6931   20.6093 C.3     1  UNL1        0.0277
     31 C          -2.5385    3.6529   22.0900 C.ar    1  UNL1       -0.0220
     32 C          -1.3887    3.8241   23.0380 C.ar    1  UNL1       -0.0020
     33 C          -1.6250    3.7839   24.5187 C.ar    1  UNL1        0.0293
     34 C          -3.0112    3.5724   25.0515 C.ar    1  UNL1        0.1401
     35 F          -3.2476    3.5322   26.5322 F       1  UNL1       -0.2042
     36 C          -4.1610    3.4012   24.1035 C.ar    1  UNL1        0.0293
     37 C          -3.9247    3.4414   22.6228 C.ar    1  UNL1       -0.0020
@<TRIPOS>BOND
     1    20    21    1
     2    21    22    2
     3    21    14    1
     4    14    15   ar
     5    15    16   ar
     6    16     8    1
     7     8     9   am
     8     9    10    2
     9     9    11   am
    10     1    11    1
    11     1     2    1
    12     2     3    1
    13     3     4    1
    14     4     5    1
    15     4     6    1
    16     6     7    1
    17     7    23    1
    18    23    24    1
    19    24    25    1
    20    25    26    1
    21    26    27    1
    22    27    28    1
    23    28    30    1
    24    30    31    1
    25    31    32   ar
    26    32    33   ar
    27    33    34   ar
    28    34    35    1
    29    34    36   ar
    30    36    37   ar
    31    28    29    1
    32    16    17   ar
    33    17    18   ar
    34    18    19    1
    35    18    14   ar
    36     7     1    1
    37    29    24    1
    38    37    31   ar
    39     8    12    1
    40    11    13    1
@<TRIPOS>MOLECULE
*****
 37 40 0 0 0
SMALL
GASTEIGER

@<TRIPOS>ATOM
      1 C           2.7003    0.3057   20.2779 C.3     1  UNL1        0.0771
      2 C           2.4778   -0.9325   19.4610 C.3     1  UNL1        0.0370
      3 C           3.1511   -2.2162   19.8464 C.3     1  UNL1        0.0738
      4 N           4.0469   -2.2618   21.0487 N.3     1  UNL1       -0.2713
      5 C           4.7203   -3.5456   21.4341 C.3     1  UNL1        0.0896
      6 C           4.2694   -1.0236   21.8656 C.3     1  UNL1        0.0751
      7 C           3.5961    0.2602   21.4802 C.3     1  UNL1        0.0500
      8 N          -0.1031    3.0744   19.8031 N.am    1  UNL1       -0.2485
      9 C           0.5702    1.7906   20.1884 C.2     1  UNL1        0.3058
     10 O          -0.2131    0.7079   20.8697 O.2     1  UNL1       -0.2524
     11 N           2.0269    1.5896   19.8925 N.am    1  UNL1       -0.2901
     12 H           0.4110    3.7850   19.3559 H       1  UNL1        0.1583
     13 H           2.5411    2.3001   19.4454 H       1  UNL1        0.1509
     14 C          -3.9120    3.8202   19.8509 C.ar    1  UNL1        0.0803
     15 S          -2.5948    3.7744   19.1346 S.2     1  UNL1       -0.0488
     16 C          -1.5598    3.2755   20.0990 C.ar    1  UNL1        0.1664
     17 N          -2.2374    3.0130   21.4113 N.ar    1  UNL1       -0.2282
     18 C          -3.6911    3.3497   21.2579 C.ar    1  UNL1        0.0701
     19 C          -4.7397    3.2358   22.3244 C.3     1  UNL1        0.0528
     20 C          -6.2198    3.2370   18.8100 C.3     1  UNL1        0.0779
     21 C          -5.2203    4.2595   19.2632 C.2     1  UNL1        0.1807
     22 O          -5.5290    5.7211   19.1287 O.2     1  UNL1       -0.2908
     23 C           3.8185    1.4985   22.2970 C.3     1  UNL1        0.0751
     24 N           2.6556    2.1858   22.9491 N.3     1  UNL1       -0.2726
     25 C           2.3738    3.6286   22.6510 C.3     1  UNL1        0.0721
     26 C           1.2108    4.3159   23.3030 C.3     1  UNL1        0.0174
     27 C           0.3297    3.5604   24.2532 C.3     1  UNL1        0.0031
     28 C           0.6115    2.1176   24.5513 C.3     1  UNL1        0.0204
     29 C           1.7745    1.4303   23.8992 C.3     1  UNL1        0.0724
     30 C          -0.2697    1.3620   25.5014 C.3     1  UNL1        0.0277
     31 C          -0.0302    1.4524   26.9794 C.ar    1  UNL1       -0.0220
     32 C           1.0216    2.3791   27.5135 C.ar    1  UNL1       -0.0020
     33 C           1.2611    2.4696   28.9915 C.ar    1  UNL1        0.0293
     34 C           0.4488    1.6333   29.9354 C.ar    1  UNL1        0.1401
     35 F           0.6883    1.7237   31.4134 F       1  UNL1       -0.2042
     36 C          -0.6028    0.7066   29.4013 C.ar    1  UNL1        0.0293
     37 C          -0.8423    0.6162   27.9233 C.ar    1  UNL1       -0.0020
@<TRIPOS>BOND
     1    20    21    1
     2    21    22    2
     3    21    14    1
     4    14    15   ar
     5    15    16   ar
     6    16     8    1
     7     8     9   am
     8     9    10    2
     9     9    11   am
    10     1    11    1
    11     1     2    1
    12     2     3    1
    13     3     4    1
    14     4     5    1
    15     4     6    1
    16     6     7    1
    17     7    23    1
    18    23    24    1
    19    24    25    1
    20    25    26    1
    21    26    27    1
    22    27    28    1
    23    28    30    1
    24    30    31    1
    25    31    32   ar
    26    32    33   ar
    27    33    34   ar
    28    34    35    1
    29    34    36   ar
    30    36    37   ar
    31    28    29    1
    32    16    17   ar
    33    17    18   ar
    34    18    19    1
    35    18    14   ar
    36     7     1    1
    37    29    24    1
    38    37    31   ar
    39     8    12    1
    40    11    13    1
@<TRIPOS>MOLECULE
*****
 37 40 0 0 0
SMALL
GASTEIGER

@<TRIPOS>ATOM
      1 C           0.7546    2.9296   24.4589 C.3     1  UNL1        0.0771
      2 C          -0.1083    2.6494   25.6534 C.3     1  UNL1        0.0370
      3 C          -1.5913    2.8596   25.5732 C.3     1  UNL1        0.0738
      4 N          -2.2115    3.3499   24.2985 N.3     1  UNL1       -0.2713
      5 C          -3.6945    3.5601   24.2183 C.3     1  UNL1        0.0896
      6 C          -1.3486    3.6301   23.1039 C.3     1  UNL1        0.0751
      7 C           0.1344    3.4200   23.1841 C.3     1  UNL1        0.0500
      8 N           4.2935    1.1336   24.4476 N.am    1  UNL1       -0.2485
      9 C           2.8105    1.3438   24.3674 C.2     1  UNL1        0.3058
     10 O           1.9003    0.1784   24.1157 O.2     1  UNL1       -0.2524
     11 N           2.2377    2.7195   24.5390 N.am    1  UNL1       -0.2901
     12 H           4.8909    1.8986   24.6128 H       1  UNL1        0.1583
     13 H           2.8350    3.4844   24.7042 H       1  UNL1        0.1509
     14 C           5.5650   -2.3445   23.2848 C.ar    1  UNL1        0.0803
     15 S           4.9070   -1.0272   22.9986 S.2     1  UNL1       -0.0488
     16 C           4.8664   -0.2420   24.2760 C.ar    1  UNL1        0.1664
     17 N           5.4994   -1.0740   25.3517 N.ar    1  UNL1       -0.2282
     18 C           5.9311   -2.3734   24.7392 C.ar    1  UNL1        0.0701
     19 C           6.6098   -3.5032   25.4552 C.3     1  UNL1        0.0528
     20 C           7.1480   -3.5525   21.6162 C.3     1  UNL1        0.0779
     21 C           5.8132   -3.4404   22.2912 C.2     1  UNL1        0.1807
     22 O           4.7267   -4.4241   21.9726 O.2     1  UNL1       -0.2908
     23 C           0.9973    3.7001   21.9895 C.3     1  UNL1        0.0751
     24 N           1.0061    2.7477   20.8308 N.3     1  UNL1       -0.2726
     25 C           0.5131    3.1967   19.4871 C.3     1  UNL1        0.0721
     26 C           0.5219    2.2443   18.3283 C.3     1  UNL1        0.0174
     27 C           1.0237    0.8428   18.5132 C.3     1  UNL1        0.0031
     28 C           1.5166    0.3938   19.8568 C.3     1  UNL1        0.0204
     29 C           1.5078    1.3463   21.0156 C.3     1  UNL1        0.0724
     30 C           2.0184   -1.0077   20.0417 C.3     1  UNL1        0.0277
     31 C           3.3511   -1.4072   19.4812 C.ar    1  UNL1       -0.0220
     32 C           3.6079   -2.8358   19.1028 C.ar    1  UNL1       -0.0020
     33 C           4.9406   -3.2353   18.5423 C.ar    1  UNL1        0.0293
     34 C           6.0167   -2.2062   18.3603 C.ar    1  UNL1        0.1401
     35 F           7.3494   -2.6057   17.7998 F       1  UNL1       -0.2042
     36 C           5.7599   -0.7776   18.7386 C.ar    1  UNL1        0.0293
     37 C           4.4271   -0.3781   19.2991 C.ar    1  UNL1       -0.0020
@<TRIPOS>BOND
     1    20    21    1
     2    21    22    2
     3    21    14    1
     4    14    15   ar
     5    15    16   ar
     6    16     8    1
     7     8     9   am
     8     9    10    2
     9     9    11   am
    10     1    11    1
    11     1     2    1
    12     2     3    1
    13     3     4    1
    14     4     5    1
    15     4     6    1
    16     6     7    1
    17     7    23    1
    18    23    24    1
    19    24    25    1
    20    25    26    1
    21    26    27    1
    22    27    28    1
    23    28    30    1
    24    30    31    1
    25    31    32   ar
    26    32    33   ar
    27    33    34   ar
    28    34    35    1
    29    34    36   ar
    30    36    37   ar
    31    28    29    1
    32    16    17   ar
    33    17    18   ar
    34    18    19    1
    35    18    14   ar
    36     7     1    1
    37    29    24    1
    38    37    31   ar
    39     8    12    1
    40    11    13    1
@<TRIPOS>MOLECULE
*****
 37 40 0 0 0
SMALL
GASTEIGER

@<TRIPOS>ATOM
      1 C           6.8235   -2.7828   28.6011 C.3     1  UNL1        0.0771
      2 C           6.5312   -3.6568   29.7845 C.3     1  UNL1        0.0370
      3 C           7.0251   -5.0729   29.8112 C.3     1  UNL1        0.0738
      4 N           7.8113   -5.6150   28.6545 N.3     1  UNL1       -0.2713
      5 C           8.3052   -7.0311   28.6812 C.3     1  UNL1        0.0896
      6 C           8.1035   -4.7410   27.4710 C.3     1  UNL1        0.0751
      7 C           7.6097   -3.3249   27.4443 C.3     1  UNL1        0.0500
      8 N           4.4583    0.3538   28.0372 N.am    1  UNL1       -0.2485
      9 C           4.9523   -1.0623   28.0640 C.2     1  UNL1        0.3058
     10 O           4.0689   -2.1740   27.5805 O.2     1  UNL1       -0.2524
     11 N           6.3296   -1.3667   28.5743 N.am    1  UNL1       -0.2901
     12 H           5.0381    1.0834   28.3546 H       1  UNL1        0.1583
     13 H           6.9094   -0.6371   28.8916 H       1  UNL1        0.1509
     14 C           0.6828    1.0186   27.4296 C.ar    1  UNL1        0.0803
     15 S           1.8205    0.6623   28.3400 S.2     1  UNL1       -0.0488
     16 C           3.0810    0.6582   27.5270 C.ar    1  UNL1        0.1664
     17 N           2.7224    1.0120   26.1141 N.ar    1  UNL1       -0.2282
     18 C           1.2403    1.2347   26.0539 C.ar    1  UNL1        0.0701
     19 C           0.4537    1.6080   24.8324 C.3     1  UNL1        0.0528
     20 C          -1.3652    0.1346   28.7614 C.3     1  UNL1        0.0779
     21 C          -0.7591    1.1378   27.8254 C.2     1  UNL1        0.1807
     22 O          -1.5947    2.2601   27.2852 O.2     1  UNL1       -0.2908
     23 C           7.9019   -2.4508   26.2608 C.3     1  UNL1        0.0751
     24 N           7.6438   -2.9571   24.8726 N.3     1  UNL1       -0.2726
     25 C           8.7896   -3.3921   24.0078 C.3     1  UNL1        0.0721
     26 C           8.5315   -3.8984   22.6196 C.3     1  UNL1        0.0174
     27 C           7.1275   -3.9695   22.0962 C.3     1  UNL1        0.0031
     28 C           5.9817   -3.5345   22.9610 C.3     1  UNL1        0.0204
     29 C           6.2399   -3.0283   24.3492 C.3     1  UNL1        0.0724
     30 C           4.5778   -3.6057   22.4377 C.3     1  UNL1        0.0277
     31 C           4.1767   -2.7796   21.2516 C.ar    1  UNL1       -0.0220
     32 C           3.4216   -1.4988   21.4504 C.ar    1  UNL1       -0.0020
     33 C           3.0206   -0.6727   20.2644 C.ar    1  UNL1        0.0293
     34 C           3.3747   -1.1274   18.8794 C.ar    1  UNL1        0.1401
     35 F           2.9736   -0.3014   17.6934 F       1  UNL1       -0.2042
     36 C           4.1297   -2.4082   18.6806 C.ar    1  UNL1        0.0293
     37 C           4.5308   -3.2342   19.8667 C.ar    1  UNL1       -0.0020
@<TRIPOS>BOND
     1    20    21    1
     2    21    22    2
     3    21    14    1
     4    14    15   ar
     5    15    16   ar
     6    16     8    1
     7     8     9   am
     8     9    10    2
     9     9    11   am
    10     1    11    1
    11     1     2    1
    12     2     3    1
    13     3     4    1
    14     4     5    1
    15     4     6    1
    16     6     7    1
    17     7    23    1
    18    23    24    1
    19    24    25    1
    20    25    26    1
    21    26    27    1
    22    27    28    1
    23    28    30    1
    24    30    31    1
    25    31    32   ar
    26    32    33   ar
    27    33    34   ar
    28    34    35    1
    29    34    36   ar
    30    36    37   ar
    31    28    29    1
    32    16    17   ar
    33    17    18   ar
    34    18    19    1
    35    18    14   ar
    36     7     1    1
    37    29    24    1
    38    37    31   ar
    39     8    12    1
    40    11    13    1
