@<TRIPOS>MOLECULE
*****
 35 38 0 0 0
SMALL
GASTEIGER

@<TRIPOS>ATOM
      1 N           6.3478   -2.1377   22.6749 N.am    1  UNL1       -0.2438
      2 C           5.6533   -0.8484   22.3500 C.3     1  UNL1        0.1009
      3 C           4.5886   -0.8156   21.2938 C.3     1  UNL1        0.0662
      4 C           4.2184   -2.0719   20.5627 C.3     1  UNL1        0.1600
      5 O           4.9129   -3.3611   20.8876 O.3     1  UNL1       -0.4374
      6 C           5.9775   -3.3940   21.9437 C.2     1  UNL1        0.4051
      7 O           6.6720   -4.6832   22.2686 O.2     1  UNL1       -0.2262
      8 C           3.2825   -1.1020   19.9044 C.ar    1  UNL1        0.0138
      9 C           1.8469   -1.0357   20.3341 C.ar    1  UNL1       -0.0010
     10 C           0.9110   -0.0658   19.6759 C.ar    1  UNL1       -0.0002
     11 C           1.4106    0.8379   18.5879 C.ar    1  UNL1       -0.0000
     12 C           2.8462    0.7717   18.1581 C.ar    1  UNL1       -0.0002
     13 C           3.7822   -0.1983   18.8164 C.ar    1  UNL1       -0.0010
     14 C           7.4124   -2.1706   23.7310 C.3     1  UNL1        0.1011
     15 C           8.8588   -2.2188   23.3365 C.3     1  UNL1        0.0265
     16 C           6.2673   -2.1247   28.0826 C.ar    1  UNL1        0.0015
     17 C           6.4601   -3.4313   27.3715 C.ar    1  UNL1       -0.0002
     18 C           6.8418   -3.4466   25.9210 C.ar    1  UNL1       -0.0027
     19 C           7.0307   -2.1553   25.1815 C.ar    1  UNL1       -0.0042
     20 C           6.8379   -0.8487   25.8926 C.ar    1  UNL1       -0.0027
     21 C           6.4562   -0.8335   27.3431 C.ar    1  UNL1       -0.0002
     22 C           5.1222   -2.0788   32.4342 C.ar    1  UNL1        0.2250
     23 C           6.1063   -3.0915   31.9283 C.ar    1  UNL1        0.0577
     24 C           6.4880   -3.1068   30.4777 C.ar    1  UNL1        0.0063
     25 C           5.8856   -2.1094   29.5331 C.ar    1  UNL1        0.0194
     26 C           4.9015   -1.0968   30.0391 C.ar    1  UNL1        0.1020
     27 N           4.5198   -1.0815   31.4896 N.ar    1  UNL1       -0.2101
     28 C           4.9667   -0.8295   34.7069 C.3     1  UNL1        0.2542
     29 O           4.7405   -2.0636   33.8848 O.3     1  UNL1       -0.4561
     30 C           3.5232   -2.9914   19.6029 C.3     1  UNL1        0.0714
     31 C           4.2389   -4.1952   19.0657 C.3     1  UNL1        0.0922
     32 C           3.2899   -5.0900   19.8066 C.3     1  UNL1        0.0294
     33 C           5.1878   -3.3004   18.3248 C.3     1  UNL1        0.0294
     34 O           4.9546   -5.3991   18.5284 O.3     1  UNL1       -0.3866
     35 H           4.5303   -6.2041   18.8644 H       1  UNL1        0.2102
@<TRIPOS>BOND
     1    28    29    1
     2    29    22    1
     3    22    23   ar
     4    23    24   ar
     5    24    25   ar
     6    25    16    1
     7    16    17   ar
     8    17    18   ar
     9    18    19   ar
    10    19    14    1
    11    14    15    1
    12    14     1    1
    13     1     2    1
    14     2     3    1
    15     3     4    1
    16     4    30    1
    17    30    31    1
    18    31    32    1
    19    31    33    1
    20    31    34    1
    21     4     8    1
    22     8     9   ar
    23     9    10   ar
    24    10    11   ar
    25    11    12   ar
    26    12    13   ar
    27     4     5    1
    28     5     6    1
    29     6     7    2
    30    19    20   ar
    31    20    21   ar
    32    25    26   ar
    33    26    27   ar
    34    27    22   ar
    35    21    16   ar
    36     6     1   am
    37    13     8   ar
    38    34    35    1
@<TRIPOS>MOLECULE
*****
 35 38 0 0 0
SMALL
GASTEIGER

@<TRIPOS>ATOM
      1 N           1.1997    1.5512   19.5785 N.am    1  UNL1       -0.2438
      2 C           0.9108    0.0925   19.7754 C.3     1  UNL1        0.1009
      3 C           2.0406   -0.8801   19.9417 C.3     1  UNL1        0.0662
      4 C           3.4593   -0.3939   19.9111 C.3     1  UNL1        0.1600
      5 O           3.7482    1.0648   19.7143 O.3     1  UNL1       -0.4374
      6 C           2.6184    2.0373   19.5480 C.2     1  UNL1        0.4051
      7 O           2.9073    3.4960   19.3511 O.2     1  UNL1       -0.2262
      8 C           3.6910   -1.8607   20.1229 C.ar    1  UNL1        0.0138
      9 C           4.2671   -2.3496   21.4186 C.ar    1  UNL1       -0.0010
     10 C           4.4988   -3.8164   21.6304 C.ar    1  UNL1       -0.0002
     11 C           4.1545   -4.7943   20.5463 C.ar    1  UNL1       -0.0000
     12 C           3.5785   -4.3054   19.2506 C.ar    1  UNL1       -0.0002
     13 C           3.3467   -2.8386   19.0387 C.ar    1  UNL1       -0.0010
     14 C           0.0699    2.5238   19.4123 C.3     1  UNL1        0.1011
     15 C          -0.2344    3.0957   18.0594 C.3     1  UNL1        0.0265
     16 C          -2.4066    3.7258   22.9721 C.ar    1  UNL1        0.0015
     17 C          -3.0379    3.6385   21.6143 C.ar    1  UNL1       -0.0002
     18 C          -2.2125    3.2378   20.4277 C.ar    1  UNL1       -0.0027
     19 C          -0.7556    2.9244   20.5989 C.ar    1  UNL1       -0.0042
     20 C          -0.1243    3.0117   21.9567 C.ar    1  UNL1       -0.0027
     21 C          -0.9498    3.4124   23.1433 C.ar    1  UNL1       -0.0002
     22 C          -4.8831    4.9278   26.5319 C.ar    1  UNL1        0.2250
     23 C          -3.7604    3.9467   26.6961 C.ar    1  UNL1        0.0577
     24 C          -2.9349    3.5460   25.5095 C.ar    1  UNL1        0.0063
     25 C          -3.2321    4.1264   24.1587 C.ar    1  UNL1        0.0194
     26 C          -4.3547    5.1076   23.9945 C.ar    1  UNL1        0.1020
     27 N          -5.1802    5.5082   25.1811 N.ar    1  UNL1       -0.2101
     28 C          -6.8889    6.2365   27.5388 C.3     1  UNL1        0.2542
     29 O          -5.7086    5.3285   27.7185 O.3     1  UNL1       -0.4561
     30 C           4.9585   -0.4172   19.9541 C.3     1  UNL1        0.0714
     31 C           5.7469    0.5931   19.1745 C.3     1  UNL1        0.0922
     32 C           5.2754   -0.0278   17.8930 C.3     1  UNL1        0.0294
     33 C           6.2183    1.2141   20.4560 C.3     1  UNL1        0.0294
     34 O           6.5353    1.6034   18.3948 O.3     1  UNL1       -0.3866
     35 H           6.4178    1.4426   17.4455 H       1  UNL1        0.2102
@<TRIPOS>BOND
     1    28    29    1
     2    29    22    1
     3    22    23   ar
     4    23    24   ar
     5    24    25   ar
     6    25    16    1
     7    16    17   ar
     8    17    18   ar
     9    18    19   ar
    10    19    14    1
    11    14    15    1
    12    14     1    1
    13     1     2    1
    14     2     3    1
    15     3     4    1
    16     4    30    1
    17    30    31    1
    18    31    32    1
    19    31    33    1
    20    31    34    1
    21     4     8    1
    22     8     9   ar
    23     9    10   ar
    24    10    11   ar
    25    11    12   ar
    26    12    13   ar
    27     4     5    1
    28     5     6    1
    29     6     7    2
    30    19    20   ar
    31    20    21   ar
    32    25    26   ar
    33    26    27   ar
    34    27    22   ar
    35    21    16   ar
    36     6     1   am
    37    13     8   ar
    38    34    35    1
@<TRIPOS>MOLECULE
*****
 35 38 0 0 0
SMALL
GASTEIGER

@<TRIPOS>ATOM
      1 N         -15.6365    0.5935   18.7451 N.am    1  UNL1       -0.2438
      2 C         -15.9892   -0.7165   19.3852 C.3     1  UNL1        0.1009
      3 C         -15.1394   -1.9268   19.1339 C.3     1  UNL1        0.0662
      4 C         -13.9371   -1.8272   18.2426 C.3     1  UNL1        0.1600
      5 O         -13.5844   -0.5172   17.6026 O.3     1  UNL1       -0.4374
      6 C         -14.4341    0.6931   17.8538 C.2     1  UNL1        0.4051
      7 O         -14.0814    2.0031   17.2138 O.2     1  UNL1       -0.2262
      8 C         -13.8633   -3.2774   18.6184 C.ar    1  UNL1        0.0138
      9 C         -13.8478   -4.3294   17.5493 C.ar    1  UNL1       -0.0010
     10 C         -13.7740   -5.7797   17.9251 C.ar    1  UNL1       -0.0002
     11 C         -13.7157   -6.1780   19.3701 C.ar    1  UNL1       -0.0000
     12 C         -13.7312   -5.1261   20.4393 C.ar    1  UNL1       -0.0002
     13 C         -13.8050   -3.6757   20.0635 C.ar    1  UNL1       -0.0010
     14 C         -16.4862    1.8038   18.9964 C.3     1  UNL1        0.1011
     15 C         -17.3590    2.3472   17.9042 C.3     1  UNL1        0.0265
     16 C         -16.4167    3.8044   23.0266 C.ar    1  UNL1        0.0015
     17 C         -15.5812    4.3472   21.9053 C.ar    1  UNL1       -0.0002
     18 C         -15.6044    3.6803   20.5619 C.ar    1  UNL1       -0.0027
     19 C         -16.4630    2.4707   20.3398 C.ar    1  UNL1       -0.0042
     20 C         -17.2985    1.9279   21.4611 C.ar    1  UNL1       -0.0027
     21 C         -17.2754    2.5948   22.8045 C.ar    1  UNL1       -0.0002
     22 C         -16.3473    5.8051   27.0568 C.ar    1  UNL1        0.2250
     23 C         -15.1031    5.1658   26.5153 C.ar    1  UNL1        0.0577
     24 C         -15.1263    4.4989   25.1719 C.ar    1  UNL1        0.0063
     25 C         -16.3936    4.4713   24.3700 C.ar    1  UNL1        0.0194
     26 C         -17.6378    5.1106   24.9115 C.ar    1  UNL1        0.1020
     27 N         -17.6146    5.7775   26.2549 N.ar    1  UNL1       -0.2101
     28 C         -17.3164    6.0740   29.4523 C.3     1  UNL1        0.2542
     29 O         -16.3242    6.4720   28.4002 O.3     1  UNL1       -0.4561
     30 C         -12.7091   -2.2312   17.4818 C.3     1  UNL1        0.0714
     31 C         -11.5031   -1.3392   17.4761 C.3     1  UNL1        0.0922
     32 C         -11.4189   -1.4434   18.9701 C.3     1  UNL1        0.0294
     33 C         -11.5873   -1.2350   15.9820 C.3     1  UNL1        0.0294
     34 O         -10.2971   -0.4472   17.4703 O.3     1  UNL1       -0.3866
     35 H          -9.9858   -0.3185   18.3800 H       1  UNL1        0.2102
@<TRIPOS>BOND
     1    28    29    1
     2    29    22    1
     3    22    23   ar
     4    23    24   ar
     5    24    25   ar
     6    25    16    1
     7    16    17   ar
     8    17    18   ar
     9    18    19   ar
    10    19    14    1
    11    14    15    1
    12    14     1    1
    13     1     2    1
    14     2     3    1
    15     3     4    1
    16     4    30    1
    17    30    31    1
    18    31    32    1
    19    31    33    1
    20    31    34    1
    21     4     8    1
    22     8     9   ar
    23     9    10   ar
    24    10    11   ar
    25    11    12   ar
    26    12    13   ar
    27     4     5    1
    28     5     6    1
    29     6     7    2
    30    19    20   ar
    31    20    21   ar
    32    25    26   ar
    33    26    27   ar
    34    27    22   ar
    35    21    16   ar
    36     6     1   am
    37    13     8   ar
    38    34    35    1
@<TRIPOS>MOLECULE
*****
 35 38 0 0 0
SMALL
GASTEIGER

@<TRIPOS>ATOM
      1 N           3.3070    0.6836   23.2494 N.am    1  UNL1       -0.2438
      2 C           3.1783   -0.8058   23.1263 C.3     1  UNL1        0.1009
      3 C           3.6578   -1.5001   21.8861 C.3     1  UNL1        0.0662
      4 C           4.2660   -0.7051   20.7691 C.3     1  UNL1        0.1600
      5 O           4.3947    0.7843   20.8921 O.3     1  UNL1       -0.4374
      6 C           3.9152    1.4787   22.1322 C.2     1  UNL1        0.4051
      7 O           4.0439    2.9681   22.2553 O.2     1  UNL1       -0.2262
      8 C           4.3599   -2.0847   20.1880 C.ar    1  UNL1        0.0138
      9 C           5.6832   -2.7893   20.1385 C.ar    1  UNL1       -0.0010
     10 C           5.7770   -4.1689   19.5574 C.ar    1  UNL1       -0.0002
     11 C           4.5476   -4.8441   19.0258 C.ar    1  UNL1       -0.0000
     12 C           3.2243   -4.1396   19.0753 C.ar    1  UNL1       -0.0002
     13 C           3.1304   -2.7599   19.6564 C.ar    1  UNL1       -0.0010
     14 C           2.8274    1.3779   24.4895 C.3     1  UNL1        0.1011
     15 C           3.7530    1.5522   25.6569 C.3     1  UNL1        0.0265
     16 C          -1.3879    2.9379   24.7077 C.ar    1  UNL1        0.0015
     17 C          -0.5252    3.2705   23.5265 C.ar    1  UNL1       -0.0002
     18 C           0.8799    2.7506   23.4538 C.ar    1  UNL1       -0.0027
     19 C           1.4223    1.8979   24.5622 C.ar    1  UNL1       -0.0042
     20 C           0.5597    1.5652   25.7434 C.ar    1  UNL1       -0.0027
     21 C          -0.8454    2.0852   25.8161 C.ar    1  UNL1       -0.0002
     22 C          -5.6032    4.4978   24.9258 C.ar    1  UNL1        0.2250
     23 C          -4.7979    4.3348   26.1808 C.ar    1  UNL1        0.0577
     24 C          -3.3928    3.8148   26.1081 C.ar    1  UNL1        0.0063
     25 C          -2.7930    3.4579   24.7804 C.ar    1  UNL1        0.0194
     26 C          -3.5982    3.6209   23.5255 C.ar    1  UNL1        0.1020
     27 N          -5.0033    4.1409   23.5982 N.ar    1  UNL1       -0.2101
     28 C          -7.9462    4.8081   23.8469 C.3     1  UNL1        0.2542
     29 O          -7.0083    5.0178   24.9986 O.3     1  UNL1       -0.4561
     30 C           4.9069   -0.3891   19.4502 C.3     1  UNL1        0.0714
     31 C           4.7067    0.9586   18.8228 C.3     1  UNL1        0.0922
     32 C           3.2801    0.6064   18.5214 C.3     1  UNL1        0.0294
     33 C           6.1333    1.3109   19.1242 C.3     1  UNL1        0.0294
     34 O           4.5065    2.3064   18.1954 O.3     1  UNL1       -0.3866
     35 H           3.5936    2.3822   17.8764 H       1  UNL1        0.2102
@<TRIPOS>BOND
     1    28    29    1
     2    29    22    1
     3    22    23   ar
     4    23    24   ar
     5    24    25   ar
     6    25    16    1
     7    16    17   ar
     8    17    18   ar
     9    18    19   ar
    10    19    14    1
    11    14    15    1
    12    14     1    1
    13     1     2    1
    14     2     3    1
    15     3     4    1
    16     4    30    1
    17    30    31    1
    18    31    32    1
    19    31    33    1
    20    31    34    1
    21     4     8    1
    22     8     9   ar
    23     9    10   ar
    24    10    11   ar
    25    11    12   ar
    26    12    13   ar
    27     4     5    1
    28     5     6    1
    29     6     7    2
    30    19    20   ar
    31    20    21   ar
    32    25    26   ar
    33    26    27   ar
    34    27    22   ar
    35    21    16   ar
    36     6     1   am
    37    13     8   ar
    38    34    35    1
@<TRIPOS>MOLECULE
*****
 35 38 0 0 0
SMALL
GASTEIGER

@<TRIPOS>ATOM
      1 N           2.1386    1.7042   23.0008 N.am    1  UNL1       -0.2438
      2 C           2.2092    0.2338   23.2886 C.3     1  UNL1        0.1009
      3 C           2.7945   -0.7020   22.2728 C.3     1  UNL1        0.0662
      4 C           3.3091   -0.1673   20.9692 C.3     1  UNL1        0.1600
      5 O           3.2384    1.3032   20.6815 O.3     1  UNL1       -0.4374
      6 C           2.6532    2.2389   21.6972 C.2     1  UNL1        0.4051
      7 O           2.5825    3.7094   21.4094 O.2     1  UNL1       -0.2262
      8 C           3.5927   -1.6282   20.7817 C.ar    1  UNL1        0.0138
      9 C           3.1770   -2.3164   19.5154 C.ar    1  UNL1       -0.0010
     10 C           3.4606   -3.7773   19.3278 C.ar    1  UNL1       -0.0002
     11 C           4.1599   -4.5501   20.4066 C.ar    1  UNL1       -0.0000
     12 C           4.5755   -3.8620   21.6729 C.ar    1  UNL1       -0.0002
     13 C           4.2920   -2.4010   21.8605 C.ar    1  UNL1       -0.0010
     14 C           1.5533    2.6400   24.0166 C.3     1  UNL1        0.1011
     15 C           2.4356    3.2662   25.0555 C.3     1  UNL1        0.0265
     16 C          -2.8493    3.5685   23.9472 C.ar    1  UNL1        0.0015
     17 C          -2.1762    3.2221   25.2422 C.ar    1  UNL1       -0.0002
     18 C          -0.7086    2.9126   25.2653 C.ar    1  UNL1       -0.0027
     19 C           0.0858    2.9495   23.9935 C.ar    1  UNL1       -0.0042
     20 C          -0.5874    3.2959   22.6986 C.ar    1  UNL1       -0.0027
     21 C          -2.0549    3.6054   22.6755 C.ar    1  UNL1       -0.0002
     22 C          -7.2519    4.4970   23.8779 C.ar    1  UNL1        0.2250
     23 C          -6.5792    3.9603   22.6493 C.ar    1  UNL1        0.0577
     24 C          -5.1116    3.6508   22.6725 C.ar    1  UNL1        0.0063
     25 C          -4.3169    3.8780   23.9241 C.ar    1  UNL1        0.0194
     26 C          -4.9896    4.4147   25.1526 C.ar    1  UNL1        0.1020
     27 N          -6.4572    4.7242   25.1295 N.ar    1  UNL1       -0.2101
     28 C          -9.2486    5.9889   24.6109 C.3     1  UNL1        0.2542
     29 O          -8.7195    4.8065   23.8548 O.3     1  UNL1       -0.4561
     30 C           3.9222   -0.1399   19.6005 C.3     1  UNL1        0.0714
     31 C           4.8298    0.9879   19.2077 C.3     1  UNL1        0.0922
     32 C           3.7999    1.4771   18.2329 C.3     1  UNL1        0.0294
     33 C           5.8596    0.4987   20.1824 C.3     1  UNL1        0.0294
     34 O           5.7374    2.1157   18.8148 O.3     1  UNL1       -0.3866
     35 H           5.3051    2.6571   18.1358 H       1  UNL1        0.2102
@<TRIPOS>BOND
     1    28    29    1
     2    29    22    1
     3    22    23   ar
     4    23    24   ar
     5    24    25   ar
     6    25    16    1
     7    16    17   ar
     8    17    18   ar
     9    18    19   ar
    10    19    14    1
    11    14    15    1
    12    14     1    1
    13     1     2    1
    14     2     3    1
    15     3     4    1
    16     4    30    1
    17    30    31    1
    18    31    32    1
    19    31    33    1
    20    31    34    1
    21     4     8    1
    22     8     9   ar
    23     9    10   ar
    24    10    11   ar
    25    11    12   ar
    26    12    13   ar
    27     4     5    1
    28     5     6    1
    29     6     7    2
    30    19    20   ar
    31    20    21   ar
    32    25    26   ar
    33    26    27   ar
    34    27    22   ar
    35    21    16   ar
    36     6     1   am
    37    13     8   ar
    38    34    35    1
@<TRIPOS>MOLECULE
*****
 35 38 0 0 0
SMALL
GASTEIGER

@<TRIPOS>ATOM
      1 N           3.0983   -1.1609   19.7715 N.am    1  UNL1       -0.2438
      2 C           1.6343   -0.9134   19.9844 C.3     1  UNL1        0.1009
      3 C           1.0577    0.4464   19.7224 C.3     1  UNL1        0.0662
      4 C           1.9451    1.5585   19.2474 C.3     1  UNL1        0.1600
      5 O           3.4091    1.3110   19.0345 O.3     1  UNL1       -0.4374
      6 C           3.9857   -0.0487   19.2965 C.2     1  UNL1        0.4051
      7 O           5.4498   -0.2963   19.0835 O.2     1  UNL1       -0.2262
      8 C           0.6308    2.2793   19.3020 C.ar    1  UNL1        0.0138
      9 C           0.1675    3.0846   18.1244 C.ar    1  UNL1       -0.0010
     10 C          -1.1469    3.8053   18.1790 C.ar    1  UNL1       -0.0002
     11 C          -1.9980    3.7207   19.4113 C.ar    1  UNL1       -0.0000
     12 C          -1.5348    2.9155   20.5890 C.ar    1  UNL1       -0.0002
     13 C          -0.2204    2.1947   20.5344 C.ar    1  UNL1       -0.0010
     14 C           3.6749   -2.5206   20.0335 C.3     1  UNL1        0.1011
     15 C           3.5361   -3.6048   19.0062 C.3     1  UNL1        0.0265
     16 C           5.8212   -3.3473   23.9013 C.ar    1  UNL1        0.0015
     17 C           4.6471   -2.4141   23.8797 C.ar    1  UNL1       -0.0002
     18 C           3.9317   -2.1385   22.5904 C.ar    1  UNL1       -0.0027
     19 C           4.3904   -2.7962   21.3228 C.ar    1  UNL1       -0.0042
     20 C           5.5645   -3.7294   21.3444 C.ar    1  UNL1       -0.0027
     21 C           6.2799   -4.0050   22.6336 C.ar    1  UNL1       -0.0002
     22 C           7.9674   -4.1740   27.7692 C.ar    1  UNL1        0.2250
     23 C           7.6263   -5.3045   26.8443 C.ar    1  UNL1        0.0577
     24 C           6.9109   -5.0290   25.5550 C.ar    1  UNL1        0.0063
     25 C           6.5366   -3.6229   25.1906 C.ar    1  UNL1        0.0194
     26 C           6.8778   -2.4924   26.1155 C.ar    1  UNL1        0.1020
     27 N           7.5932   -2.7680   27.4048 N.ar    1  UNL1       -0.2101
     28 C           8.4661   -5.7503   29.7733 C.3     1  UNL1        0.2542
     29 O           8.6828   -4.4496   29.0584 O.3     1  UNL1       -0.4561
     30 C           2.3761    2.9210   18.7914 C.3     1  UNL1        0.0714
     31 C           3.6742    3.4975   19.2738 C.3     1  UNL1        0.0922
     32 C           4.1582    3.5928   17.8572 C.3     1  UNL1        0.0294
     33 C           3.1901    3.4022   20.6903 C.3     1  UNL1        0.0294
     34 O           4.9723    4.0741   19.7561 O.3     1  UNL1       -0.3866
     35 H           5.5472    4.2565   18.9964 H       1  UNL1        0.2102
@<TRIPOS>BOND
     1    28    29    1
     2    29    22    1
     3    22    23   ar
     4    23    24   ar
     5    24    25   ar
     6    25    16    1
     7    16    17   ar
     8    17    18   ar
     9    18    19   ar
    10    19    14    1
    11    14    15    1
    12    14     1    1
    13     1     2    1
    14     2     3    1
    15     3     4    1
    16     4    30    1
    17    30    31    1
    18    31    32    1
    19    31    33    1
    20    31    34    1
    21     4     8    1
    22     8     9   ar
    23     9    10   ar
    24    10    11   ar
    25    11    12   ar
    26    12    13   ar
    27     4     5    1
    28     5     6    1
    29     6     7    2
    30    19    20   ar
    31    20    21   ar
    32    25    26   ar
    33    26    27   ar
    34    27    22   ar
    35    21    16   ar
    36     6     1   am
    37    13     8   ar
    38    34    35    1
@<TRIPOS>MOLECULE
*****
 35 38 0 0 0
SMALL
GASTEIGER

@<TRIPOS>ATOM
      1 N           2.2304    1.6301   20.1082 N.am    1  UNL1       -0.2438
      2 C           3.0466    1.6484   21.3666 C.3     1  UNL1        0.1009
      3 C           3.8048    0.4241   21.7867 C.3     1  UNL1        0.0662
      4 C           3.7468   -0.8184   20.9483 C.3     1  UNL1        0.1600
      5 O           2.9306   -0.8367   19.6899 O.3     1  UNL1       -0.4374
      6 C           2.1724    0.3875   19.2699 C.2     1  UNL1        0.4051
      7 O           1.3563    0.3692   18.0115 O.2     1  UNL1       -0.2262
      8 C           4.6520   -1.2882   22.0482 C.ar    1  UNL1        0.0138
      9 C           5.8212   -0.4477   22.4679 C.ar    1  UNL1       -0.0010
     10 C           6.7264   -0.9175   23.5678 C.ar    1  UNL1       -0.0002
     11 C           6.4624   -2.2281   24.2480 C.ar    1  UNL1       -0.0000
     12 C           5.2932   -3.0688   23.8284 C.ar    1  UNL1       -0.0002
     13 C           4.3879   -2.5989   22.7285 C.ar    1  UNL1       -0.0010
     14 C           1.4722    2.8543   19.6882 C.3     1  UNL1        0.1011
     15 C           2.1011    3.8404   18.7491 C.3     1  UNL1        0.0265
     16 C          -2.6890    3.5683   21.2453 C.ar    1  UNL1        0.0015
     17 C          -1.5871    3.1967   22.1928 C.ar    1  UNL1       -0.0002
     18 C          -0.2001    2.9587   21.6737 C.ar    1  UNL1       -0.0027
     19 C           0.0851    3.0923   20.2072 C.ar    1  UNL1       -0.0042
     20 C          -1.0167    3.4639   19.2597 C.ar    1  UNL1       -0.0027
     21 C          -2.4038    3.7019   19.7788 C.ar    1  UNL1       -0.0002
     22 C          -6.8502    4.2823   22.8024 C.ar    1  UNL1        0.2250
     23 C          -6.5526    4.4697   21.3442 C.ar    1  UNL1        0.0577
     24 C          -5.1655    4.2317   20.8252 C.ar    1  UNL1        0.0063
     25 C          -4.0761    3.8063   21.7643 C.ar    1  UNL1        0.0194
     26 C          -4.3736    3.6190   23.2225 C.ar    1  UNL1        0.1020
     27 N          -5.7607    3.8570   23.7415 N.ar    1  UNL1       -0.2101
     28 C          -8.4801    5.5817   24.3532 C.3     1  UNL1        0.2542
     29 O          -8.2372    4.5204   23.3214 O.3     1  UNL1       -0.4561
     30 C           4.0032   -2.2241   20.4920 C.3     1  UNL1        0.0714
     31 C           4.3186   -2.4992   19.0515 C.3     1  UNL1        0.0922
     32 C           3.2647   -3.5662   19.0245 C.3     1  UNL1        0.0294
     33 C           5.3726   -1.4321   19.0785 C.3     1  UNL1        0.0294
     34 O           4.6341   -2.7743   17.6110 O.3     1  UNL1       -0.3866
     35 H           4.0596   -3.4841   17.2841 H       1  UNL1        0.2102
@<TRIPOS>BOND
     1    28    29    1
     2    29    22    1
     3    22    23   ar
     4    23    24   ar
     5    24    25   ar
     6    25    16    1
     7    16    17   ar
     8    17    18   ar
     9    18    19   ar
    10    19    14    1
    11    14    15    1
    12    14     1    1
    13     1     2    1
    14     2     3    1
    15     3     4    1
    16     4    30    1
    17    30    31    1
    18    31    32    1
    19    31    33    1
    20    31    34    1
    21     4     8    1
    22     8     9   ar
    23     9    10   ar
    24    10    11   ar
    25    11    12   ar
    26    12    13   ar
    27     4     5    1
    28     5     6    1
    29     6     7    2
    30    19    20   ar
    31    20    21   ar
    32    25    26   ar
    33    26    27   ar
    34    27    22   ar
    35    21    16   ar
    36     6     1   am
    37    13     8   ar
    38    34    35    1
@<TRIPOS>MOLECULE
*****
 35 38 0 0 0
SMALL
GASTEIGER

@<TRIPOS>ATOM
      1 N           3.5798    0.9077   29.6999 N.am    1  UNL1       -0.2438
      2 C           4.8533    1.6968   29.7731 C.3     1  UNL1        0.1009
      3 C           5.8330    1.4387   30.8794 C.3     1  UNL1        0.0662
      4 C           5.5390    0.3916   31.9124 C.3     1  UNL1        0.1600
      5 O           4.2654   -0.3975   31.8391 O.3     1  UNL1       -0.4374
      6 C           3.2858   -0.1394   30.7329 C.2     1  UNL1        0.4051
      7 O           2.0122   -0.9285   30.6597 O.2     1  UNL1       -0.2262
      8 C           6.8711    0.8753   32.4036 C.ar    1  UNL1        0.0138
      9 C           7.0246    1.3378   33.8222 C.ar    1  UNL1       -0.0010
     10 C           8.3568    1.8215   34.3134 C.ar    1  UNL1       -0.0002
     11 C           9.5355    1.8428   33.3860 C.ar    1  UNL1       -0.0000
     12 C           9.3821    1.3803   31.9674 C.ar    1  UNL1       -0.0002
     13 C           8.0499    0.8966   31.4761 C.ar    1  UNL1       -0.0010
     14 C           2.6001    1.1658   28.5937 C.3     1  UNL1        0.1011
     15 C           1.4076    2.0424   28.8373 C.3     1  UNL1        0.0265
     16 C           3.2388   -0.6899   24.5442 C.ar    1  UNL1        0.0015
     17 C           3.8825   -1.2950   25.7564 C.ar    1  UNL1       -0.0002
     18 C           3.6696   -0.6764   27.1063 C.ar    1  UNL1       -0.0027
     19 C           2.8130    0.5472   27.2438 C.ar    1  UNL1       -0.0042
     20 C           2.1694    1.1523   26.0316 C.ar    1  UNL1       -0.0027
     21 C           2.3823    0.5337   24.6818 C.ar    1  UNL1       -0.0002
     22 C           3.8775   -2.5457   20.4947 C.ar    1  UNL1        0.2250
     23 C           2.9684   -1.3618   20.6422 C.ar    1  UNL1        0.0577
     24 C           2.7555   -0.7432   21.9920 C.ar    1  UNL1        0.0063
     25 C           3.4517   -1.3085   23.1944 C.ar    1  UNL1        0.0194
     26 C           4.3609   -2.4924   23.0468 C.ar    1  UNL1        0.1020
     27 N           4.5738   -3.1110   21.6970 N.ar    1  UNL1       -0.2101
     28 C           4.0975   -4.6568   18.9966 C.3     1  UNL1        0.2542
     29 O           4.0904   -3.1642   19.1449 O.3     1  UNL1       -0.4561
     30 C           5.7076   -0.4876   33.1160 C.3     1  UNL1        0.0714
     31 C           5.1930   -1.8964   33.0937 C.3     1  UNL1        0.0922
     32 C           6.1331   -2.2221   31.9712 C.3     1  UNL1        0.0294
     33 C           4.2528   -1.5706   34.2163 C.3     1  UNL1        0.0294
     34 O           4.6783   -3.3052   33.0715 O.3     1  UNL1       -0.3866
     35 H           5.1405   -3.8074   32.3823 H       1  UNL1        0.2102
@<TRIPOS>BOND
     1    28    29    1
     2    29    22    1
     3    22    23   ar
     4    23    24   ar
     5    24    25   ar
     6    25    16    1
     7    16    17   ar
     8    17    18   ar
     9    18    19   ar
    10    19    14    1
    11    14    15    1
    12    14     1    1
    13     1     2    1
    14     2     3    1
    15     3     4    1
    16     4    30    1
    17    30    31    1
    18    31    32    1
    19    31    33    1
    20    31    34    1
    21     4     8    1
    22     8     9   ar
    23     9    10   ar
    24    10    11   ar
    25    11    12   ar
    26    12    13   ar
    27     4     5    1
    28     5     6    1
    29     6     7    2
    30    19    20   ar
    31    20    21   ar
    32    25    26   ar
    33    26    27   ar
    34    27    22   ar
    35    21    16   ar
    36     6     1   am
    37    13     8   ar
    38    34    35    1
@<TRIPOS>MOLECULE
*****
 35 38 0 0 0
SMALL
GASTEIGER

@<TRIPOS>ATOM
      1 N           5.4245   -0.8400   19.7534 N.am    1  UNL1       -0.2438
      2 C           5.9798    0.4778   20.2059 C.3     1  UNL1        0.1009
      3 C           5.0700    1.6594   20.3674 C.3     1  UNL1        0.0662
      4 C           3.6048    1.5232   20.0763 C.3     1  UNL1        0.1600
      5 O           3.0495    0.2053   19.6237 O.3     1  UNL1       -0.4374
      6 C           3.9593   -0.9763   19.4623 C.2     1  UNL1        0.4051
      7 O           3.4039   -2.2942   19.0097 O.2     1  UNL1       -0.2262
      8 C           3.6577    2.9679   20.4760 C.ar    1  UNL1        0.0138
      9 C           3.1942    4.0278   19.5211 C.ar    1  UNL1       -0.0010
     10 C           3.2471    5.4725   19.9207 C.ar    1  UNL1       -0.0002
     11 C           3.7635    5.8575   21.2754 C.ar    1  UNL1       -0.0000
     12 C           4.2271    4.7978   22.2304 C.ar    1  UNL1       -0.0002
     13 C           4.1742    3.3529   21.8307 C.ar    1  UNL1       -0.0010
     14 C           6.3343   -2.0216   19.5919 C.3     1  UNL1        0.1011
     15 C           6.9386   -2.3254   18.2531 C.3     1  UNL1        0.0265
     16 C           7.2506   -4.6551   23.1240 C.ar    1  UNL1        0.0015
     17 C           6.0220   -3.7946   23.1287 C.ar    1  UNL1       -0.0002
     18 C           5.7166   -2.9168   21.9514 C.ar    1  UNL1       -0.0027
     19 C           6.6397   -2.8994   20.7693 C.ar    1  UNL1       -0.0042
     20 C           7.8684   -3.7599   20.7645 C.ar    1  UNL1       -0.0027
     21 C           8.1738   -4.6377   21.9419 C.ar    1  UNL1       -0.0002
     22 C           8.1670   -7.2885   26.6560 C.ar    1  UNL1        0.2250
     23 C           8.5908   -7.7061   25.2791 C.ar    1  UNL1        0.0577
     24 C           8.2854   -6.8283   24.1018 C.ar    1  UNL1        0.0063
     25 C           7.5561   -5.5329   24.3013 C.ar    1  UNL1        0.0194
     26 C           7.1323   -5.1152   25.6782 C.ar    1  UNL1        0.1020
     27 N           7.4377   -5.9930   26.8555 N.ar    1  UNL1       -0.2101
     28 C           8.3066   -9.6530   27.7234 C.3     1  UNL1        0.2542
     29 O           8.4725   -8.1663   27.8333 O.3     1  UNL1       -0.4561
     30 C           2.1581    1.8886   19.9240 C.3     1  UNL1        0.0714
     31 C           1.0956    0.8534   20.1466 C.3     1  UNL1        0.0922
     32 C           0.8115    0.8283   18.6739 C.3     1  UNL1        0.0294
     33 C           1.3796    0.8786   21.6193 C.3     1  UNL1        0.0294
     34 O           0.0331   -0.1818   20.3692 O.3     1  UNL1       -0.3866
     35 H          -0.3691   -0.4203   19.5193 H       1  UNL1        0.2102
@<TRIPOS>BOND
     1    28    29    1
     2    29    22    1
     3    22    23   ar
     4    23    24   ar
     5    24    25   ar
     6    25    16    1
     7    16    17   ar
     8    17    18   ar
     9    18    19   ar
    10    19    14    1
    11    14    15    1
    12    14     1    1
    13     1     2    1
    14     2     3    1
    15     3     4    1
    16     4    30    1
    17    30    31    1
    18    31    32    1
    19    31    33    1
    20    31    34    1
    21     4     8    1
    22     8     9   ar
    23     9    10   ar
    24    10    11   ar
    25    11    12   ar
    26    12    13   ar
    27     4     5    1
    28     5     6    1
    29     6     7    2
    30    19    20   ar
    31    20    21   ar
    32    25    26   ar
    33    26    27   ar
    34    27    22   ar
    35    21    16   ar
    36     6     1   am
    37    13     8   ar
    38    34    35    1
