@<TRIPOS>MOLECULE
*****
 30 32 0 0 0
SMALL
GASTEIGER

@<TRIPOS>ATOM
      1 C          -9.9911  -18.8930   19.6144 C.3     1  UNL1        0.1152
      2 N          -9.1239  -18.5861   20.7991 N.am    1  UNL1       -0.2729
      3 C          -7.8021  -19.2766   20.9600 C.2     1  UNL1        0.2459
      4 O          -7.3475  -20.2741   19.9361 O.2     1  UNL1       -0.2730
      5 C          -6.9348  -18.9696   22.1448 C.3     1  UNL1        0.1738
      6 N          -5.5772  -19.5965   22.2630 N.pl3   1  UNL1       -0.3253
      7 H          -5.4849  -20.5052   22.6306 H       1  UNL1        0.1473
      8 C          -4.3602  -18.8391   21.8211 C.ar    1  UNL1        0.0459
      9 C          -3.6506  -17.9328   22.7829 C.ar    1  UNL1        0.0152
     10 C          -2.4337  -17.1754   22.3409 C.ar    1  UNL1        0.0135
     11 C          -1.9264  -17.3243   20.9372 C.ar    1  UNL1        0.0683
     12 CL         -0.7093  -16.5668   20.4953 Cl      1  UNL1       -0.0814
     13 C          -2.6360  -18.2305   19.9754 C.ar    1  UNL1        0.0694
     14 CL         -2.1286  -18.3794   18.5717 Cl      1  UNL1       -0.0813
     15 C          -3.8529  -18.9879   20.4173 C.ar    1  UNL1        0.0265
     16 C          -9.5785  -17.5885   21.8230 C.3     1  UNL1        0.1139
     17 C         -10.7527  -17.8992   22.7031 C.ar    1  UNL1       -0.0029
     18 C         -12.0740  -17.2346   22.4530 C.ar    1  UNL1       -0.0026
     19 C         -13.2483  -17.5453   23.3331 C.ar    1  UNL1       -0.0003
     20 C         -13.1013  -18.5205   24.4632 C.ar    1  UNL1       -0.0000
     21 C         -11.7800  -19.1851   24.7133 C.ar    1  UNL1       -0.0003
     22 C         -10.6058  -18.8744   23.8333 C.ar    1  UNL1       -0.0026
     23 C          -8.8588  -16.2804   21.9668 C.3     1  UNL1        0.0968
     24 N          -8.2996  -15.8744   23.2982 N.3     1  UNL1       -0.2689
     25 C          -9.0450  -15.8585   24.5998 C.3     1  UNL1        0.0748
     26 C          -8.1029  -15.3873   25.6677 C.3     1  UNL1        0.0480
     27 C          -6.7753  -15.1120   25.0262 C.3     1  UNL1        0.1278
     28 O          -5.5425  -14.6218   25.7261 O.3     1  UNL1       -0.3830
     29 C          -6.8968  -15.4131   23.5617 C.3     1  UNL1        0.1017
     30 H          -4.8223  -14.5258   25.0834 H       1  UNL1        0.2104
@<TRIPOS>BOND
     1     1     2    1
     2     2     3   am
     3     3     4    2
     4     3     5    1
     5     5     6    1
     6     6     8    1
     7     8     9   ar
     8     9    10   ar
     9    10    11   ar
    10    11    12    1
    11    11    13   ar
    12    13    14    1
    13    13    15   ar
    14     2    16    1
    15    16    23    1
    16    23    24    1
    17    24    25    1
    18    25    26    1
    19    26    27    1
    20    27    28    1
    21    27    29    1
    22    16    17    1
    23    17    18   ar
    24    18    19   ar
    25    19    20   ar
    26    20    21   ar
    27    21    22   ar
    28    15     8   ar
    29    29    24    1
    30    22    17   ar
    31     6     7    1
    32    28    30    1
@<TRIPOS>MOLECULE
*****
 30 32 0 0 0
SMALL
GASTEIGER

@<TRIPOS>ATOM
      1 C          -8.8740  -16.0971   21.7111 C.3     1  UNL1        0.1152
      2 N          -8.4415  -17.3476   22.4175 N.am    1  UNL1       -0.2729
      3 C          -7.6603  -18.3939   21.6793 C.2     1  UNL1        0.2459
      4 O          -7.3115  -18.1896   20.2348 O.2     1  UNL1       -0.2730
      5 C          -7.2277  -19.6445   22.3857 C.3     1  UNL1        0.1738
      6 N          -5.8549  -20.2017   22.1513 N.pl3   1  UNL1       -0.3253
      7 H          -5.7076  -21.1748   22.1771 H       1  UNL1        0.1473
      8 C          -4.7065  -19.2762   21.8776 C.ar    1  UNL1        0.0459
      9 C          -4.2515  -18.3129   22.9334 C.ar    1  UNL1        0.0152
     10 C          -3.1032  -17.3875   22.6597 C.ar    1  UNL1        0.0135
     11 C          -2.4099  -17.4255   21.3300 C.ar    1  UNL1        0.0683
     12 CL         -1.2615  -16.5000   21.0563 Cl      1  UNL1       -0.0814
     13 C          -2.8649  -18.3888   20.2742 C.ar    1  UNL1        0.0694
     14 CL         -2.1716  -18.4267   18.9445 Cl      1  UNL1       -0.0813
     15 C          -4.0132  -19.3142   20.5479 C.ar    1  UNL1        0.0265
     16 C          -8.7903  -17.5519   23.8620 C.3     1  UNL1        0.1139
     17 C          -8.1050  -16.7403   24.9210 C.ar    1  UNL1       -0.0029
     18 C          -8.7026  -16.6401   26.2932 C.ar    1  UNL1       -0.0026
     19 C          -8.0173  -15.8284   27.3523 C.ar    1  UNL1       -0.0003
     20 C          -6.7344  -15.1170   27.0392 C.ar    1  UNL1       -0.0000
     21 C          -6.1368  -15.2172   25.6670 C.ar    1  UNL1       -0.0003
     22 C          -6.8221  -16.0288   24.6080 C.ar    1  UNL1       -0.0026
     23 C          -9.8243  -18.5679   24.2475 C.3     1  UNL1        0.0968
     24 N         -11.2798  -18.2748   24.0341 N.3     1  UNL1       -0.2689
     25 C         -11.8554  -17.4064   22.9549 C.3     1  UNL1        0.0748
     26 C         -13.3466  -17.3935   23.1163 C.3     1  UNL1        0.0480
     27 C         -13.6927  -18.2539   24.2952 C.3     1  UNL1        0.1278
     28 O         -15.0737  -18.5225   24.8156 O.3     1  UNL1       -0.3830
     29 C         -12.4154  -18.7986   24.8625 C.3     1  UNL1        0.1017
     30 H         -15.0204  -19.1099   25.5857 H       1  UNL1        0.2104
@<TRIPOS>BOND
     1     1     2    1
     2     2     3   am
     3     3     4    2
     4     3     5    1
     5     5     6    1
     6     6     8    1
     7     8     9   ar
     8     9    10   ar
     9    10    11   ar
    10    11    12    1
    11    11    13   ar
    12    13    14    1
    13    13    15   ar
    14     2    16    1
    15    16    23    1
    16    23    24    1
    17    24    25    1
    18    25    26    1
    19    26    27    1
    20    27    28    1
    21    27    29    1
    22    16    17    1
    23    17    18   ar
    24    18    19   ar
    25    19    20   ar
    26    20    21   ar
    27    21    22   ar
    28    15     8   ar
    29    29    24    1
    30    22    17   ar
    31     6     7    1
    32    28    30    1
@<TRIPOS>MOLECULE
*****
 30 32 0 0 0
SMALL
GASTEIGER

@<TRIPOS>ATOM
      1 C          -8.0964  -15.2607   21.6852 C.3     1  UNL1        0.1152
      2 N          -8.2268  -16.5482   22.4436 N.am    1  UNL1       -0.2729
      3 C          -7.7670  -17.8341   21.8230 C.2     1  UNL1        0.2459
      4 O          -7.1768  -17.8323   20.4440 O.2     1  UNL1       -0.2730
      5 C          -7.8974  -19.1217   22.5814 C.3     1  UNL1        0.1738
      6 N          -6.8957  -20.2188   22.3743 N.pl3   1  UNL1       -0.3253
      7 H          -7.1283  -21.1475   22.6037 H       1  UNL1        0.1473
      8 C          -5.5394  -19.9009   21.8178 C.ar    1  UNL1        0.0459
      9 C          -5.1312  -20.4442   20.4806 C.ar    1  UNL1        0.0152
     10 C          -3.7751  -20.1263   19.9242 C.ar    1  UNL1        0.0135
     11 C          -2.8271  -19.2651   20.7049 C.ar    1  UNL1        0.0683
     12 CL         -1.4708  -18.9472   20.1484 Cl      1  UNL1       -0.0814
     13 C          -3.2352  -18.7218   22.0421 C.ar    1  UNL1        0.0694
     14 CL         -2.2872  -17.8605   22.8229 Cl      1  UNL1       -0.0813
     15 C          -4.5914  -19.0397   22.5986 C.ar    1  UNL1        0.0265
     16 C          -8.8169  -16.5500   23.8226 C.3     1  UNL1        0.1139
     17 C          -7.9879  -16.1128   24.9937 C.ar    1  UNL1       -0.0029
     18 C          -8.5846  -16.0942   26.3698 C.ar    1  UNL1       -0.0026
     19 C          -7.7556  -15.6569   27.5410 C.ar    1  UNL1       -0.0003
     20 C          -6.3298  -15.2383   27.3360 C.ar    1  UNL1       -0.0000
     21 C          -5.7331  -15.2569   25.9599 C.ar    1  UNL1       -0.0003
     22 C          -6.5621  -15.6941   24.7888 C.ar    1  UNL1       -0.0026
     23 C         -10.2361  -16.9889   24.0305 C.3     1  UNL1        0.0968
     24 N         -11.1715  -17.0812   22.8616 N.3     1  UNL1       -0.2689
     25 C         -11.9827  -18.2820   22.4742 C.3     1  UNL1        0.0748
     26 C         -12.7725  -17.9319   21.2479 C.3     1  UNL1        0.0480
     27 C         -12.4494  -16.5147   20.8775 C.3     1  UNL1        0.1278
     28 O         -13.0162  -15.7564   19.7140 O.3     1  UNL1       -0.3830
     29 C         -11.4599  -15.9889   21.8747 C.3     1  UNL1        0.1017
     30 H         -12.6438  -14.8608   19.6994 H       1  UNL1        0.2104
@<TRIPOS>BOND
     1     1     2    1
     2     2     3   am
     3     3     4    2
     4     3     5    1
     5     5     6    1
     6     6     8    1
     7     8     9   ar
     8     9    10   ar
     9    10    11   ar
    10    11    12    1
    11    11    13   ar
    12    13    14    1
    13    13    15   ar
    14     2    16    1
    15    16    23    1
    16    23    24    1
    17    24    25    1
    18    25    26    1
    19    26    27    1
    20    27    28    1
    21    27    29    1
    22    16    17    1
    23    17    18   ar
    24    18    19   ar
    25    19    20   ar
    26    20    21   ar
    27    21    22   ar
    28    15     8   ar
    29    29    24    1
    30    22    17   ar
    31     6     7    1
    32    28    30    1
@<TRIPOS>MOLECULE
*****
 30 32 0 0 0
SMALL
GASTEIGER

@<TRIPOS>ATOM
      1 C          -8.5542  -15.8199   22.0603 C.3     1  UNL1        0.1152
      2 N          -8.6367  -17.2651   22.4536 N.am    1  UNL1       -0.2729
      3 C          -7.8499  -18.2941   21.6975 C.2     1  UNL1        0.2459
      4 O          -6.9805  -17.8781   20.5481 O.2     1  UNL1       -0.2730
      5 C          -7.9324  -19.7394   22.0907 C.3     1  UNL1        0.1738
      6 N          -6.6779  -20.5153   22.3630 N.pl3   1  UNL1       -0.3253
      7 H          -6.7108  -21.3227   22.9254 H       1  UNL1        0.1473
      8 C          -5.3733  -20.0612   21.7783 C.ar    1  UNL1        0.0459
      9 C          -4.9899  -20.4749   20.3884 C.ar    1  UNL1        0.0152
     10 C          -3.6853  -20.0208   19.8038 C.ar    1  UNL1        0.0135
     11 C          -2.7641  -19.1530   20.6090 C.ar    1  UNL1        0.0683
     12 CL         -1.4595  -18.6989   20.0243 Cl      1  UNL1       -0.0814
     13 C          -3.1475  -18.7393   21.9989 C.ar    1  UNL1        0.0694
     14 CL         -2.2264  -17.8716   22.8042 Cl      1  UNL1       -0.0813
     15 C          -4.4521  -19.1935   22.5835 C.ar    1  UNL1        0.0265
     16 C          -9.5061  -17.6811   23.6030 C.3     1  UNL1        0.1139
     17 C         -10.9869  -17.8227   23.4104 C.ar    1  UNL1       -0.0029
     18 C         -11.8462  -18.3136   24.5376 C.ar    1  UNL1       -0.0026
     19 C         -13.3271  -18.4552   24.3450 C.ar    1  UNL1       -0.0003
     20 C         -13.9486  -18.1058   23.0254 C.ar    1  UNL1       -0.0000
     21 C         -13.0893  -17.6148   21.8982 C.ar    1  UNL1       -0.0003
     22 C         -11.6085  -17.4732   22.0907 C.ar    1  UNL1       -0.0026
     23 C          -8.8947  -17.9556   24.9449 C.3     1  UNL1        0.0968
     24 N          -8.1118  -16.8850   25.6455 N.3     1  UNL1       -0.2689
     25 C          -8.3775  -16.3577   27.0244 C.3     1  UNL1        0.0748
     26 C          -7.3556  -15.3006   27.3214 C.3     1  UNL1        0.0480
     27 C          -6.4583  -15.1745   26.1260 C.3     1  UNL1        0.1278
     28 O          -5.2974  -14.2343   25.9902 O.3     1  UNL1       -0.3830
     29 C          -6.9255  -16.1538   25.0902 C.3     1  UNL1        0.1017
     30 H          -4.8852  -14.3532   25.1203 H       1  UNL1        0.2104
@<TRIPOS>BOND
     1     1     2    1
     2     2     3   am
     3     3     4    2
     4     3     5    1
     5     5     6    1
     6     6     8    1
     7     8     9   ar
     8     9    10   ar
     9    10    11   ar
    10    11    12    1
    11    11    13   ar
    12    13    14    1
    13    13    15   ar
    14     2    16    1
    15    16    23    1
    16    23    24    1
    17    24    25    1
    18    25    26    1
    19    26    27    1
    20    27    28    1
    21    27    29    1
    22    16    17    1
    23    17    18   ar
    24    18    19   ar
    25    19    20   ar
    26    20    21   ar
    27    21    22   ar
    28    15     8   ar
    29    29    24    1
    30    22    17   ar
    31     6     7    1
    32    28    30    1
@<TRIPOS>MOLECULE
*****
 30 32 0 0 0
SMALL
GASTEIGER

@<TRIPOS>ATOM
      1 C          -3.2862  -17.8480   24.8619 C.3     1  UNL1        0.1152
      2 N          -4.2572  -17.6559   23.7349 N.am    1  UNL1       -0.2729
      3 C          -5.3124  -16.5937   23.8270 C.2     1  UNL1        0.2459
      4 O          -5.3965  -15.7238   25.0461 O.2     1  UNL1       -0.2730
      5 C          -6.2834  -16.4015   22.7000 C.3     1  UNL1        0.1738
      6 N          -7.4834  -15.5210   22.8859 N.pl3   1  UNL1       -0.3253
      7 H          -7.3658  -14.5622   23.0759 H       1  UNL1        0.1473
      8 C          -8.8628  -16.1013   22.7823 C.ar    1  UNL1        0.0459
      9 C          -9.4546  -16.8409   23.9453 C.ar    1  UNL1        0.0152
     10 C         -10.8339  -17.4212   23.8417 C.ar    1  UNL1        0.0135
     11 C         -11.6214  -17.2618   22.5750 C.ar    1  UNL1        0.0683
     12 CL        -13.0008  -17.8421   22.4714 Cl      1  UNL1       -0.0814
     13 C         -11.0296  -16.5221   21.4120 C.ar    1  UNL1        0.0694
     14 CL        -11.8171  -16.3627   20.1453 Cl      1  UNL1       -0.0813
     15 C          -9.6503  -15.9419   21.5156 C.ar    1  UNL1        0.0265
     16 C          -4.1731  -18.5258   22.5159 C.3     1  UNL1        0.1139
     17 C          -3.2118  -18.1848   21.4160 C.ar    1  UNL1       -0.0029
     18 C          -3.2597  -18.9357   20.1185 C.ar    1  UNL1       -0.0026
     19 C          -2.2984  -18.5947   19.0186 C.ar    1  UNL1       -0.0003
     20 C          -1.2892  -17.5027   19.2164 C.ar    1  UNL1       -0.0000
     21 C          -1.2413  -16.7517   20.5140 C.ar    1  UNL1       -0.0003
     22 C          -2.2026  -17.0927   21.6138 C.ar    1  UNL1       -0.0026
     23 C          -5.0501  -19.7367   22.3966 C.3     1  UNL1        0.0968
     24 N          -6.4345  -19.6076   21.8336 N.3     1  UNL1       -0.2689
     25 C          -7.7147  -19.8510   22.5765 C.3     1  UNL1        0.0748
     26 C          -8.8531  -19.6063   21.6309 C.3     1  UNL1        0.0480
     27 C          -8.2765  -19.2117   20.3036 C.3     1  UNL1        0.1278
     28 O          -9.0574  -18.8754   19.0679 O.3     1  UNL1       -0.3830
     29 C          -6.7817  -19.2125   20.4288 C.3     1  UNL1        0.1017
     30 H          -8.4453  -18.6545   18.3486 H       1  UNL1        0.2104
@<TRIPOS>BOND
     1     1     2    1
     2     2     3   am
     3     3     4    2
     4     3     5    1
     5     5     6    1
     6     6     8    1
     7     8     9   ar
     8     9    10   ar
     9    10    11   ar
    10    11    12    1
    11    11    13   ar
    12    13    14    1
    13    13    15   ar
    14     2    16    1
    15    16    23    1
    16    23    24    1
    17    24    25    1
    18    25    26    1
    19    26    27    1
    20    27    28    1
    21    27    29    1
    22    16    17    1
    23    17    18   ar
    24    18    19   ar
    25    19    20   ar
    26    20    21   ar
    27    21    22   ar
    28    15     8   ar
    29    29    24    1
    30    22    17   ar
    31     6     7    1
    32    28    30    1
@<TRIPOS>MOLECULE
*****
 30 32 0 0 0
SMALL
GASTEIGER

@<TRIPOS>ATOM
      1 C          -3.5861  -17.7813   25.3566 C.3     1  UNL1        0.1152
      2 N          -4.2907  -16.9915   24.2938 N.am    1  UNL1       -0.2729
      3 C          -5.2716  -15.9241   24.6789 C.2     1  UNL1        0.2459
      4 O          -5.5478  -15.6464   26.1269 O.2     1  UNL1       -0.2730
      5 C          -5.9762  -15.1342   23.6161 C.3     1  UNL1        0.1738
      6 N          -7.4469  -14.8638   23.7336 N.pl3   1  UNL1       -0.3253
      7 H          -7.7652  -13.9571   23.9479 H       1  UNL1        0.1473
      8 C          -8.4328  -15.9748   23.5246 C.ar    1  UNL1        0.0459
      9 C          -8.8831  -16.8068   24.6886 C.ar    1  UNL1        0.0152
     10 C          -9.8690  -17.9178   24.4796 C.ar    1  UNL1        0.0135
     11 C         -10.4046  -18.1968   23.1065 C.ar    1  UNL1        0.0683
     12 CL        -11.3905  -19.3078   22.8975 Cl      1  UNL1       -0.0814
     13 C          -9.9543  -17.3648   21.9425 C.ar    1  UNL1        0.0694
     14 CL        -10.4899  -17.6439   20.5694 Cl      1  UNL1       -0.0813
     15 C          -8.9684  -16.2538   22.1515 C.ar    1  UNL1        0.0265
     16 C          -4.0144  -17.2691   22.8458 C.3     1  UNL1        0.1139
     17 C          -4.6984  -18.4131   22.1577 C.ar    1  UNL1       -0.0029
     18 C          -3.8894  -19.4273   21.4048 C.ar    1  UNL1       -0.0026
     19 C          -4.5734  -20.5713   20.7166 C.ar    1  UNL1       -0.0003
     20 C          -6.0663  -20.7010   20.7815 C.ar    1  UNL1       -0.0000
     21 C          -6.8753  -19.6868   21.5344 C.ar    1  UNL1       -0.0003
     22 C          -6.1914  -18.5429   22.2225 C.ar    1  UNL1       -0.0026
     23 C          -3.0542  -16.4028   22.0860 C.3     1  UNL1        0.0968
     24 N          -2.2045  -16.9968   21.0019 N.3     1  UNL1       -0.2689
     25 C          -0.9291  -17.7611   21.2003 C.3     1  UNL1        0.0748
     26 C          -0.4174  -18.1675   19.8501 C.3     1  UNL1        0.0480
     27 C          -1.3765  -17.6544   18.8173 C.3     1  UNL1        0.1278
     28 O          -1.2529  -17.8334   17.3331 O.3     1  UNL1       -0.3830
     29 C          -2.4811  -16.9309   19.5291 C.3     1  UNL1        0.1017
     30 H          -2.0039  -17.4060   16.8923 H       1  UNL1        0.2104
@<TRIPOS>BOND
     1     1     2    1
     2     2     3   am
     3     3     4    2
     4     3     5    1
     5     5     6    1
     6     6     8    1
     7     8     9   ar
     8     9    10   ar
     9    10    11   ar
    10    11    12    1
    11    11    13   ar
    12    13    14    1
    13    13    15   ar
    14     2    16    1
    15    16    23    1
    16    23    24    1
    17    24    25    1
    18    25    26    1
    19    26    27    1
    20    27    28    1
    21    27    29    1
    22    16    17    1
    23    17    18   ar
    24    18    19   ar
    25    19    20   ar
    26    20    21   ar
    27    21    22   ar
    28    15     8   ar
    29    29    24    1
    30    22    17   ar
    31     6     7    1
    32    28    30    1
@<TRIPOS>MOLECULE
*****
 30 32 0 0 0
SMALL
GASTEIGER

@<TRIPOS>ATOM
      1 C         -15.5242   -6.4472   16.1336 C.3     1  UNL1        0.1152
      2 N         -14.9243   -6.2248   17.4902 N.am    1  UNL1       -0.2729
      3 C         -15.5084   -5.1925   18.4084 C.2     1  UNL1        0.2459
      4 O         -16.6924   -4.3826   17.9700 O.2     1  UNL1       -0.2730
      5 C         -14.9085   -4.9700   19.7652 C.3     1  UNL1        0.1738
      6 N         -14.6168   -3.5764   20.2369 N.pl3   1  UNL1       -0.3253
      7 H         -15.0684   -3.2229   21.0372 H       1  UNL1        0.1473
      8 C         -13.6371   -2.7211   19.4893 C.ar    1  UNL1        0.0459
      9 C         -12.2156   -3.1729   19.3304 C.ar    1  UNL1        0.0152
     10 C         -11.2360   -2.3177   18.5829 C.ar    1  UNL1        0.0135
     11 C         -11.6778   -1.0107   17.9942 C.ar    1  UNL1        0.0683
     12 CL        -10.6981   -0.1555   17.2466 Cl      1  UNL1       -0.0814
     13 C         -13.0993   -0.5589   18.1531 C.ar    1  UNL1        0.0694
     14 CL        -13.5411    0.7481   17.5645 Cl      1  UNL1       -0.0813
     15 C         -14.0789   -1.4141   18.9007 C.ar    1  UNL1        0.0265
     16 C         -13.7404   -7.0347   17.9287 C.3     1  UNL1        0.1139
     17 C         -12.3533   -6.4919   17.7517 C.ar    1  UNL1       -0.0029
     18 C         -11.9999   -5.7270   16.5107 C.ar    1  UNL1       -0.0026
     19 C         -10.6128   -5.1842   16.3338 C.ar    1  UNL1       -0.0003
     20 C          -9.5791   -5.4062   17.3978 C.ar    1  UNL1       -0.0000
     21 C          -9.9325   -6.1711   18.6389 C.ar    1  UNL1       -0.0003
     22 C         -11.3196   -6.7139   18.8158 C.ar    1  UNL1       -0.0026
     23 C         -13.9434   -8.3874   18.5442 C.3     1  UNL1        0.0968
     24 N         -15.3320   -8.9017   18.7836 N.3     1  UNL1       -0.2689
     25 C         -16.2672   -8.4452   19.8639 C.3     1  UNL1        0.0748
     26 C         -17.5424   -9.2241   19.7328 C.3     1  UNL1        0.0480
     27 C         -17.3954  -10.1620   18.5715 C.3     1  UNL1        0.1278
     28 O         -18.4323  -11.1293   18.0826 O.3     1  UNL1       -0.3830
     29 C         -16.0293   -9.9628   17.9848 C.3     1  UNL1        0.1017
     30 H         -18.0857  -11.6161   17.3185 H       1  UNL1        0.2104
@<TRIPOS>BOND
     1     1     2    1
     2     2     3   am
     3     3     4    2
     4     3     5    1
     5     5     6    1
     6     6     8    1
     7     8     9   ar
     8     9    10   ar
     9    10    11   ar
    10    11    12    1
    11    11    13   ar
    12    13    14    1
    13    13    15   ar
    14     2    16    1
    15    16    23    1
    16    23    24    1
    17    24    25    1
    18    25    26    1
    19    26    27    1
    20    27    28    1
    21    27    29    1
    22    16    17    1
    23    17    18   ar
    24    18    19   ar
    25    19    20   ar
    26    20    21   ar
    27    21    22   ar
    28    15     8   ar
    29    29    24    1
    30    22    17   ar
    31     6     7    1
    32    28    30    1
@<TRIPOS>MOLECULE
*****
 30 32 0 0 0
SMALL
GASTEIGER

@<TRIPOS>ATOM
      1 C         -18.0630   -5.3261   16.4295 C.3     1  UNL1        0.1152
      2 N         -17.6223   -4.9696   17.8182 N.am    1  UNL1       -0.2729
      3 C         -18.0983   -3.6964   18.4524 C.2     1  UNL1        0.2459
      4 O         -19.0150   -2.7796   17.6979 O.2     1  UNL1       -0.2730
      5 C         -17.6577   -3.3398   19.8413 C.3     1  UNL1        0.1738
      6 N         -16.8610   -2.0911   20.0780 N.pl3   1  UNL1       -0.3253
      7 H         -17.2966   -1.2938   20.4571 H       1  UNL1        0.1473
      8 C         -15.4006   -2.0573   19.7371 C.ar    1  UNL1        0.0459
      9 C         -14.4298   -2.8975   20.5126 C.ar    1  UNL1        0.0152
     10 C         -12.9695   -2.8636   20.1717 C.ar    1  UNL1        0.0135
     11 C         -12.4800   -1.9895   19.0553 C.ar    1  UNL1        0.0683
     12 CL        -11.0196   -1.9556   18.7144 Cl      1  UNL1       -0.0814
     13 C         -13.4508   -1.1492   18.2798 C.ar    1  UNL1        0.0694
     14 CL        -12.9614   -0.2751   17.1635 Cl      1  UNL1       -0.0813
     15 C         -14.9112   -1.1831   18.6208 C.ar    1  UNL1        0.0265
     16 C         -16.7057   -5.8864   18.5728 C.3     1  UNL1        0.1139
     17 C         -15.2217   -5.7909   18.3768 C.ar    1  UNL1       -0.0029
     18 C         -14.2942   -6.5144   19.3076 C.ar    1  UNL1       -0.0026
     19 C         -12.8101   -6.4190   19.1116 C.ar    1  UNL1       -0.0003
     20 C         -12.2535   -5.6001   17.9848 C.ar    1  UNL1       -0.0000
     21 C         -13.1810   -4.8767   17.0540 C.ar    1  UNL1       -0.0003
     22 C         -14.6650   -4.9721   17.2500 C.ar    1  UNL1       -0.0026
     23 C         -17.2731   -6.8985   19.5233 C.3     1  UNL1        0.0968
     24 N         -17.4866   -8.3133   19.0729 N.3     1  UNL1       -0.2689
     25 C         -18.4531   -8.7668   18.0192 C.3     1  UNL1        0.0748
     26 C         -18.3350  -10.2567   17.8922 C.3     1  UNL1        0.0480
     27 C         -17.2954  -10.7241   18.8674 C.3     1  UNL1        0.1278
     28 O         -16.8571  -12.1433   19.0762 O.3     1  UNL1       -0.3830
     29 C         -16.7711   -9.5230   19.5972 C.3     1  UNL1        0.1017
     30 H         -16.1734  -12.1727   19.7637 H       1  UNL1        0.2104
@<TRIPOS>BOND
     1     1     2    1
     2     2     3   am
     3     3     4    2
     4     3     5    1
     5     5     6    1
     6     6     8    1
     7     8     9   ar
     8     9    10   ar
     9    10    11   ar
    10    11    12    1
    11    11    13   ar
    12    13    14    1
    13    13    15   ar
    14     2    16    1
    15    16    23    1
    16    23    24    1
    17    24    25    1
    18    25    26    1
    19    26    27    1
    20    27    28    1
    21    27    29    1
    22    16    17    1
    23    17    18   ar
    24    18    19   ar
    25    19    20   ar
    26    20    21   ar
    27    21    22   ar
    28    15     8   ar
    29    29    24    1
    30    22    17   ar
    31     6     7    1
    32    28    30    1
@<TRIPOS>MOLECULE
*****
 30 32 0 0 0
SMALL
GASTEIGER

@<TRIPOS>ATOM
      1 C          -6.8275  -15.1765   21.8646 C.3     1  UNL1        0.1152
      2 N          -6.6834  -16.4810   22.5908 N.am    1  UNL1       -0.2729
      3 C          -7.2156  -17.7428   21.9788 C.2     1  UNL1        0.2459
      4 O          -7.8919  -17.7001   20.6406 O.2     1  UNL1       -0.2730
      5 C          -7.0714  -19.0474   22.7051 C.3     1  UNL1        0.1738
      6 N          -8.2316  -19.9950   22.7821 N.pl3   1  UNL1       -0.3253
      7 H          -8.0962  -20.9542   22.6064 H       1  UNL1        0.1473
      8 C          -9.5981  -19.4812   23.1270 C.ar    1  UNL1        0.0459
      9 C         -10.0649  -19.4901   24.5525 C.ar    1  UNL1        0.0152
     10 C         -11.4313  -18.9763   24.8973 C.ar    1  UNL1        0.0135
     11 C         -12.3309  -18.4537   23.8167 C.ar    1  UNL1        0.0683
     12 CL        -13.6973  -17.9399   24.1616 Cl      1  UNL1       -0.0814
     13 C         -11.8640  -18.4448   22.3912 C.ar    1  UNL1        0.0694
     14 CL        -12.7635  -17.9221   21.3106 Cl      1  UNL1       -0.0813
     15 C         -10.4976  -18.9586   22.0464 C.ar    1  UNL1        0.0265
     16 C          -6.0071  -16.5236   23.9290 C.3     1  UNL1        0.1139
     17 C          -6.7337  -16.0483   25.1521 C.ar    1  UNL1       -0.0029
     18 C          -8.2323  -16.0929   25.1989 C.ar    1  UNL1       -0.0026
     19 C          -8.9589  -15.6175   26.4221 C.ar    1  UNL1       -0.0003
     20 C          -8.1870  -15.0976   27.5983 C.ar    1  UNL1       -0.0000
     21 C          -6.6884  -15.0530   27.5515 C.ar    1  UNL1       -0.0003
     22 C          -5.9617  -15.5283   26.3284 C.ar    1  UNL1       -0.0026
     23 C          -4.6041  -17.0417   24.0441 C.3     1  UNL1        0.0968
     24 N          -3.7383  -17.1397   22.8231 N.3     1  UNL1       -0.2689
     25 C          -2.8534  -16.0569   22.2805 C.3     1  UNL1        0.0748
     26 C          -2.1735  -16.5858   21.0524 C.3     1  UNL1        0.0480
     27 C          -2.6382  -17.9955   20.8361 C.3     1  UNL1        0.1278
     28 O          -2.2109  -18.9034   19.7212 O.3     1  UNL1       -0.3830
     29 C          -3.6053  -18.3379   21.9304 C.3     1  UNL1        0.1017
     30 H          -2.6584  -19.7593   19.8117 H       1  UNL1        0.2104
@<TRIPOS>BOND
     1     1     2    1
     2     2     3   am
     3     3     4    2
     4     3     5    1
     5     5     6    1
     6     6     8    1
     7     8     9   ar
     8     9    10   ar
     9    10    11   ar
    10    11    12    1
    11    11    13   ar
    12    13    14    1
    13    13    15   ar
    14     2    16    1
    15    16    23    1
    16    23    24    1
    17    24    25    1
    18    25    26    1
    19    26    27    1
    20    27    28    1
    21    27    29    1
    22    16    17    1
    23    17    18   ar
    24    18    19   ar
    25    19    20   ar
    26    20    21   ar
    27    21    22   ar
    28    15     8   ar
    29    29    24    1
    30    22    17   ar
    31     6     7    1
    32    28    30    1
