@<TRIPOS>MOLECULE
*****
 29 33 0 0 0
SMALL
GASTEIGER

@<TRIPOS>ATOM
      1 C         -14.3313   -2.3779   19.1932 C.ar    1  UNL1        0.1629
      2 N         -13.2843   -3.4313   18.9832 N.ar    1  UNL1       -0.2284
      3 C         -12.2012   -2.8444   18.1274 C.ar    1  UNL1        0.0666
      4 C         -12.5788   -1.4281   17.8084 C.ar    1  UNL1        0.0237
      5 S         -13.8953   -1.1399   18.4671 S.2     1  UNL1       -0.0561
      6 C         -11.6752   -0.5841   16.9594 C.3     1  UNL1        0.0343
      7 C         -10.3939   -1.1562   16.4293 C.3     1  UNL1        0.0060
      8 C         -10.0163   -2.5724   16.7483 C.3     1  UNL1        0.0107
      9 C         -10.9199   -3.4165   17.5973 C.3     1  UNL1        0.0627
     10 C         -10.5423   -4.8327   17.9163 C.ar    1  UNL1       -0.0169
     11 C         -11.1178   -5.9614   17.1133 C.ar    1  UNL1       -0.0039
     12 C         -10.7402   -7.3776   17.4323 C.ar    1  UNL1       -0.0003
     13 C          -9.7871   -7.6651   18.5543 C.ar    1  UNL1       -0.0000
     14 C          -9.2116   -6.5364   19.3573 C.ar    1  UNL1       -0.0003
     15 C          -9.5892   -5.1202   19.0383 C.ar    1  UNL1       -0.0039
     16 N         -15.5928   -2.5350   19.9894 N.pl3   1  UNL1       -0.2927
     17 H         -15.8800   -1.8203   20.6027 H       1  UNL1        0.1541
     18 C         -18.0645   -6.2724   19.5749 C.ar    1  UNL1        0.0253
     19 C         -18.7378   -4.9372   19.6928 C.ar    1  UNL1        0.0033
     20 C         -17.9139   -3.6913   19.8309 C.ar    1  UNL1        0.0147
     21 C         -16.4167   -3.7807   19.8512 C.ar    1  UNL1        0.0497
     22 C         -15.7434   -5.1160   19.7334 C.ar    1  UNL1        0.0147
     23 C         -16.5674   -6.3618   19.5952 C.ar    1  UNL1        0.0033
     24 C         -20.2485  -10.6554   17.6000 C.3     1  UNL1        0.0744
     25 C         -19.8923   -9.5329   18.5290 C.ar    1  UNL1        0.1480
     26 N         -20.4203   -9.3379   19.9194 N.ar    1  UNL1       -0.1930
     27 S         -19.7999   -8.0927   20.4805 S.2     1  UNL1        0.0337
     28 C         -18.8885   -7.5183   19.4368 C.ar    1  UNL1        0.1295
     29 N         -18.9456   -8.4083   18.2307 N.ar    1  UNL1       -0.2221
@<TRIPOS>BOND
     1    24    25    1
     2    25    26   ar
     3    26    27   ar
     4    27    28   ar
     5    28    18    1
     6    18    19   ar
     7    19    20   ar
     8    20    21   ar
     9    21    16    1
    10    16     1    1
    11     1     2   ar
    12     2     3   ar
    13     3     4   ar
    14     4     5   ar
    15     4     6    1
    16     6     7    1
    17     7     8    1
    18     8     9    1
    19     9    10    1
    20    10    11   ar
    21    11    12   ar
    22    12    13   ar
    23    13    14   ar
    24    14    15   ar
    25    21    22   ar
    26    22    23   ar
    27    28    29   ar
    28    29    25   ar
    29    23    18   ar
    30     5     1   ar
    31    15    10   ar
    32     9     3    1
    33    16    17    1
@<TRIPOS>MOLECULE
*****
 29 33 0 0 0
SMALL
GASTEIGER

@<TRIPOS>ATOM
      1 C          -8.8164  -19.6770   20.9211 C.ar    1  UNL1        0.1629
      2 N          -8.7723  -18.8672   22.1830 N.ar    1  UNL1       -0.2284
      3 C         -10.0425  -18.0741   22.2696 C.ar    1  UNL1        0.0666
      4 C         -10.8718  -18.3937   21.0612 C.ar    1  UNL1        0.0237
      5 S         -10.1140  -19.3843   20.2278 S.2     1  UNL1       -0.0561
      6 C         -12.2097  -17.7415   20.8759 C.3     1  UNL1        0.0343
      7 C         -12.7184  -16.7696   21.8989 C.3     1  UNL1        0.0060
      8 C         -11.8892  -16.4500   23.1073 C.3     1  UNL1        0.0107
      9 C         -10.5512  -17.1023   23.2926 C.3     1  UNL1        0.0627
     10 C          -9.7220  -16.7827   24.5010 C.ar    1  UNL1       -0.0169
     11 C          -9.7096  -17.7205   25.6716 C.ar    1  UNL1       -0.0039
     12 C          -8.8804  -17.4009   26.8800 C.ar    1  UNL1       -0.0003
     13 C          -8.0634  -16.1435   26.9178 C.ar    1  UNL1       -0.0000
     14 C          -8.0758  -15.2057   25.7472 C.ar    1  UNL1       -0.0003
     15 C          -8.9050  -15.5253   24.5388 C.ar    1  UNL1       -0.0039
     16 N          -7.7503  -20.6147   20.4374 N.pl3   1  UNL1       -0.2927
     17 H          -7.9702  -21.5561   20.2512 H       1  UNL1        0.1541
     18 C          -3.5466  -19.1250   19.8377 C.ar    1  UNL1        0.0253
     19 C          -4.6861  -18.1514   19.8955 C.ar    1  UNL1        0.0033
     20 C          -6.0874  -18.6480   20.0954 C.ar    1  UNL1        0.0147
     21 C          -6.3491  -20.1181   20.2375 C.ar    1  UNL1        0.0497
     22 C          -5.2094  -21.0917   20.1797 C.ar    1  UNL1        0.0147
     23 C          -3.8082  -20.5952   19.9797 C.ar    1  UNL1        0.0033
     24 C           1.4991  -17.8400   20.7156 C.3     1  UNL1        0.0744
     25 C           0.1740  -18.0378   20.0413 C.ar    1  UNL1        0.1480
     26 N          -0.1519  -17.6909   18.6188 N.ar    1  UNL1       -0.1930
     27 S          -1.5854  -18.0560   18.3694 S.2     1  UNL1        0.0337
     28 C          -2.1453  -18.6285   19.6377 C.ar    1  UNL1        0.1295
     29 N          -1.0580  -18.6173   20.6710 N.ar    1  UNL1       -0.2221
@<TRIPOS>BOND
     1    24    25    1
     2    25    26   ar
     3    26    27   ar
     4    27    28   ar
     5    28    18    1
     6    18    19   ar
     7    19    20   ar
     8    20    21   ar
     9    21    16    1
    10    16     1    1
    11     1     2   ar
    12     2     3   ar
    13     3     4   ar
    14     4     5   ar
    15     4     6    1
    16     6     7    1
    17     7     8    1
    18     8     9    1
    19     9    10    1
    20    10    11   ar
    21    11    12   ar
    22    12    13   ar
    23    13    14   ar
    24    14    15   ar
    25    21    22   ar
    26    22    23   ar
    27    28    29   ar
    28    29    25   ar
    29    23    18   ar
    30     5     1   ar
    31    15    10   ar
    32     9     3    1
    33    16    17    1
@<TRIPOS>MOLECULE
*****
 29 33 0 0 0
SMALL
GASTEIGER

@<TRIPOS>ATOM
      1 C          -5.9926  -19.5165   20.4544 C.ar    1  UNL1        0.1629
      2 N          -5.7215  -18.6667   21.6603 N.ar    1  UNL1       -0.2284
      3 C          -4.2390  -18.4599   21.7580 C.ar    1  UNL1        0.0666
      4 C          -3.5938  -19.1820   20.6124 C.ar    1  UNL1        0.0237
      5 S          -4.6776  -19.8350   19.8068 S.2     1  UNL1       -0.0561
      6 C          -2.1029  -19.1516   20.4509 C.3     1  UNL1        0.0343
      7 C          -1.2571  -18.3992   21.4349 C.3     1  UNL1        0.0060
      8 C          -1.9023  -17.6771   22.5805 C.3     1  UNL1        0.0107
      9 C          -3.3932  -17.7074   22.7420 C.3     1  UNL1        0.0627
     10 C          -4.0384  -16.9853   23.8876 C.ar    1  UNL1       -0.0169
     11 C          -3.8178  -17.4602   25.2932 C.ar    1  UNL1       -0.0039
     12 C          -4.4630  -16.7381   26.4388 C.ar    1  UNL1       -0.0003
     13 C          -5.3287  -15.5411   26.1788 C.ar    1  UNL1       -0.0000
     14 C          -5.5492  -15.0662   24.7732 C.ar    1  UNL1       -0.0003
     15 C          -4.9041  -15.7883   23.6276 C.ar    1  UNL1       -0.0039
     16 N          -7.3417  -19.9685   19.9795 N.pl3   1  UNL1       -0.2927
     17 H          -7.4221  -20.4862   19.1460 H       1  UNL1        0.1541
     18 C         -11.0213  -18.9584   22.3649 C.ar    1  UNL1        0.0253
     19 C         -11.0746  -18.9537   20.8659 C.ar    1  UNL1        0.0033
     20 C          -9.8480  -19.2904   20.0707 C.ar    1  UNL1        0.0147
     21 C          -8.5682  -19.6318   20.7746 C.ar    1  UNL1        0.0497
     22 C          -8.5150  -19.6365   22.2737 C.ar    1  UNL1        0.0147
     23 C          -9.7415  -19.2998   23.0688 C.ar    1  UNL1        0.0033
     24 C         -14.4532  -18.5034   26.3518 C.3     1  UNL1        0.0744
     25 C         -13.8254  -18.4126   24.9926 C.ar    1  UNL1        0.1480
     26 N         -14.4454  -17.7946   23.7745 N.ar    1  UNL1       -0.1930
     27 S         -13.4704  -17.9239   22.6419 S.2     1  UNL1        0.0337
     28 C         -12.2479  -18.6217   23.1600 C.ar    1  UNL1        0.1295
     29 N         -12.4673  -18.9238   24.6128 N.ar    1  UNL1       -0.2221
@<TRIPOS>BOND
     1    24    25    1
     2    25    26   ar
     3    26    27   ar
     4    27    28   ar
     5    28    18    1
     6    18    19   ar
     7    19    20   ar
     8    20    21   ar
     9    21    16    1
    10    16     1    1
    11     1     2   ar
    12     2     3   ar
    13     3     4   ar
    14     4     5   ar
    15     4     6    1
    16     6     7    1
    17     7     8    1
    18     8     9    1
    19     9    10    1
    20    10    11   ar
    21    11    12   ar
    22    12    13   ar
    23    13    14   ar
    24    14    15   ar
    25    21    22   ar
    26    22    23   ar
    27    28    29   ar
    28    29    25   ar
    29    23    18   ar
    30     5     1   ar
    31    15    10   ar
    32     9     3    1
    33    16    17    1
@<TRIPOS>MOLECULE
*****
 29 33 0 0 0
SMALL
GASTEIGER

@<TRIPOS>ATOM
      1 C          -1.0258    3.6200   20.5601 C.ar    1  UNL1        0.1629
      2 N          -0.9834    3.6485   22.0592 N.ar    1  UNL1       -0.2284
      3 C          -2.3909    3.5346   22.5651 C.ar    1  UNL1        0.0666
      4 C          -3.3033    3.4357   21.3786 C.ar    1  UNL1        0.0237
      5 S          -2.4596    3.4885   20.1394 S.2     1  UNL1       -0.0561
      6 C          -4.7844    3.3104   21.5797 C.3     1  UNL1        0.0343
      7 C          -5.3532    3.2839   22.9674 C.3     1  UNL1        0.0060
      8 C          -4.4408    3.3829   24.1540 C.3     1  UNL1        0.0107
      9 C          -2.9597    3.5082   23.9528 C.3     1  UNL1        0.0627
     10 C          -2.0473    3.6071   25.1393 C.ar    1  UNL1       -0.0169
     11 C          -1.1627    2.4518   25.5036 C.ar    1  UNL1       -0.0039
     12 C          -0.2504    2.5508   26.6901 C.ar    1  UNL1       -0.0003
     13 C          -0.2226    3.8050   27.5123 C.ar    1  UNL1       -0.0000
     14 C          -1.1072    4.9603   27.1480 C.ar    1  UNL1       -0.0003
     15 C          -2.0196    4.8613   25.9615 C.ar    1  UNL1       -0.0039
     16 N           0.1577    3.7077   19.6427 N.pl3   1  UNL1       -0.2927
     17 H           0.3789    4.5612   19.2047 H       1  UNL1        0.1541
     18 C           2.6975    0.0694   18.8927 C.ar    1  UNL1        0.0253
     19 C           1.3868   -0.0657   19.6094 C.ar    1  UNL1        0.0033
     20 C           0.5402    1.1471   19.8595 C.ar    1  UNL1        0.0147
     21 C           1.0043    2.4949   19.3927 C.ar    1  UNL1        0.0497
     22 C           2.3151    2.6300   18.6760 C.ar    1  UNL1        0.0147
     23 C           3.1616    1.4173   18.4260 C.ar    1  UNL1        0.0033
     24 C           4.5432   -4.8764   19.0044 C.3     1  UNL1        0.0744
     25 C           4.3925   -3.4167   18.6940 C.ar    1  UNL1        0.1480
     26 N           5.3015   -2.6024   17.8217 N.ar    1  UNL1       -0.1930
     27 S           4.7771   -1.1973   17.7900 S.2     1  UNL1        0.0337
     28 C           3.5441   -1.1434   18.6427 C.ar    1  UNL1        0.1295
     29 N           3.3065   -2.5150   19.2013 N.ar    1  UNL1       -0.2221
@<TRIPOS>BOND
     1    24    25    1
     2    25    26   ar
     3    26    27   ar
     4    27    28   ar
     5    28    18    1
     6    18    19   ar
     7    19    20   ar
     8    20    21   ar
     9    21    16    1
    10    16     1    1
    11     1     2   ar
    12     2     3   ar
    13     3     4   ar
    14     4     5   ar
    15     4     6    1
    16     6     7    1
    17     7     8    1
    18     8     9    1
    19     9    10    1
    20    10    11   ar
    21    11    12   ar
    22    12    13   ar
    23    13    14   ar
    24    14    15   ar
    25    21    22   ar
    26    22    23   ar
    27    28    29   ar
    28    29    25   ar
    29    23    18   ar
    30     5     1   ar
    31    15    10   ar
    32     9     3    1
    33    16    17    1
@<TRIPOS>MOLECULE
*****
 29 33 0 0 0
SMALL
GASTEIGER

@<TRIPOS>ATOM
      1 C         -15.1341   -1.9210   19.4290 C.ar    1  UNL1        0.1629
      2 N         -13.8309   -2.5466   19.0286 N.ar    1  UNL1       -0.2284
      3 C         -13.0017   -1.4966   18.3504 C.ar    1  UNL1        0.0666
      4 C         -13.7924   -0.2221   18.3317 C.ar    1  UNL1        0.0237
      5 S         -15.1103   -0.4844   18.9983 S.2     1  UNL1       -0.0561
      6 C         -13.2103    1.0126   17.7100 C.3     1  UNL1        0.0343
      7 C         -11.8374    0.9729   17.1071 C.3     1  UNL1        0.0060
      8 C         -11.0467   -0.3017   17.1258 C.3     1  UNL1        0.0107
      9 C         -11.6288   -1.5364   17.7474 C.3     1  UNL1        0.0627
     10 C         -10.8381   -2.8109   17.7662 C.ar    1  UNL1       -0.0169
     11 C         -10.8978   -3.7130   18.9630 C.ar    1  UNL1       -0.0039
     12 C         -10.1070   -4.9876   18.9817 C.ar    1  UNL1       -0.0003
     13 C          -9.2566   -5.3600   17.8036 C.ar    1  UNL1       -0.0000
     14 C          -9.1970   -4.4578   16.6067 C.ar    1  UNL1       -0.0003
     15 C          -9.9877   -3.1833   16.5880 C.ar    1  UNL1       -0.0039
     16 N         -16.2629   -2.6110   20.1361 N.pl3   1  UNL1       -0.2927
     17 H         -16.7265   -2.1612   20.8790 H       1  UNL1        0.1541
     18 C         -17.5300   -6.7363   18.8611 C.ar    1  UNL1        0.0253
     19 C         -18.5182   -5.6081   18.8396 C.ar    1  UNL1        0.0033
     20 C         -18.0958   -4.2329   19.2646 C.ar    1  UNL1        0.0147
     21 C         -16.6852   -3.9860   19.7111 C.ar    1  UNL1        0.0497
     22 C         -15.6970   -5.1144   19.7325 C.ar    1  UNL1        0.0147
     23 C         -16.1194   -6.4895   19.3076 C.ar    1  UNL1        0.0033
     24 C         -20.0891  -10.6905   16.4746 C.3     1  UNL1        0.0744
     25 C         -19.1287   -9.9291   17.3391 C.ar    1  UNL1        0.1480
     26 N         -18.0758  -10.5263   18.2251 N.ar    1  UNL1       -0.1930
     27 S         -17.3488   -9.4029   18.9031 S.2     1  UNL1        0.0337
     28 C         -17.9524   -8.1115   18.4361 C.ar    1  UNL1        0.1295
     29 N         -19.0523   -8.4367   17.4695 N.ar    1  UNL1       -0.2221
@<TRIPOS>BOND
     1    24    25    1
     2    25    26   ar
     3    26    27   ar
     4    27    28   ar
     5    28    18    1
     6    18    19   ar
     7    19    20   ar
     8    20    21   ar
     9    21    16    1
    10    16     1    1
    11     1     2   ar
    12     2     3   ar
    13     3     4   ar
    14     4     5   ar
    15     4     6    1
    16     6     7    1
    17     7     8    1
    18     8     9    1
    19     9    10    1
    20    10    11   ar
    21    11    12   ar
    22    12    13   ar
    23    13    14   ar
    24    14    15   ar
    25    21    22   ar
    26    22    23   ar
    27    28    29   ar
    28    29    25   ar
    29    23    18   ar
    30     5     1   ar
    31    15    10   ar
    32     9     3    1
    33    16    17    1
@<TRIPOS>MOLECULE
*****
 29 33 0 0 0
SMALL
GASTEIGER

@<TRIPOS>ATOM
      1 C          -0.9549    3.1758   21.9484 C.ar    1  UNL1        0.1629
      2 N          -2.3389    3.5397   22.3981 N.ar    1  UNL1       -0.2284
      3 C          -2.3637    3.5034   23.8975 C.ar    1  UNL1        0.0666
      4 C          -0.9950    3.1170   24.3744 C.ar    1  UNL1        0.0237
      5 S          -0.1244    2.9146   23.1698 S.2     1  UNL1       -0.0561
      6 C          -0.7183    2.9995   25.8440 C.3     1  UNL1        0.0343
      7 C          -1.8103    3.2683   26.8365 C.3     1  UNL1        0.0060
      8 C          -3.1790    3.6547   26.3596 C.3     1  UNL1        0.0107
      9 C          -3.4557    3.7722   24.8900 C.3     1  UNL1        0.0627
     10 C          -4.8243    4.1586   24.4131 C.ar    1  UNL1       -0.0169
     11 C          -5.3618    3.5877   23.1344 C.ar    1  UNL1       -0.0039
     12 C          -6.7305    3.9740   22.6574 C.ar    1  UNL1       -0.0003
     13 C          -7.5616    4.9313   23.4591 C.ar    1  UNL1       -0.0000
     14 C          -7.0241    5.5022   24.7378 C.ar    1  UNL1       -0.0003
     15 C          -5.6555    5.1158   25.2148 C.ar    1  UNL1       -0.0039
     16 N          -0.4842    3.0884   20.5269 N.pl3   1  UNL1       -0.2927
     17 H          -0.7982    3.7443   19.8632 H       1  UNL1        0.1541
     18 C           2.3632   -0.1715   19.2958 C.ar    1  UNL1        0.0253
     19 C           1.1298   -0.5095   20.0798 C.ar    1  UNL1        0.0033
     20 C           0.1807    0.5771   20.4901 C.ar    1  UNL1        0.0147
     21 C           0.4649    2.0018   20.1165 C.ar    1  UNL1        0.0497
     22 C           1.6983    2.3398   19.3326 C.ar    1  UNL1        0.0147
     23 C           2.6474    1.2532   18.9222 C.ar    1  UNL1        0.0033
     24 C           4.7152   -4.8768   18.8390 C.3     1  UNL1        0.0744
     25 C           4.3934   -3.4210   18.6755 C.ar    1  UNL1        0.1480
     26 N           5.1525   -2.4395   17.8324 N.ar    1  UNL1       -0.1930
     27 S           4.4843   -1.1028   17.9622 S.2     1  UNL1        0.0337
     28 C           3.3124   -1.2582   18.8855 C.ar    1  UNL1        0.1295
     29 N           3.2562   -2.6908   19.3263 N.ar    1  UNL1       -0.2221
@<TRIPOS>BOND
     1    24    25    1
     2    25    26   ar
     3    26    27   ar
     4    27    28   ar
     5    28    18    1
     6    18    19   ar
     7    19    20   ar
     8    20    21   ar
     9    21    16    1
    10    16     1    1
    11     1     2   ar
    12     2     3   ar
    13     3     4   ar
    14     4     5   ar
    15     4     6    1
    16     6     7    1
    17     7     8    1
    18     8     9    1
    19     9    10    1
    20    10    11   ar
    21    11    12   ar
    22    12    13   ar
    23    13    14   ar
    24    14    15   ar
    25    21    22   ar
    26    22    23   ar
    27    28    29   ar
    28    29    25   ar
    29    23    18   ar
    30     5     1   ar
    31    15    10   ar
    32     9     3    1
    33    16    17    1
@<TRIPOS>MOLECULE
*****
 29 33 0 0 0
SMALL
GASTEIGER

@<TRIPOS>ATOM
      1 C          -1.1237    3.3289   22.1662 C.ar    1  UNL1        0.1629
      2 N          -0.8185    3.2076   23.6298 N.ar    1  UNL1       -0.2284
      3 C          -2.0935    3.4271   24.3889 C.ar    1  UNL1        0.0666
      4 C          -3.1866    3.6841   23.3945 C.ar    1  UNL1        0.0237
      5 S          -2.5873    3.6234   22.0207 S.2     1  UNL1       -0.0561
      6 C          -4.5866    3.9401   23.8683 C.3     1  UNL1        0.0343
      7 C          -4.8933    3.9392   25.3365 C.3     1  UNL1        0.0060
      8 C          -3.8002    3.6822   26.3310 C.3     1  UNL1        0.0107
      9 C          -2.4002    3.4262   25.8572 C.3     1  UNL1        0.0627
     10 C          -1.3071    3.1692   26.8516 C.ar    1  UNL1       -0.0169
     11 C          -0.9637    1.7622   27.2419 C.ar    1  UNL1       -0.0039
     12 C           0.1294    1.5052   28.2363 C.ar    1  UNL1       -0.0003
     13 C           0.8793    2.6552   28.8405 C.ar    1  UNL1       -0.0000
     14 C           0.5360    4.0623   28.4502 C.ar    1  UNL1       -0.0003
     15 C          -0.5572    4.3192   27.4558 C.ar    1  UNL1       -0.0039
     16 N          -0.1383    3.1816   21.0449 N.pl3   1  UNL1       -0.2927
     17 H          -0.0442    3.8970   20.3751 H       1  UNL1        0.1541
     18 C           2.3877   -0.5303   20.7424 C.ar    1  UNL1        0.0253
     19 C           2.9307    0.6933   21.4190 C.ar    1  UNL1        0.0033
     20 C           2.0887    1.9306   21.5199 C.ar    1  UNL1        0.0147
     21 C           0.7037    1.9443   20.9440 C.ar    1  UNL1        0.0497
     22 C           0.1607    0.7206   20.2673 C.ar    1  UNL1        0.0147
     23 C           1.0027   -0.5166   20.1665 C.ar    1  UNL1        0.0033
     24 C           4.4975   -5.0390   18.9816 C.3     1  UNL1        0.0744
     25 C           4.1995   -3.8401   19.8322 C.ar    1  UNL1        0.1480
     26 N           4.8512   -3.5032   21.1406 N.ar    1  UNL1       -0.1930
     27 S           4.2518   -2.2223   21.6408 S.2     1  UNL1        0.0337
     28 C           3.2297   -1.7677   20.6415 C.ar    1  UNL1        0.1295
     29 N           3.1973   -2.7674   19.5238 N.ar    1  UNL1       -0.2221
@<TRIPOS>BOND
     1    24    25    1
     2    25    26   ar
     3    26    27   ar
     4    27    28   ar
     5    28    18    1
     6    18    19   ar
     7    19    20   ar
     8    20    21   ar
     9    21    16    1
    10    16     1    1
    11     1     2   ar
    12     2     3   ar
    13     3     4   ar
    14     4     5   ar
    15     4     6    1
    16     6     7    1
    17     7     8    1
    18     8     9    1
    19     9    10    1
    20    10    11   ar
    21    11    12   ar
    22    12    13   ar
    23    13    14   ar
    24    14    15   ar
    25    21    22   ar
    26    22    23   ar
    27    28    29   ar
    28    29    25   ar
    29    23    18   ar
    30     5     1   ar
    31    15    10   ar
    32     9     3    1
    33    16    17    1
@<TRIPOS>MOLECULE
*****
 29 33 0 0 0
SMALL
GASTEIGER

@<TRIPOS>ATOM
      1 C          -1.4052    4.2348   19.2936 C.ar    1  UNL1        0.1629
      2 N          -2.3096    4.2986   20.4885 N.ar    1  UNL1       -0.2284
      3 C          -3.7220    4.1365   20.0101 C.ar    1  UNL1        0.0666
      4 C          -3.6905    3.9725   18.5194 C.ar    1  UNL1        0.0237
      5 S          -2.2586    4.0333   18.0766 S.2     1  UNL1       -0.0561
      6 C          -4.9696    3.7891   17.7578 C.3     1  UNL1        0.0343
      7 C          -6.2803    3.7697   18.4869 C.3     1  UNL1        0.0060
      8 C          -6.3119    3.9337   19.9775 C.3     1  UNL1        0.0107
      9 C          -5.0327    4.1171   20.7391 C.3     1  UNL1        0.0627
     10 C          -5.0643    4.2811   22.2298 C.ar    1  UNL1       -0.0169
     11 C          -4.8672    3.0898   23.1197 C.ar    1  UNL1       -0.0039
     12 C          -4.8988    3.2538   24.6104 C.ar    1  UNL1       -0.0003
     13 C          -5.1274    4.6090   25.2112 C.ar    1  UNL1       -0.0000
     14 C          -5.3245    5.8003   24.3213 C.ar    1  UNL1       -0.0003
     15 C          -5.2930    5.6363   22.8306 C.ar    1  UNL1       -0.0039
     16 N           0.0901    4.3519   19.3124 N.pl3   1  UNL1       -0.2927
     17 H           0.5134    5.2247   19.4805 H       1  UNL1        0.1541
     18 C           2.6412    0.7140   18.6002 C.ar    1  UNL1        0.0253
     19 C           1.2263    0.5569   19.0729 C.ar    1  UNL1        0.0033
     20 C           0.3759    1.7696   19.3103 C.ar    1  UNL1        0.0147
     21 C           0.9405    3.1393   19.0750 C.ar    1  UNL1        0.0497
     22 C           2.3554    3.2962   18.6023 C.ar    1  UNL1        0.0147
     23 C           3.2057    2.0836   18.3650 C.ar    1  UNL1        0.0033
     24 C           4.6402   -4.1617   18.9357 C.3     1  UNL1        0.0744
     25 C           4.4104   -2.7398   18.5170 C.ar    1  UNL1        0.1480
     26 N           5.1901   -1.9897   17.4780 N.ar    1  UNL1       -0.1930
     27 S           4.6221   -0.6045   17.3827 S.2     1  UNL1        0.0337
     28 C           3.4916   -0.4987   18.3628 C.ar    1  UNL1        0.1295
     29 N           3.3608   -1.8183   19.0639 N.ar    1  UNL1       -0.2221
@<TRIPOS>BOND
     1    24    25    1
     2    25    26   ar
     3    26    27   ar
     4    27    28   ar
     5    28    18    1
     6    18    19   ar
     7    19    20   ar
     8    20    21   ar
     9    21    16    1
    10    16     1    1
    11     1     2   ar
    12     2     3   ar
    13     3     4   ar
    14     4     5   ar
    15     4     6    1
    16     6     7    1
    17     7     8    1
    18     8     9    1
    19     9    10    1
    20    10    11   ar
    21    11    12   ar
    22    12    13   ar
    23    13    14   ar
    24    14    15   ar
    25    21    22   ar
    26    22    23   ar
    27    28    29   ar
    28    29    25   ar
    29    23    18   ar
    30     5     1   ar
    31    15    10   ar
    32     9     3    1
    33    16    17    1
@<TRIPOS>MOLECULE
*****
 29 33 0 0 0
SMALL
GASTEIGER

@<TRIPOS>ATOM
      1 C           3.2209    0.0204   24.9735 C.ar    1  UNL1        0.1629
      2 N           2.9143    0.0413   23.5054 N.ar    1  UNL1       -0.2284
      3 C           3.5636   -1.1571   22.8790 C.ar    1  UNL1        0.0666
      4 C           4.2716   -1.9187   23.9601 C.ar    1  UNL1        0.0237
      5 S           4.0597   -1.1910   25.2546 S.2     1  UNL1       -0.0561
      6 C           5.0176   -3.1764   23.6262 C.3     1  UNL1        0.0343
      7 C           5.0558   -3.6725   22.2112 C.3     1  UNL1        0.0060
      8 C           4.3478   -2.9109   21.1301 C.3     1  UNL1        0.0107
      9 C           3.6017   -1.6532   21.4640 C.3     1  UNL1        0.0627
     10 C           2.8938   -0.8916   20.3829 C.ar    1  UNL1       -0.0169
     11 C           3.6225   -0.5232   19.1247 C.ar    1  UNL1       -0.0039
     12 C           2.9145    0.2384   18.0435 C.ar    1  UNL1       -0.0003
     13 C           1.4779    0.6316   18.2207 C.ar    1  UNL1       -0.0000
     14 C           0.7492    0.2631   19.4789 C.ar    1  UNL1       -0.0003
     15 C           1.4572   -0.4984   20.5600 C.ar    1  UNL1       -0.0039
     16 N           2.7681    1.0329   25.9833 N.pl3   1  UNL1       -0.2927
     17 H           3.3770    1.3165   26.7032 H       1  UNL1        0.1541
     18 C          -1.3729    2.7747   25.7224 C.ar    1  UNL1        0.0253
     19 C          -0.3761    3.0440   24.6344 C.ar    1  UNL1        0.0033
     20 C           1.0043    2.4634   24.7214 C.ar    1  UNL1        0.0147
     21 C           1.3878    1.6135   25.8963 C.ar    1  UNL1        0.0497
     22 C           0.3909    1.3442   26.9844 C.ar    1  UNL1        0.0147
     23 C          -0.9894    1.9248   26.8974 C.ar    1  UNL1        0.0033
     24 C          -6.0621    4.3199   23.8507 C.3     1  UNL1        0.0744
     25 C          -4.9087    4.0656   24.7751 C.ar    1  UNL1        0.1480
     26 N          -4.8461    4.4319   26.2284 N.ar    1  UNL1       -0.1930
     27 S          -3.5139    3.9930   26.7601 S.2     1  UNL1        0.0337
     28 C          -2.7533    3.3553   25.6355 C.ar    1  UNL1        0.1295
     29 N          -3.6152    3.4002   24.4087 N.ar    1  UNL1       -0.2221
@<TRIPOS>BOND
     1    24    25    1
     2    25    26   ar
     3    26    27   ar
     4    27    28   ar
     5    28    18    1
     6    18    19   ar
     7    19    20   ar
     8    20    21   ar
     9    21    16    1
    10    16     1    1
    11     1     2   ar
    12     2     3   ar
    13     3     4   ar
    14     4     5   ar
    15     4     6    1
    16     6     7    1
    17     7     8    1
    18     8     9    1
    19     9    10    1
    20    10    11   ar
    21    11    12   ar
    22    12    13   ar
    23    13    14   ar
    24    14    15   ar
    25    21    22   ar
    26    22    23   ar
    27    28    29   ar
    28    29    25   ar
    29    23    18   ar
    30     5     1   ar
    31    15    10   ar
    32     9     3    1
    33    16    17    1
