@<TRIPOS>MOLECULE
*****
 17 18 0 0 0
SMALL
GASTEIGER

@<TRIPOS>ATOM
      1 C         -11.1301  -16.3222   20.8429 C.ar    1  UNL1        0.0968
      2 S         -12.0284  -17.3842   21.4040 S.2     1  UNL1       -0.0622
      3 C         -11.4032  -17.9011   22.6657 C.ar    1  UNL1        0.1120
      4 N         -11.8379  -18.9521   23.6438 N.ar    1  UNL1       -0.2373
      5 C         -10.9877  -19.2604   24.8405 C.ar    1  UNL1        0.0994
      6 C          -9.7029  -18.5177   25.0591 C.ar    1  UNL1        0.0208
      7 C          -9.2683  -17.4668   24.0811 C.ar    1  UNL1        0.0048
      8 C         -10.1184  -17.1585   22.8844 C.ar    1  UNL1        0.0374
      9 C          -9.9496  -16.1827   21.7578 C.ar    1  UNL1        0.0540
     10 N          -8.8019  -15.2339   21.5777 N.pl3   1  UNL1       -0.3564
     11 H          -8.0698  -15.2163   22.2358 H       1  UNL1        0.1424
     12 H          -8.7805  -14.6287   20.8015 H       1  UNL1        0.1424
     13 N         -12.7078  -15.5944   18.9112 N.am    1  UNL1       -0.3249
     14 C         -11.3700  -15.5374   19.5872 C.2     1  UNL1        0.2500
     15 O         -10.2721  -14.6956   19.0076 O.2     1  UNL1       -0.2698
     16 H         -12.8653  -15.0794   18.0871 H       1  UNL1        0.1453
     17 H         -13.4284  -16.1470   19.2916 H       1  UNL1        0.1453
@<TRIPOS>BOND
     1    13    14   am
     2    14    15    2
     3    14     1    1
     4     1     2   ar
     5     2     3   ar
     6     3     4   ar
     7     4     5   ar
     8     5     6   ar
     9     6     7   ar
    10     7     8   ar
    11     8     9   ar
    12     9    10    1
    13     9     1   ar
    14     8     3   ar
    15    13    16    1
    16    13    17    1
    17    10    11    1
    18    10    12    1
@<TRIPOS>MOLECULE
*****
 17 18 0 0 0
SMALL
GASTEIGER

@<TRIPOS>ATOM
      1 C          -8.9238  -16.5509   23.8382 C.ar    1  UNL1        0.0968
      2 S          -8.9002  -16.3892   22.3471 S.2     1  UNL1       -0.0622
      3 C          -9.5937  -17.5732   21.7413 C.ar    1  UNL1        0.1120
      4 N          -9.8719  -17.9532   20.3172 N.ar    1  UNL1       -0.2373
      5 C         -10.6023  -19.2267   20.0098 C.ar    1  UNL1        0.0994
      6 C         -11.0546  -20.1202   21.1265 C.ar    1  UNL1        0.0208
      7 C         -10.7765  -19.7403   22.5506 C.ar    1  UNL1        0.0048
      8 C         -10.0461  -18.4667   22.8580 C.ar    1  UNL1        0.0374
      9 C          -9.6320  -17.8349   24.1539 C.ar    1  UNL1        0.0540
     10 N          -9.8822  -18.3897   25.5249 N.pl3   1  UNL1       -0.3564
     11 H         -10.3586  -19.2448   25.6305 H       1  UNL1        0.1424
     12 H          -9.5701  -17.8988   26.3191 H       1  UNL1        0.1424
     13 N          -7.6635  -14.3423   24.3709 N.am    1  UNL1       -0.3249
     14 C          -8.3414  -15.5962   24.8379 C.2     1  UNL1        0.2500
     15 O          -8.4371  -15.8954   26.3046 O.2     1  UNL1       -0.2698
     16 H          -7.2813  -13.7157   25.0271 H       1  UNL1        0.1453
     17 H          -7.6007  -14.1459   23.4083 H       1  UNL1        0.1453
@<TRIPOS>BOND
     1    13    14   am
     2    14    15    2
     3    14     1    1
     4     1     2   ar
     5     2     3   ar
     6     3     4   ar
     7     4     5   ar
     8     5     6   ar
     9     6     7   ar
    10     7     8   ar
    11     8     9   ar
    12     9    10    1
    13     9     1   ar
    14     8     3   ar
    15    13    16    1
    16    13    17    1
    17    10    11    1
    18    10    12    1
@<TRIPOS>MOLECULE
*****
 17 18 0 0 0
SMALL
GASTEIGER

@<TRIPOS>ATOM
      1 C         -11.0418  -16.6448   20.8179 C.ar    1  UNL1        0.0968
      2 S         -10.9439  -16.2869   22.2712 S.2     1  UNL1       -0.0622
      3 C         -10.5938  -17.5311   23.0325 C.ar    1  UNL1        0.1120
      4 N         -10.3676  -17.7835   24.4937 N.ar    1  UNL1       -0.2373
      5 C         -10.0229  -19.1627   24.9719 C.ar    1  UNL1        0.0994
      6 C          -9.9044  -20.2896   23.9890 C.ar    1  UNL1        0.0208
      7 C         -10.1306  -20.0372   22.5278 C.ar    1  UNL1        0.0048
      8 C         -10.4753  -18.6580   22.0496 C.ar    1  UNL1        0.0374
      9 C         -10.7522  -18.1102   20.6809 C.ar    1  UNL1        0.0540
     10 N         -10.7414  -18.8908   19.4001 N.pl3   1  UNL1       -0.3564
     11 H         -10.5388  -19.8542   19.4124 H       1  UNL1        0.1424
     12 H         -10.9368  -18.4398   18.5470 H       1  UNL1        0.1424
     13 N         -12.7584  -15.6717   19.1279 N.am    1  UNL1       -0.3249
     14 C         -11.3714  -15.7028   19.6981 C.2     1  UNL1        0.2500
     15 O         -10.3141  -14.7918   19.1486 O.2     1  UNL1       -0.2698
     16 H         -12.9748  -15.0534   18.3929 H       1  UNL1        0.1453
     17 H         -13.4524  -16.2696   19.4885 H       1  UNL1        0.1453
@<TRIPOS>BOND
     1    13    14   am
     2    14    15    2
     3    14     1    1
     4     1     2   ar
     5     2     3   ar
     6     3     4   ar
     7     4     5   ar
     8     5     6   ar
     9     6     7   ar
    10     7     8   ar
    11     8     9   ar
    12     9    10    1
    13     9     1   ar
    14     8     3   ar
    15    13    16    1
    16    13    17    1
    17    10    11    1
    18    10    12    1
@<TRIPOS>MOLECULE
*****
 17 18 0 0 0
SMALL
GASTEIGER

@<TRIPOS>ATOM
      1 C          -8.0535  -15.8811   23.7106 C.ar    1  UNL1        0.0968
      2 S          -9.0083  -16.7887   24.4280 S.2     1  UNL1       -0.0622
      3 C         -10.1628  -17.0651   23.5110 C.ar    1  UNL1        0.1120
      4 N         -11.4025  -17.8925   23.6794 N.ar    1  UNL1       -0.2373
      5 C         -12.4010  -17.9831   22.5637 C.ar    1  UNL1        0.0994
      6 C         -12.1597  -17.2464   21.2796 C.ar    1  UNL1        0.0208
      7 C         -10.9199  -16.4190   21.1112 C.ar    1  UNL1        0.0048
      8 C          -9.9215  -16.3283   22.2269 C.ar    1  UNL1        0.0374
      9 C          -8.6179  -15.5966   22.3503 C.ar    1  UNL1        0.0540
     10 N          -7.9891  -14.7321   21.2980 N.pl3   1  UNL1       -0.3564
     11 H          -8.4390  -14.6055   20.4315 H       1  UNL1        0.1424
     12 H          -7.1266  -14.2913   21.4739 H       1  UNL1        0.1424
     13 N          -6.6608  -14.9655   25.7036 N.am    1  UNL1       -0.3249
     14 C          -6.7612  -15.3511   24.2575 C.2     1  UNL1        0.2500
     15 O          -5.5694  -15.2066   23.3584 O.2     1  UNL1       -0.2698
     16 H          -5.8127  -14.6176   26.0626 H       1  UNL1        0.1453
     17 H          -7.4431  -15.0603   26.2938 H       1  UNL1        0.1453
@<TRIPOS>BOND
     1    13    14   am
     2    14    15    2
     3    14     1    1
     4     1     2   ar
     5     2     3   ar
     6     3     4   ar
     7     4     5   ar
     8     5     6   ar
     9     6     7   ar
    10     7     8   ar
    11     8     9   ar
    12     9    10    1
    13     9     1   ar
    14     8     3   ar
    15    13    16    1
    16    13    17    1
    17    10    11    1
    18    10    12    1
@<TRIPOS>MOLECULE
*****
 17 18 0 0 0
SMALL
GASTEIGER

@<TRIPOS>ATOM
      1 C          -8.0593  -16.4825   23.2991 C.ar    1  UNL1        0.0968
      2 S          -9.4295  -16.2415   23.8597 S.2     1  UNL1       -0.0622
      3 C         -10.4224  -16.9259   22.9675 C.ar    1  UNL1        0.1120
      4 N         -11.9176  -17.0302   23.0240 N.ar    1  UNL1       -0.2373
      5 C         -12.6562  -17.7986   21.9686 C.ar    1  UNL1        0.0994
      6 C         -11.8995  -18.4626   20.8566 C.ar    1  UNL1        0.0208
      7 C         -10.4043  -18.3582   20.8000 C.ar    1  UNL1        0.0048
      8 C          -9.6657  -17.5899   21.8555 C.ar    1  UNL1        0.0374
      9 C          -8.2052  -17.3159   22.0605 C.ar    1  UNL1        0.0540
     10 N          -7.0870  -17.7917   21.1811 N.pl3   1  UNL1       -0.3564
     11 H          -7.2844  -18.3368   20.3854 H       1  UNL1        0.1424
     12 H          -6.1558  -17.5588   21.3996 H       1  UNL1        0.1424
     13 N          -6.7860  -14.9206   24.9389 N.am    1  UNL1       -0.3249
     14 C          -6.7695  -15.9787   23.8758 C.2     1  UNL1        0.2500
     15 O          -5.4633  -16.5329   23.3896 O.2     1  UNL1       -0.2698
     16 H          -5.9395  -14.5899   25.3174 H       1  UNL1        0.1453
     17 H          -7.6433  -14.5568   25.2580 H       1  UNL1        0.1453
@<TRIPOS>BOND
     1    13    14   am
     2    14    15    2
     3    14     1    1
     4     1     2   ar
     5     2     3   ar
     6     3     4   ar
     7     4     5   ar
     8     5     6   ar
     9     6     7   ar
    10     7     8   ar
    11     8     9   ar
    12     9    10    1
    13     9     1   ar
    14     8     3   ar
    15    13    16    1
    16    13    17    1
    17    10    11    1
    18    10    12    1
@<TRIPOS>MOLECULE
*****
 17 18 0 0 0
SMALL
GASTEIGER

@<TRIPOS>ATOM
      1 C          -8.1237  -18.5927   22.4089 C.ar    1  UNL1        0.0968
      2 S          -8.6483  -17.2994   21.8593 S.2     1  UNL1       -0.0622
      3 C         -10.0993  -17.1949   22.2249 C.ar    1  UNL1        0.1120
      4 N         -11.1297  -16.1397   21.9517 N.ar    1  UNL1       -0.2373
      5 C         -12.5323  -16.3132   22.4542 C.ar    1  UNL1        0.0994
      6 C         -12.9045  -17.5420   23.2298 C.ar    1  UNL1        0.0208
      7 C         -11.8741  -18.5972   23.5030 C.ar    1  UNL1        0.0048
      8 C         -10.4715  -18.4237   23.0005 C.ar    1  UNL1        0.0374
      9 C          -9.2505  -19.2876   23.1142 C.ar    1  UNL1        0.0540
     10 N          -9.1704  -20.6135   23.8110 N.pl3   1  UNL1       -0.3564
     11 H          -9.9689  -20.9893   24.2474 H       1  UNL1        0.1424
     12 H          -8.3194  -21.1080   23.8318 H       1  UNL1        0.1424
     13 N          -5.5661  -18.1435   22.3269 N.am    1  UNL1       -0.3249
     14 C          -6.7189  -19.1018   22.2765 C.2     1  UNL1        0.2500
     15 O          -6.4671  -20.5691   22.0938 O.2     1  UNL1       -0.2698
     16 H          -4.6441  -18.4776   22.2400 H       1  UNL1        0.1453
     17 H          -5.7314  -17.1804   22.4468 H       1  UNL1        0.1453
@<TRIPOS>BOND
     1    13    14   am
     2    14    15    2
     3    14     1    1
     4     1     2   ar
     5     2     3   ar
     6     3     4   ar
     7     4     5   ar
     8     5     6   ar
     9     6     7   ar
    10     7     8   ar
    11     8     9   ar
    12     9    10    1
    13     9     1   ar
    14     8     3   ar
    15    13    16    1
    16    13    17    1
    17    10    11    1
    18    10    12    1
@<TRIPOS>MOLECULE
*****
 17 18 0 0 0
SMALL
GASTEIGER

@<TRIPOS>ATOM
      1 C         -11.4534   -6.6320   18.6891 C.ar    1  UNL1        0.0968
      2 S         -11.1775   -5.1781   18.9340 S.2     1  UNL1       -0.0622
      3 C         -12.4575   -4.5309   19.3732 C.ar    1  UNL1        0.1120
      4 N         -12.7892   -3.1181   19.7523 N.ar    1  UNL1       -0.2373
      5 C         -14.1880   -2.7592   20.1580 C.ar    1  UNL1        0.0994
      6 C         -15.2550   -3.8131   20.1846 C.ar    1  UNL1        0.0208
      7 C         -14.9232   -5.2260   19.8054 C.ar    1  UNL1        0.0048
      8 C         -13.5244   -5.5848   19.3997 C.ar    1  UNL1        0.0374
      9 C         -12.9039   -6.8834   18.9770 C.ar    1  UNL1        0.0540
     10 N         -13.6099   -8.2019   18.8622 N.pl3   1  UNL1       -0.3564
     11 H         -14.5691   -8.2667   19.0742 H       1  UNL1        0.1424
     12 H         -13.1141   -9.0024   18.5750 H       1  UNL1        0.1424
     13 N          -9.3515   -8.0856   19.1571 N.am    1  UNL1       -0.3249
     14 C         -10.4542   -7.6549   18.2360 C.2     1  UNL1        0.2500
     15 O         -10.5578   -8.2471   16.8618 O.2     1  UNL1       -0.2698
     16 H          -8.6958   -8.7570   18.8596 H       1  UNL1        0.1453
     17 H          -9.2835   -7.6970   20.0590 H       1  UNL1        0.1453
@<TRIPOS>BOND
     1    13    14   am
     2    14    15    2
     3    14     1    1
     4     1     2   ar
     5     2     3   ar
     6     3     4   ar
     7     4     5   ar
     8     5     6   ar
     9     6     7   ar
    10     7     8   ar
    11     8     9   ar
    12     9    10    1
    13     9     1   ar
    14     8     3   ar
    15    13    16    1
    16    13    17    1
    17    10    11    1
    18    10    12    1
@<TRIPOS>MOLECULE
*****
 17 18 0 0 0
SMALL
GASTEIGER

@<TRIPOS>ATOM
      1 C         -11.5018   -5.6112   19.0859 C.ar    1  UNL1        0.0968
      2 S         -12.8158   -4.9992   19.4719 S.2     1  UNL1       -0.0622
      3 C         -13.8932   -6.0085   19.2060 C.ar    1  UNL1        0.1120
      4 N         -15.3806   -5.9619   19.3939 N.ar    1  UNL1       -0.2373
      5 C         -16.2199   -7.1510   19.0315 C.ar    1  UNL1        0.0994
      6 C         -15.5718   -8.3868   18.4811 C.ar    1  UNL1        0.0208
      7 C         -14.0844   -8.4334   18.2933 C.ar    1  UNL1        0.0048
      8 C         -13.2451   -7.2443   18.6557 C.ar    1  UNL1        0.0374
      9 C         -11.7672   -6.9987   18.5815 C.ar    1  UNL1        0.0540
     10 N         -10.7357   -7.9702   18.0892 N.pl3   1  UNL1       -0.3564
     11 H         -11.0095   -8.8626   17.7766 H       1  UNL1        0.1424
     12 H          -9.7848   -7.7153   18.0788 H       1  UNL1        0.1424
     13 N         -10.0179   -3.4875   18.8924 N.am    1  UNL1       -0.3249
     14 C         -10.1585   -4.9515   19.1867 C.2     1  UNL1        0.2500
     15 O          -8.9556   -5.7560   19.5817 O.2     1  UNL1       -0.2698
     16 H          -9.1362   -3.0545   18.9586 H       1  UNL1        0.1453
     17 H         -10.8074   -2.9595   18.6331 H       1  UNL1        0.1453
@<TRIPOS>BOND
     1    13    14   am
     2    14    15    2
     3    14     1    1
     4     1     2   ar
     5     2     3   ar
     6     3     4   ar
     7     4     5   ar
     8     5     6   ar
     9     6     7   ar
    10     7     8   ar
    11     8     9   ar
    12     9    10    1
    13     9     1   ar
    14     8     3   ar
    15    13    16    1
    16    13    17    1
    17    10    11    1
    18    10    12    1
@<TRIPOS>MOLECULE
*****
 17 18 0 0 0
SMALL
GASTEIGER

@<TRIPOS>ATOM
      1 C          -7.9530  -18.5583   21.2320 C.ar    1  UNL1        0.0968
      2 S          -9.2104  -19.1943   20.7179 S.2     1  UNL1       -0.0622
      3 C         -10.3752  -18.4053   21.2383 C.ar    1  UNL1        0.1120
      4 N         -11.8559  -18.5649   21.0592 N.ar    1  UNL1       -0.2373
      5 C         -12.7990  -17.6008   21.7158 C.ar    1  UNL1        0.0994
      6 C         -12.2614  -16.4772   22.5515 C.ar    1  UNL1        0.0208
      7 C         -10.7807  -16.3177   22.7307 C.ar    1  UNL1        0.0048
      8 C          -9.8376  -17.2817   22.0741 C.ar    1  UNL1        0.0374
      9 C          -8.3406  -17.3763   22.0702 C.ar    1  UNL1        0.0540
     10 N          -7.3969  -16.4512   22.7798 N.pl3   1  UNL1       -0.3564
     11 H          -7.7493  -15.6991   23.3085 H       1  UNL1        0.1424
     12 H          -6.4252  -16.5960   22.7169 H       1  UNL1        0.1424
     13 N          -5.8288  -18.5371   19.7362 N.am    1  UNL1       -0.3249
     14 C          -6.5536  -19.0228   20.9563 C.2     1  UNL1        0.2500
     15 O          -5.8790  -19.9729   21.9008 O.2     1  UNL1       -0.2698
     16 H          -4.9104  -18.8420   19.5552 H       1  UNL1        0.1453
     17 H          -6.2716  -17.9135   19.1162 H       1  UNL1        0.1453
@<TRIPOS>BOND
     1    13    14   am
     2    14    15    2
     3    14     1    1
     4     1     2   ar
     5     2     3   ar
     6     3     4   ar
     7     4     5   ar
     8     5     6   ar
     9     6     7   ar
    10     7     8   ar
    11     8     9   ar
    12     9    10    1
    13     9     1   ar
    14     8     3   ar
    15    13    16    1
    16    13    17    1
    17    10    11    1
    18    10    12    1
