@<TRIPOS>MOLECULE
*****
 45 50 0 0 0
SMALL
GASTEIGER

@<TRIPOS>ATOM
      1 C          -2.9018    4.3101   21.8417 C.ar    1  UNL1        0.1348
      2 C          -2.6997    5.1148   23.0913 C.ar    1  UNL1        0.0346
      3 C          -1.5448    4.8127   23.9995 C.ar    1  UNL1        0.0065
      4 C          -0.5918    3.7058   23.6580 C.ar    1  UNL1        0.0432
      5 C          -0.7938    2.9011   22.4084 C.ar    1  UNL1        0.1256
      6 N          -1.9488    3.2032   21.5003 N.ar    1  UNL1       -0.2222
      7 C           0.5632    3.4037   24.5662 C.ar    1  UNL1        0.0851
      8 C           1.9613    3.9265   24.4183 C.ar    1  UNL1        0.1020
      9 N           2.7851    3.3717   25.5424 N.ar    1  UNL1       -0.2264
     10 C           1.8961    2.5058   26.3850 C.ar    1  UNL1        0.1474
     11 C           2.1595    1.7020   27.6237 C.ar    1  UNL1        0.0332
     12 C           1.0497    0.9179   28.2590 C.ar    1  UNL1       -0.0174
     13 C           1.3132    0.1140   29.4977 C.3     1  UNL1        0.0312
     14 C          -0.3235    0.9376   27.6558 C.ar    1  UNL1        0.0149
     15 C          -0.5869    1.7415   26.4171 C.ar    1  UNL1        0.0811
     16 N           0.5229    2.5256   25.7817 N.ar    1  UNL1       -0.2888
     17 C           2.4499    4.8434   23.3363 C.ar    1  UNL1        0.0574
     18 C           3.1514    4.2800   22.1360 C.ar    1  UNL1        0.1033
     19 N           3.6401    5.1968   21.0540 N.ar    1  UNL1       -0.2291
     20 C           3.4272    6.6769   21.1723 C.ar    1  UNL1        0.1396
     21 C           3.9159    7.5937   20.0903 C.3     1  UNL1        0.0737
     22 N           2.7258    7.2402   22.3725 N.ar    1  UNL1       -0.2291
     23 C           2.2372    6.3234   23.4545 C.ar    1  UNL1        0.1033
     24 C          -5.4205    4.0738   21.2501 C.2     1  UNL1        0.2414
     25 O          -5.6293    3.2333   22.4749 O.2     1  UNL1       -0.2733
     26 N          -4.0567    4.6122   20.9336 N.am    1  UNL1       -0.2682
     27 H          -3.9197    5.1639   20.1298 H       1  UNL1        0.1563
     28 C          -6.5755    4.3759   20.3420 C.3     1  UNL1        0.1319
     29 C          -6.6604    3.7233   18.9940 C.3     1  UNL1        0.0270
     30 C          -7.3724    6.3052   21.8888 C.3     1  UNL1        0.0862
     31 N          -7.6455    5.3307   20.7817 N.3     1  UNL1       -0.2902
     32 H          -7.9042    5.8806   19.9625 H       1  UNL1        0.1237
     33 C           0.1592    1.7941   22.0669 C.1     1  UNL1       -0.0404
     34 C           1.1121    0.6872   21.7254 C.1     1  UNL1       -0.0583
     35 C           2.0651   -0.4197   21.3839 C.ar    1  UNL1        0.0420
     36 C           2.1262   -0.9511   19.9826 C.ar    1  UNL1        0.0083
     37 C           3.0792   -2.0580   19.6411 C.ar    1  UNL1        0.0018
     38 C           3.9710   -2.6335   20.7011 C.ar    1  UNL1        0.0137
     39 C           4.9240   -3.7405   20.3595 C.ar    1  UNL1        0.0594
     40 C           4.9851   -4.2718   18.9582 C.3     1  UNL1        0.0521
     41 N           5.8158   -4.3160   21.4195 N.ar    1  UNL1       -0.2481
     42 C           5.7546   -3.7846   22.8209 C.ar    1  UNL1        0.0984
     43 C           4.8017   -2.6777   23.1623 C.ar    1  UNL1        0.0207
     44 C           3.9099   -2.1022   22.1024 C.ar    1  UNL1        0.0033
     45 C           2.9569   -0.9953   22.4439 C.ar    1  UNL1        0.0083
@<TRIPOS>BOND
     1    30    31    1
     2    31    28    1
     3    28    29    1
     4    28    24    1
     5    24    25    2
     6    24    26   am
     7    26     1    1
     8     1     2   ar
     9     2     3   ar
    10     3     4   ar
    11     4     7    1
    12     7     8   ar
    13     8    17    1
    14    17    18   ar
    15    18    19   ar
    16    19    20   ar
    17    20    21    1
    18    20    22   ar
    19    22    23   ar
    20     8     9   ar
    21     9    10   ar
    22    10    11   ar
    23    11    12   ar
    24    12    13    1
    25    12    14   ar
    26    14    15   ar
    27    15    16   ar
    28     4     5   ar
    29     5    33    1
    30    33    34    3
    31    34    35    1
    32    35    36   ar
    33    36    37   ar
    34    37    38   ar
    35    38    39   ar
    36    39    40    1
    37    39    41   ar
    38    41    42   ar
    39    42    43   ar
    40    43    44   ar
    41    44    45   ar
    42     5     6   ar
    43     6     1   ar
    44    16     7   ar
    45    45    35   ar
    46    23    17   ar
    47    16    10   ar
    48    44    38   ar
    49    31    32    1
    50    26    27    1
@<TRIPOS>MOLECULE
*****
 45 50 0 0 0
SMALL
GASTEIGER

@<TRIPOS>ATOM
      1 C          -2.6494    4.5385   22.6934 C.ar    1  UNL1        0.1348
      2 C          -2.1068    5.5763   23.6306 C.ar    1  UNL1        0.0346
      3 C          -0.7074    5.4536   24.1565 C.ar    1  UNL1        0.0065
      4 C           0.1494    4.2931   23.7452 C.ar    1  UNL1        0.0432
      5 C          -0.3933    3.2553   22.8080 C.ar    1  UNL1        0.1256
      6 N          -1.7927    3.3780   22.2821 N.ar    1  UNL1       -0.2222
      7 C           1.5488    4.1704   24.2712 C.ar    1  UNL1        0.0851
      8 C           1.9672    3.4117   25.4956 C.ar    1  UNL1        0.1020
      9 N           3.4525    3.5573   25.6462 N.ar    1  UNL1       -0.2264
     10 C           3.9521    4.4060   24.5148 C.ar    1  UNL1        0.1474
     11 C           5.3264    4.8827   24.1486 C.ar    1  UNL1        0.0332
     12 C           5.5241    5.7384   22.9326 C.ar    1  UNL1       -0.0174
     13 C           6.8983    6.2151   22.5664 C.3     1  UNL1        0.0312
     14 C           4.3475    6.1174   22.0827 C.ar    1  UNL1        0.0149
     15 C           2.9733    5.6407   22.4489 C.ar    1  UNL1        0.0811
     16 N           2.7755    4.7849   23.6650 N.ar    1  UNL1       -0.2888
     17 C           1.0596    2.6424   26.4091 C.ar    1  UNL1        0.0574
     18 C           0.3830    1.3964   25.9192 C.ar    1  UNL1        0.1033
     19 N          -0.5246    0.6272   26.8327 N.ar    1  UNL1       -0.2291
     20 C          -0.7556    1.1038   28.2361 C.ar    1  UNL1        0.1396
     21 C          -1.6632    0.3345   29.1496 C.3     1  UNL1        0.0737
     22 N          -0.0791    2.3497   28.7260 N.ar    1  UNL1       -0.2291
     23 C           0.8285    3.1190   27.8124 C.ar    1  UNL1        0.1033
     24 C          -5.1986    4.1135   22.9599 C.2     1  UNL1        0.2414
     25 O          -4.9490    3.4431   24.2784 O.2     1  UNL1       -0.2733
     26 N          -4.0489    4.6612   22.1675 N.am    1  UNL1       -0.2682
     27 H          -4.2127    5.1012   21.3021 H       1  UNL1        0.1563
     28 C          -6.5980    4.2362   22.4340 C.3     1  UNL1        0.1319
     29 C          -6.8341    4.7373   21.0399 C.3     1  UNL1        0.0270
     30 C          -8.4758    4.9091   24.0986 C.3     1  UNL1        0.0862
     31 N          -7.7613    3.8579   23.3020 N.3     1  UNL1       -0.2902
     32 H          -8.4563    3.4277   22.6919 H       1  UNL1        0.1237
     33 C           0.4635    2.0948   22.3967 C.1     1  UNL1       -0.0404
     34 C           1.3202    0.9343   21.9854 C.1     1  UNL1       -0.0583
     35 C           2.1769   -0.2263   21.5740 C.ar    1  UNL1        0.0420
     36 C           2.1375   -0.7234   20.1594 C.ar    1  UNL1        0.0083
     37 C           2.9942   -1.8839   19.7481 C.ar    1  UNL1        0.0018
     38 C           3.8904   -2.5473   20.7515 C.ar    1  UNL1        0.0137
     39 C           4.7471   -3.7079   20.3401 C.ar    1  UNL1        0.0594
     40 C           4.7077   -4.2050   18.9255 C.3     1  UNL1        0.0521
     41 N           5.6433   -4.3713   21.3435 N.ar    1  UNL1       -0.2481
     42 C           5.6827   -3.8741   22.7582 C.ar    1  UNL1        0.0984
     43 C           4.8260   -2.7136   23.1695 C.ar    1  UNL1        0.0207
     44 C           3.9298   -2.0502   22.1661 C.ar    1  UNL1        0.0033
     45 C           3.0731   -0.8897   22.5774 C.ar    1  UNL1        0.0083
@<TRIPOS>BOND
     1    30    31    1
     2    31    28    1
     3    28    29    1
     4    28    24    1
     5    24    25    2
     6    24    26   am
     7    26     1    1
     8     1     2   ar
     9     2     3   ar
    10     3     4   ar
    11     4     7    1
    12     7     8   ar
    13     8    17    1
    14    17    18   ar
    15    18    19   ar
    16    19    20   ar
    17    20    21    1
    18    20    22   ar
    19    22    23   ar
    20     8     9   ar
    21     9    10   ar
    22    10    11   ar
    23    11    12   ar
    24    12    13    1
    25    12    14   ar
    26    14    15   ar
    27    15    16   ar
    28     4     5   ar
    29     5    33    1
    30    33    34    3
    31    34    35    1
    32    35    36   ar
    33    36    37   ar
    34    37    38   ar
    35    38    39   ar
    36    39    40    1
    37    39    41   ar
    38    41    42   ar
    39    42    43   ar
    40    43    44   ar
    41    44    45   ar
    42     5     6   ar
    43     6     1   ar
    44    16     7   ar
    45    45    35   ar
    46    23    17   ar
    47    16    10   ar
    48    44    38   ar
    49    31    32    1
    50    26    27    1
@<TRIPOS>MOLECULE
*****
 45 50 0 0 0
SMALL
GASTEIGER

@<TRIPOS>ATOM
      1 C          -3.0143    4.1532   22.3568 C.ar    1  UNL1        0.1348
      2 C          -2.5128    5.3272   23.1443 C.ar    1  UNL1        0.0346
      3 C          -1.0861    5.3662   23.6060 C.ar    1  UNL1        0.0065
      4 C          -0.1611    4.2313   23.2804 C.ar    1  UNL1        0.0432
      5 C          -0.6626    3.0573   22.4930 C.ar    1  UNL1        0.1256
      6 N          -2.0893    3.0182   22.0312 N.ar    1  UNL1       -0.2222
      7 C           1.2655    4.2703   23.7422 C.ar    1  UNL1        0.0851
      8 C           1.8192    3.5811   24.9540 C.ar    1  UNL1        0.1020
      9 N           3.2848    3.8903   25.0340 N.ar    1  UNL1       -0.2264
     10 C           3.6370    4.7705   23.8716 C.ar    1  UNL1        0.1474
     11 C           4.9328    5.3886   23.4370 C.ar    1  UNL1        0.0332
     12 C           4.9806    6.2415   22.2040 C.ar    1  UNL1       -0.0174
     13 C           6.2764    6.8596   21.7694 C.3     1  UNL1        0.0312
     14 C           3.7326    6.4764   21.4056 C.ar    1  UNL1        0.0149
     15 C           2.4368    5.8584   21.8402 C.ar    1  UNL1        0.0811
     16 N           2.3890    5.0054   23.0733 N.ar    1  UNL1       -0.2888
     17 C           1.0435    2.7318   25.9168 C.ar    1  UNL1        0.0574
     18 C           1.6777    1.5151   26.5230 C.ar    1  UNL1        0.1033
     19 N           0.9019    0.6658   27.4858 N.ar    1  UNL1       -0.2291
     20 C          -0.5080    1.0332   27.8424 C.ar    1  UNL1        0.1396
     21 C          -1.2837    0.1839   28.8052 C.3     1  UNL1        0.0737
     22 N          -1.1421    2.2499   27.2362 N.ar    1  UNL1       -0.2291
     23 C          -0.3664    3.0992   26.2734 C.ar    1  UNL1        0.1033
     24 C          -4.7548    4.1150   20.4283 C.2     1  UNL1        0.2414
     25 O          -3.6419    4.1549   19.4232 O.2     1  UNL1       -0.2733
     26 N          -4.4409    4.1141   21.8950 N.am    1  UNL1       -0.2682
     27 H          -5.1713    4.0879   22.5547 H       1  UNL1        0.1563
     28 C          -6.1814    4.0759   19.9665 C.3     1  UNL1        0.1319
     29 C          -6.5617    3.2472   18.7754 C.3     1  UNL1        0.0270
     30 C          -7.7310    6.1557   20.1194 C.3     1  UNL1        0.0862
     31 N          -7.2276    4.8656   20.6957 N.3     1  UNL1       -0.2902
     32 H          -8.0374    4.2544   20.8013 H       1  UNL1        0.1237
     33 C           0.2624    1.9222   22.1673 C.1     1  UNL1       -0.0404
     34 C           1.1874    0.7872   21.8416 C.1     1  UNL1       -0.0583
     35 C           2.1125   -0.3479   21.5160 C.ar    1  UNL1        0.0420
     36 C           2.1367   -0.9217   20.1303 C.ar    1  UNL1        0.0083
     37 C           3.0618   -2.0566   19.8047 C.ar    1  UNL1        0.0018
     38 C           3.9626   -2.6178   20.8647 C.ar    1  UNL1        0.0137
     39 C           4.8876   -3.7529   20.5390 C.ar    1  UNL1        0.0594
     40 C           4.9119   -4.3267   19.1534 C.3     1  UNL1        0.0521
     41 N           5.7884   -4.3140   21.5991 N.ar    1  UNL1       -0.2481
     42 C           5.7641   -3.7402   22.9848 C.ar    1  UNL1        0.0984
     43 C           4.8391   -2.6052   23.3104 C.ar    1  UNL1        0.0207
     44 C           3.9383   -2.0440   22.2504 C.ar    1  UNL1        0.0033
     45 C           3.0133   -0.9090   22.5760 C.ar    1  UNL1        0.0083
@<TRIPOS>BOND
     1    30    31    1
     2    31    28    1
     3    28    29    1
     4    28    24    1
     5    24    25    2
     6    24    26   am
     7    26     1    1
     8     1     2   ar
     9     2     3   ar
    10     3     4   ar
    11     4     7    1
    12     7     8   ar
    13     8    17    1
    14    17    18   ar
    15    18    19   ar
    16    19    20   ar
    17    20    21    1
    18    20    22   ar
    19    22    23   ar
    20     8     9   ar
    21     9    10   ar
    22    10    11   ar
    23    11    12   ar
    24    12    13    1
    25    12    14   ar
    26    14    15   ar
    27    15    16   ar
    28     4     5   ar
    29     5    33    1
    30    33    34    3
    31    34    35    1
    32    35    36   ar
    33    36    37   ar
    34    37    38   ar
    35    38    39   ar
    36    39    40    1
    37    39    41   ar
    38    41    42   ar
    39    42    43   ar
    40    43    44   ar
    41    44    45   ar
    42     5     6   ar
    43     6     1   ar
    44    16     7   ar
    45    45    35   ar
    46    23    17   ar
    47    16    10   ar
    48    44    38   ar
    49    31    32    1
    50    26    27    1
@<TRIPOS>MOLECULE
*****
 45 50 0 0 0
SMALL
GASTEIGER

@<TRIPOS>ATOM
      1 C           2.7309   -0.1753   29.8300 C.ar    1  UNL1        0.1348
      2 C           2.1885    1.2013   30.0765 C.ar    1  UNL1        0.0346
      3 C           1.9110    2.1162   28.9206 C.ar    1  UNL1        0.0065
      4 C           2.1757    1.6544   27.5183 C.ar    1  UNL1        0.0432
      5 C           2.7181    0.2778   27.2718 C.ar    1  UNL1        0.1256
      6 N           2.9956   -0.6370   28.4277 N.ar    1  UNL1       -0.2222
      7 C           1.8981    2.5692   26.3624 C.ar    1  UNL1        0.0851
      8 C           2.9240    3.3195   25.5657 C.ar    1  UNL1        0.1020
      9 N           2.2058    4.1084   24.5112 N.ar    1  UNL1       -0.2264
     10 C           0.7362    3.8456   24.6562 C.ar    1  UNL1        0.1474
     11 C          -0.4535    4.3496   23.8942 C.ar    1  UNL1        0.0332
     12 C          -1.8333    3.9024   24.2763 C.ar    1  UNL1       -0.0174
     13 C          -3.0230    4.4064   23.5143 C.3     1  UNL1        0.0312
     14 C          -2.0236    2.9511   25.4204 C.ar    1  UNL1        0.0149
     15 C          -0.8339    2.4471   26.1824 C.ar    1  UNL1        0.0811
     16 N           0.5460    2.8944   25.8003 N.ar    1  UNL1       -0.2888
     17 C           4.4075    3.2868   25.7850 C.ar    1  UNL1        0.0574
     18 C           5.0056    3.9807   26.9729 C.ar    1  UNL1        0.1033
     19 N           6.4891    3.9480   27.1922 N.ar    1  UNL1       -0.2291
     20 C           7.3746    3.2213   26.2237 C.ar    1  UNL1        0.1396
     21 C           8.8581    3.1885   26.4430 C.3     1  UNL1        0.0737
     22 N           6.7765    2.5274   25.0360 N.ar    1  UNL1       -0.2291
     23 C           5.2930    2.5601   24.8167 C.ar    1  UNL1        0.1033
     24 C           4.3914   -1.1741   31.5606 C.2     1  UNL1        0.2414
     25 O           5.4969   -0.3432   30.9795 O.2     1  UNL1       -0.2733
     26 N           3.0084   -1.0901   30.9859 N.am    1  UNL1       -0.2682
     27 H           2.2829   -1.6354   31.3673 H       1  UNL1        0.1563
     28 C           4.6690   -2.0889   32.7165 C.3     1  UNL1        0.1319
     29 C           4.2589   -1.6907   34.1034 C.3     1  UNL1        0.0270
     30 C           6.8023   -3.4315   32.0869 C.3     1  UNL1        0.0862
     31 N           5.3565   -3.4019   32.4855 N.3     1  UNL1       -0.2902
     32 H           5.2796   -3.9313   33.3540 H       1  UNL1        0.1237
     33 C           2.9829   -0.1841   25.8694 C.1     1  UNL1       -0.0404
     34 C           3.2477   -0.6458   24.4671 C.1     1  UNL1       -0.0583
     35 C           3.5125   -1.1077   23.0647 C.ar    1  UNL1        0.0420
     36 C           4.1697   -2.4342   22.8234 C.ar    1  UNL1        0.0083
     37 C           4.4345   -2.8960   21.4211 C.ar    1  UNL1        0.0018
     38 C           4.0420   -2.0312   20.2600 C.ar    1  UNL1        0.0137
     39 C           4.3068   -2.4930   18.8576 C.ar    1  UNL1        0.0594
     40 C           4.9641   -3.8196   18.6163 C.3     1  UNL1        0.0521
     41 N           3.9143   -1.6283   17.6965 N.ar    1  UNL1       -0.2481
     42 C           3.2570   -0.3017   17.9378 C.ar    1  UNL1        0.0984
     43 C           2.9922    0.1601   19.3401 C.ar    1  UNL1        0.0207
     44 C           3.3847   -0.7047   20.5012 C.ar    1  UNL1        0.0033
     45 C           3.1199   -0.2429   21.9036 C.ar    1  UNL1        0.0083
@<TRIPOS>BOND
     1    30    31    1
     2    31    28    1
     3    28    29    1
     4    28    24    1
     5    24    25    2
     6    24    26   am
     7    26     1    1
     8     1     2   ar
     9     2     3   ar
    10     3     4   ar
    11     4     7    1
    12     7     8   ar
    13     8    17    1
    14    17    18   ar
    15    18    19   ar
    16    19    20   ar
    17    20    21    1
    18    20    22   ar
    19    22    23   ar
    20     8     9   ar
    21     9    10   ar
    22    10    11   ar
    23    11    12   ar
    24    12    13    1
    25    12    14   ar
    26    14    15   ar
    27    15    16   ar
    28     4     5   ar
    29     5    33    1
    30    33    34    3
    31    34    35    1
    32    35    36   ar
    33    36    37   ar
    34    37    38   ar
    35    38    39   ar
    36    39    40    1
    37    39    41   ar
    38    41    42   ar
    39    42    43   ar
    40    43    44   ar
    41    44    45   ar
    42     5     6   ar
    43     6     1   ar
    44    16     7   ar
    45    45    35   ar
    46    23    17   ar
    47    16    10   ar
    48    44    38   ar
    49    31    32    1
    50    26    27    1
@<TRIPOS>MOLECULE
*****
 45 50 0 0 0
SMALL
GASTEIGER

@<TRIPOS>ATOM
      1 C          -3.2232    4.0584   22.2888 C.ar    1  UNL1        0.1348
      2 C          -2.7905    5.0456   23.3319 C.ar    1  UNL1        0.0346
      3 C          -1.3515    5.1127   23.7501 C.ar    1  UNL1        0.0065
      4 C          -0.3452    4.1925   23.1251 C.ar    1  UNL1        0.0432
      5 C          -0.7779    3.2053   22.0820 C.ar    1  UNL1        0.1256
      6 N          -2.2169    3.1382   21.6638 N.ar    1  UNL1       -0.2222
      7 C           1.0938    4.2596   23.5432 C.ar    1  UNL1        0.0851
      8 C           1.6826    3.6451   24.7784 C.ar    1  UNL1        0.1020
      9 N           3.1493    3.9586   24.7981 N.ar    1  UNL1       -0.2264
     10 C           3.4670    4.7668   23.5751 C.ar    1  UNL1        0.1474
     11 C           4.7490    5.3575   23.0674 C.ar    1  UNL1        0.0332
     12 C           4.7605    6.1341   21.7842 C.ar    1  UNL1       -0.0174
     13 C           6.0425    6.7247   21.2765 C.3     1  UNL1        0.0312
     14 C           3.4902    6.3201   21.0085 C.ar    1  UNL1        0.0149
     15 C           2.2082    5.7295   21.5162 C.ar    1  UNL1        0.0811
     16 N           2.1966    4.9528   22.7995 N.ar    1  UNL1       -0.2888
     17 C           0.9358    2.8557   25.8124 C.ar    1  UNL1        0.0574
     18 C           0.7940    3.3909   27.2066 C.ar    1  UNL1        0.1033
     19 N           0.0472    2.6015   28.2406 N.ar    1  UNL1       -0.2291
     20 C          -0.5578    1.2770   27.8805 C.ar    1  UNL1        0.1396
     21 C          -1.3047    0.4876   28.9145 C.3     1  UNL1        0.0737
     22 N          -0.4161    0.7419   26.4864 N.ar    1  UNL1       -0.2291
     23 C           0.3308    1.5313   25.4524 C.ar    1  UNL1        0.1033
     24 C          -5.0870    4.5630   20.5506 C.2     1  UNL1        0.2414
     25 O          -4.0729    5.2017   19.6486 O.2     1  UNL1       -0.2733
     26 N          -4.6622    3.9914   21.8707 N.am    1  UNL1       -0.2682
     27 H          -5.3278    3.5721   22.4627 H       1  UNL1        0.1563
     28 C          -6.5260    4.4960   20.1325 C.3     1  UNL1        0.1319
     29 C          -6.9093    3.7694   18.8774 C.3     1  UNL1        0.0270
     30 C          -7.3443    6.5245   21.5345 C.3     1  UNL1        0.0862
     31 N          -7.5817    5.1554   20.9695 N.3     1  UNL1       -0.2902
     32 H          -8.4200    5.2167   20.3916 H       1  UNL1        0.1237
     33 C           0.2284    2.2851   21.4569 C.1     1  UNL1       -0.0404
     34 C           1.2346    1.3649   20.8319 C.1     1  UNL1       -0.0583
     35 C           2.2409    0.4446   20.2068 C.ar    1  UNL1        0.0420
     36 C           2.1485   -1.0348   20.4362 C.ar    1  UNL1        0.0083
     37 C           3.1547   -1.9550   19.8112 C.ar    1  UNL1        0.0018
     38 C           4.2534   -1.3957   18.9567 C.ar    1  UNL1        0.0137
     39 C           5.2597   -2.3159   18.3317 C.ar    1  UNL1        0.0594
     40 C           5.1673   -3.7953   18.5611 C.3     1  UNL1        0.0521
     41 N           6.3583   -1.7566   17.4772 N.ar    1  UNL1       -0.2481
     42 C           6.4507   -0.2771   17.2477 C.ar    1  UNL1        0.0984
     43 C           5.4444    0.6430   17.8728 C.ar    1  UNL1        0.0207
     44 C           4.3458    0.0838   18.7273 C.ar    1  UNL1        0.0033
     45 C           3.3395    1.0039   19.3523 C.ar    1  UNL1        0.0083
@<TRIPOS>BOND
     1    30    31    1
     2    31    28    1
     3    28    29    1
     4    28    24    1
     5    24    25    2
     6    24    26   am
     7    26     1    1
     8     1     2   ar
     9     2     3   ar
    10     3     4   ar
    11     4     7    1
    12     7     8   ar
    13     8    17    1
    14    17    18   ar
    15    18    19   ar
    16    19    20   ar
    17    20    21    1
    18    20    22   ar
    19    22    23   ar
    20     8     9   ar
    21     9    10   ar
    22    10    11   ar
    23    11    12   ar
    24    12    13    1
    25    12    14   ar
    26    14    15   ar
    27    15    16   ar
    28     4     5   ar
    29     5    33    1
    30    33    34    3
    31    34    35    1
    32    35    36   ar
    33    36    37   ar
    34    37    38   ar
    35    38    39   ar
    36    39    40    1
    37    39    41   ar
    38    41    42   ar
    39    42    43   ar
    40    43    44   ar
    41    44    45   ar
    42     5     6   ar
    43     6     1   ar
    44    16     7   ar
    45    45    35   ar
    46    23    17   ar
    47    16    10   ar
    48    44    38   ar
    49    31    32    1
    50    26    27    1
@<TRIPOS>MOLECULE
*****
 45 50 0 0 0
SMALL
GASTEIGER

@<TRIPOS>ATOM
      1 C          -1.3501    5.6573   23.9943 C.ar    1  UNL1        0.1348
      2 C          -1.5744    6.6697   22.9105 C.ar    1  UNL1        0.0346
      3 C          -1.0739    6.4049   21.5215 C.ar    1  UNL1        0.0065
      4 C          -0.3491    5.1276   21.2163 C.ar    1  UNL1        0.0432
      5 C          -0.1248    4.1152   22.3000 C.ar    1  UNL1        0.1256
      6 N          -0.6253    4.3800   23.6891 N.ar    1  UNL1       -0.2222
      7 C           0.1514    4.8628   19.8272 C.ar    1  UNL1        0.0851
      8 C          -0.6777    4.4068   18.6633 C.ar    1  UNL1        0.1020
      9 N           0.2273    4.2696   17.4750 N.ar    1  UNL1       -0.2264
     10 C           1.6157    4.6408   17.9044 C.ar    1  UNL1        0.1474
     11 C           2.9167    4.6924   17.1596 C.ar    1  UNL1        0.0332
     12 C           4.1707    5.1106   17.8685 C.ar    1  UNL1       -0.0174
     13 C           5.4717    5.1622   17.1237 C.3     1  UNL1        0.0312
     14 C           4.1238    5.4772   19.3223 C.ar    1  UNL1        0.0149
     15 C           2.8229    5.4256   20.0671 C.ar    1  UNL1        0.0811
     16 N           1.5688    5.0074   19.3582 N.ar    1  UNL1       -0.2888
     17 C          -2.1528    4.1355   18.6841 C.ar    1  UNL1        0.0574
     18 C          -2.9896    4.4463   17.4785 C.ar    1  UNL1        0.1033
     19 N          -4.4648    4.1751   17.4992 N.ar    1  UNL1       -0.2291
     20 C          -5.1031    3.5931   18.7255 C.ar    1  UNL1        0.1396
     21 C          -6.5783    3.3219   18.7462 C.3     1  UNL1        0.0737
     22 N          -4.2664    3.2824   19.9310 N.ar    1  UNL1       -0.2291
     23 C          -2.7913    3.5536   19.9102 C.ar    1  UNL1        0.1033
     24 C          -3.2121    5.4449   25.7937 C.2     1  UNL1        0.2414
     25 O          -4.0733    4.7029   24.8149 O.2     1  UNL1       -0.2733
     26 N          -1.8505    5.9221   25.3833 N.am    1  UNL1       -0.2682
     27 H          -1.2854    6.4091   26.0257 H       1  UNL1        0.1563
     28 C          -3.7126    5.7098   27.1827 C.3     1  UNL1        0.1319
     29 C          -2.8685    6.4877   28.1484 C.3     1  UNL1        0.0270
     30 C          -6.3051    5.8552   27.0976 C.3     1  UNL1        0.0862
     31 N          -5.0570    5.1967   27.6060 N.3     1  UNL1       -0.2902
     32 H          -5.1024    4.2188   27.3198 H       1  UNL1        0.1237
     33 C           0.6000    2.8378   21.9948 C.1     1  UNL1       -0.0404
     34 C           1.3247    1.5605   21.6896 C.1     1  UNL1       -0.0583
     35 C           2.0495    0.2831   21.3844 C.ar    1  UNL1        0.0420
     36 C           1.9699   -0.3146   20.0110 C.ar    1  UNL1        0.0083
     37 C           2.6947   -1.5919   19.7058 C.ar    1  UNL1        0.0018
     38 C           3.4990   -2.2715   20.7741 C.ar    1  UNL1        0.0137
     39 C           4.2238   -3.5488   20.4689 C.ar    1  UNL1        0.0594
     40 C           4.1443   -4.1466   19.0954 C.3     1  UNL1        0.0521
     41 N           5.0282   -4.2284   21.5371 N.ar    1  UNL1       -0.2481
     42 C           5.1078   -3.6306   22.9106 C.ar    1  UNL1        0.0984
     43 C           4.3830   -2.3533   23.2158 C.ar    1  UNL1        0.0207
     44 C           3.5786   -1.6738   22.1475 C.ar    1  UNL1        0.0033
     45 C           2.8538   -0.3965   22.4527 C.ar    1  UNL1        0.0083
@<TRIPOS>BOND
     1    30    31    1
     2    31    28    1
     3    28    29    1
     4    28    24    1
     5    24    25    2
     6    24    26   am
     7    26     1    1
     8     1     2   ar
     9     2     3   ar
    10     3     4   ar
    11     4     7    1
    12     7     8   ar
    13     8    17    1
    14    17    18   ar
    15    18    19   ar
    16    19    20   ar
    17    20    21    1
    18    20    22   ar
    19    22    23   ar
    20     8     9   ar
    21     9    10   ar
    22    10    11   ar
    23    11    12   ar
    24    12    13    1
    25    12    14   ar
    26    14    15   ar
    27    15    16   ar
    28     4     5   ar
    29     5    33    1
    30    33    34    3
    31    34    35    1
    32    35    36   ar
    33    36    37   ar
    34    37    38   ar
    35    38    39   ar
    36    39    40    1
    37    39    41   ar
    38    41    42   ar
    39    42    43   ar
    40    43    44   ar
    41    44    45   ar
    42     5     6   ar
    43     6     1   ar
    44    16     7   ar
    45    45    35   ar
    46    23    17   ar
    47    16    10   ar
    48    44    38   ar
    49    31    32    1
    50    26    27    1
@<TRIPOS>MOLECULE
*****
 45 50 0 0 0
SMALL
GASTEIGER

@<TRIPOS>ATOM
      1 C           0.5863    0.8619   19.8196 C.ar    1  UNL1        0.1348
      2 C           0.8512    1.5889   18.5346 C.ar    1  UNL1        0.0346
      3 C           0.1409    2.8771   18.2415 C.ar    1  UNL1        0.0065
      4 C          -0.8343    3.4384   19.2334 C.ar    1  UNL1        0.0432
      5 C          -1.0993    2.7114   20.5184 C.ar    1  UNL1        0.1256
      6 N          -0.3890    1.4232   20.8115 N.ar    1  UNL1       -0.2222
      7 C          -1.5446    4.7266   18.9402 C.ar    1  UNL1        0.0851
      8 C          -0.9833    6.1051   19.1264 C.ar    1  UNL1        0.1020
      9 N          -2.0327    7.0930   18.7107 N.ar    1  UNL1       -0.2264
     10 C          -3.2427    6.3250   18.2676 C.ar    1  UNL1        0.1474
     11 C          -4.5801    6.7685   17.7533 C.ar    1  UNL1        0.0332
     12 C          -5.6159    5.7495   17.3808 C.ar    1  UNL1       -0.0174
     13 C          -6.9533    6.1930   16.8665 C.3     1  UNL1        0.0312
     14 C          -5.3143    4.2869   17.5227 C.ar    1  UNL1        0.0149
     15 C          -3.9768    3.8435   18.0370 C.ar    1  UNL1        0.0811
     16 N          -2.9410    4.8626   18.4095 N.ar    1  UNL1       -0.2888
     17 C           0.3869    6.4374   19.6384 C.ar    1  UNL1        0.0574
     18 C           0.6638    6.4100   21.1124 C.ar    1  UNL1        0.1033
     19 N           2.0340    6.7423   21.6244 N.ar    1  UNL1       -0.2291
     20 C           3.1273    7.1020   20.6625 C.ar    1  UNL1        0.1396
     21 C           4.4975    7.4343   21.1744 C.3     1  UNL1        0.0737
     22 N           2.8503    7.1294   19.1885 N.ar    1  UNL1       -0.2291
     23 C           1.4801    6.7971   18.6765 C.ar    1  UNL1        0.1033
     24 C           2.6967   -0.4053   20.6505 C.2     1  UNL1        0.2414
     25 O           3.3865    0.9041   20.8952 O.2     1  UNL1       -0.2733
     26 N           1.2966   -0.4263   20.1128 N.am    1  UNL1       -0.2682
     27 H           0.8438   -1.2857   19.9522 H       1  UNL1        0.1563
     28 C           3.4070   -1.6935   20.9437 C.3     1  UNL1        0.1319
     29 C           3.9300   -1.9645   22.3232 C.3     1  UNL1        0.0270
     30 C           4.2350   -2.3136   18.5604 C.3     1  UNL1        0.0862
     31 N           3.5943   -2.7107   19.8573 N.3     1  UNL1       -0.2902
     32 H           4.1645   -3.4596   20.2503 H       1  UNL1        0.1237
     33 C          -2.0745    3.2727   21.5103 C.1     1  UNL1       -0.0404
     34 C          -3.0498    3.8339   22.5022 C.1     1  UNL1       -0.0583
     35 C          -4.0251    4.3951   23.4942 C.ar    1  UNL1        0.0420
     36 C          -3.5520    4.8214   24.8522 C.ar    1  UNL1        0.0083
     37 C          -4.5272    5.3827   25.8441 C.ar    1  UNL1        0.0018
     38 C          -5.9756    5.5176   25.4779 C.ar    1  UNL1        0.0137
     39 C          -6.9509    6.0788   26.4699 C.ar    1  UNL1        0.0594
     40 C          -6.4778    6.5051   27.8279 C.3     1  UNL1        0.0521
     41 N          -8.3992    6.2138   26.1037 N.ar    1  UNL1       -0.2481
     42 C          -8.8723    5.7874   24.7455 C.ar    1  UNL1        0.0984
     43 C          -7.8970    5.2262   23.7536 C.ar    1  UNL1        0.0207
     44 C          -6.4487    5.0913   24.1198 C.ar    1  UNL1        0.0033
     45 C          -5.4734    4.5301   23.1280 C.ar    1  UNL1        0.0083
@<TRIPOS>BOND
     1    30    31    1
     2    31    28    1
     3    28    29    1
     4    28    24    1
     5    24    25    2
     6    24    26   am
     7    26     1    1
     8     1     2   ar
     9     2     3   ar
    10     3     4   ar
    11     4     7    1
    12     7     8   ar
    13     8    17    1
    14    17    18   ar
    15    18    19   ar
    16    19    20   ar
    17    20    21    1
    18    20    22   ar
    19    22    23   ar
    20     8     9   ar
    21     9    10   ar
    22    10    11   ar
    23    11    12   ar
    24    12    13    1
    25    12    14   ar
    26    14    15   ar
    27    15    16   ar
    28     4     5   ar
    29     5    33    1
    30    33    34    3
    31    34    35    1
    32    35    36   ar
    33    36    37   ar
    34    37    38   ar
    35    38    39   ar
    36    39    40    1
    37    39    41   ar
    38    41    42   ar
    39    42    43   ar
    40    43    44   ar
    41    44    45   ar
    42     5     6   ar
    43     6     1   ar
    44    16     7   ar
    45    45    35   ar
    46    23    17   ar
    47    16    10   ar
    48    44    38   ar
    49    31    32    1
    50    26    27    1
@<TRIPOS>MOLECULE
*****
 45 50 0 0 0
SMALL
GASTEIGER

@<TRIPOS>ATOM
      1 C          -0.1432    2.1648   27.9410 C.ar    1  UNL1        0.1348
      2 C          -1.0715    3.3340   27.7959 C.ar    1  UNL1        0.0346
      3 C          -1.3703    3.8901   26.4352 C.ar    1  UNL1        0.0065
      4 C          -0.7407    3.2771   25.2196 C.ar    1  UNL1        0.0432
      5 C           0.1877    2.1079   25.3647 C.ar    1  UNL1        0.1256
      6 N           0.4864    1.5517   26.7254 N.ar    1  UNL1       -0.2222
      7 C          -1.0394    3.8333   23.8590 C.ar    1  UNL1        0.0851
      8 C          -0.0760    4.5704   22.9767 C.ar    1  UNL1        0.1020
      9 N          -0.7952    4.9427   21.7141 N.ar    1  UNL1       -0.2264
     10 C          -2.2032    4.4356   21.8160 C.ar    1  UNL1        0.1474
     11 C          -3.3673    4.5096   20.8730 C.ar    1  UNL1        0.0332
     12 C          -4.6824    3.8979   21.2556 C.ar    1  UNL1       -0.0174
     13 C          -5.8466    3.9719   20.3126 C.3     1  UNL1        0.0312
     14 C          -4.8335    3.2122   22.5811 C.ar    1  UNL1        0.0149
     15 C          -3.6693    3.1383   23.5241 C.ar    1  UNL1        0.0811
     16 N          -2.3541    3.7499   23.1416 N.ar    1  UNL1       -0.2888
     17 C           1.3555    4.8808   23.3003 C.ar    1  UNL1        0.0574
     18 C           2.4535    4.3554   22.4237 C.ar    1  UNL1        0.1033
     19 N           3.8849    4.6658   22.7473 N.ar    1  UNL1       -0.2291
     20 C           4.2184    5.5016   23.9474 C.ar    1  UNL1        0.1396
     21 C           5.6498    5.8120   24.2709 C.3     1  UNL1        0.0737
     22 N           3.1204    6.0270   24.8239 N.ar    1  UNL1       -0.2291
     23 C           1.6889    5.7166   24.5003 C.ar    1  UNL1        0.1033
     24 C           1.5111    1.8075   29.9121 C.2     1  UNL1        0.2414
     25 O           2.5681    2.5627   29.1619 O.2     1  UNL1       -0.2733
     26 N           0.1556    1.6086   29.3016 N.am    1  UNL1       -0.2682
     27 H          -0.5381    1.1130   29.7940 H       1  UNL1        0.1563
     28 C           1.8099    1.2514   31.2728 C.3     1  UNL1        0.1319
     29 C           2.8886    0.2228   31.4424 C.3     1  UNL1        0.0270
     30 C           1.2863    3.0865   33.0357 C.3     1  UNL1        0.0862
     31 N           1.0300    1.7237   32.4639 N.3     1  UNL1       -0.2902
     32 H           0.0449    1.6951   32.2010 H       1  UNL1        0.1237
     33 C           0.8173    1.4948   24.1490 C.1     1  UNL1       -0.0404
     34 C           1.4470    0.8817   22.9335 C.1     1  UNL1       -0.0583
     35 C           2.0766    0.2686   21.7179 C.ar    1  UNL1        0.0420
     36 C           1.9170    0.9250   20.3786 C.ar    1  UNL1        0.0083
     37 C           2.5466    0.3119   19.1631 C.ar    1  UNL1        0.0018
     38 C           3.3359   -0.9576   19.2868 C.ar    1  UNL1        0.0137
     39 C           3.9656   -1.5707   18.0711 C.ar    1  UNL1        0.0594
     40 C           3.8059   -0.9143   16.7319 C.3     1  UNL1        0.0521
     41 N           4.7548   -2.8403   18.1948 N.ar    1  UNL1       -0.2481
     42 C           4.9145   -3.4967   19.5341 C.ar    1  UNL1        0.0984
     43 C           4.2848   -2.8836   20.7496 C.ar    1  UNL1        0.0207
     44 C           3.4955   -1.6141   20.6260 C.ar    1  UNL1        0.0033
     45 C           2.8659   -1.0010   21.8415 C.ar    1  UNL1        0.0083
@<TRIPOS>BOND
     1    30    31    1
     2    31    28    1
     3    28    29    1
     4    28    24    1
     5    24    25    2
     6    24    26   am
     7    26     1    1
     8     1     2   ar
     9     2     3   ar
    10     3     4   ar
    11     4     7    1
    12     7     8   ar
    13     8    17    1
    14    17    18   ar
    15    18    19   ar
    16    19    20   ar
    17    20    21    1
    18    20    22   ar
    19    22    23   ar
    20     8     9   ar
    21     9    10   ar
    22    10    11   ar
    23    11    12   ar
    24    12    13    1
    25    12    14   ar
    26    14    15   ar
    27    15    16   ar
    28     4     5   ar
    29     5    33    1
    30    33    34    3
    31    34    35    1
    32    35    36   ar
    33    36    37   ar
    34    37    38   ar
    35    38    39   ar
    36    39    40    1
    37    39    41   ar
    38    41    42   ar
    39    42    43   ar
    40    43    44   ar
    41    44    45   ar
    42     5     6   ar
    43     6     1   ar
    44    16     7   ar
    45    45    35   ar
    46    23    17   ar
    47    16    10   ar
    48    44    38   ar
    49    31    32    1
    50    26    27    1
@<TRIPOS>MOLECULE
*****
 45 50 0 0 0
SMALL
GASTEIGER

@<TRIPOS>ATOM
      1 C          -3.4702    3.8637   22.2486 C.ar    1  UNL1        0.1348
      2 C          -3.0960    4.7497   23.3996 C.ar    1  UNL1        0.0346
      3 C          -1.6848    4.7629   23.9080 C.ar    1  UNL1        0.0065
      4 C          -0.6480    3.8900   23.2655 C.ar    1  UNL1        0.0432
      5 C          -1.0222    3.0039   22.1145 C.ar    1  UNL1        0.1256
      6 N          -2.4334    2.9908   21.6061 N.ar    1  UNL1       -0.2222
      7 C           0.7632    3.9031   23.7739 C.ar    1  UNL1        0.0851
      8 C           1.9306    4.5787   23.1176 C.ar    1  UNL1        0.1020
      9 N           3.1436    4.3361   23.9659 N.ar    1  UNL1       -0.2264
     10 C           2.7259    3.5106   25.1466 C.ar    1  UNL1        0.1474
     11 C           3.4951    2.9680   26.3145 C.ar    1  UNL1        0.0332
     12 C           2.7931    2.1578   27.3637 C.ar    1  UNL1       -0.0174
     13 C           3.5622    1.6152   28.5315 C.3     1  UNL1        0.0312
     14 C           1.3219    1.8901   27.2450 C.ar    1  UNL1        0.0149
     15 C           0.5527    2.4327   26.0772 C.ar    1  UNL1        0.0811
     16 N           1.2547    3.2430   25.0279 N.ar    1  UNL1       -0.2888
     17 C           1.8918    5.3598   21.8375 C.ar    1  UNL1        0.0574
     18 C           2.5024    4.7890   20.5919 C.ar    1  UNL1        0.1033
     19 N           2.4636    5.5701   19.3118 N.ar    1  UNL1       -0.2291
     20 C           1.8143    6.9218   19.2774 C.ar    1  UNL1        0.1396
     21 C           1.7755    7.7029   17.9974 C.3     1  UNL1        0.0737
     22 N           1.2038    7.4925   20.5230 N.ar    1  UNL1       -0.2291
     23 C           1.2425    6.7115   21.8031 C.ar    1  UNL1        0.1033
     24 C          -5.2191    4.5316   20.4471 C.2     1  UNL1        0.2414
     25 O          -4.1456    5.2258   19.6624 O.2     1  UNL1       -0.2733
     26 N          -4.8814    3.8505   21.7402 N.am    1  UNL1       -0.2682
     27 H          -5.5859    3.3949   22.2552 H       1  UNL1        0.1563
     28 C          -6.6302    4.5184   19.9387 C.3     1  UNL1        0.1319
     29 C          -6.9504    3.8554   18.6317 C.3     1  UNL1        0.0270
     30 C          -7.4733    6.4835   21.4143 C.3     1  UNL1        0.0862
     31 N          -7.7212    5.1682   20.7371 N.3     1  UNL1       -0.2902
     32 H          -8.5076    5.3073   20.1025 H       1  UNL1        0.1237
     33 C           0.0147    2.1310   21.4719 C.1     1  UNL1       -0.0404
     34 C           1.0515    1.2580   20.8293 C.1     1  UNL1       -0.0583
     35 C           2.0884    0.3851   20.1867 C.ar    1  UNL1        0.0420
     36 C           2.0693   -1.0968   20.4183 C.ar    1  UNL1        0.0083
     37 C           3.1062   -1.9697   19.7757 C.ar    1  UNL1        0.0018
     38 C           4.1621   -1.3607   18.9015 C.ar    1  UNL1        0.0137
     39 C           5.1990   -2.2336   18.2589 C.ar    1  UNL1        0.0594
     40 C           5.1799   -3.7155   18.4905 C.3     1  UNL1        0.0521
     41 N           6.2548   -1.6247   17.3846 N.ar    1  UNL1       -0.2481
     42 C           6.2738   -0.1427   17.1530 C.ar    1  UNL1        0.0984
     43 C           5.2369    0.7302   17.7956 C.ar    1  UNL1        0.0207
     44 C           4.1811    0.1212   18.6698 C.ar    1  UNL1        0.0033
     45 C           3.1442    0.9940   19.3124 C.ar    1  UNL1        0.0083
@<TRIPOS>BOND
     1    30    31    1
     2    31    28    1
     3    28    29    1
     4    28    24    1
     5    24    25    2
     6    24    26   am
     7    26     1    1
     8     1     2   ar
     9     2     3   ar
    10     3     4   ar
    11     4     7    1
    12     7     8   ar
    13     8    17    1
    14    17    18   ar
    15    18    19   ar
    16    19    20   ar
    17    20    21    1
    18    20    22   ar
    19    22    23   ar
    20     8     9   ar
    21     9    10   ar
    22    10    11   ar
    23    11    12   ar
    24    12    13    1
    25    12    14   ar
    26    14    15   ar
    27    15    16   ar
    28     4     5   ar
    29     5    33    1
    30    33    34    3
    31    34    35    1
    32    35    36   ar
    33    36    37   ar
    34    37    38   ar
    35    38    39   ar
    36    39    40    1
    37    39    41   ar
    38    41    42   ar
    39    42    43   ar
    40    43    44   ar
    41    44    45   ar
    42     5     6   ar
    43     6     1   ar
    44    16     7   ar
    45    45    35   ar
    46    23    17   ar
    47    16    10   ar
    48    44    38   ar
    49    31    32    1
    50    26    27    1
