@<TRIPOS>MOLECULE
*****
 33 36 0 0 0
SMALL
GASTEIGER

@<TRIPOS>ATOM
      1 C          -5.3373  -19.9752   21.4395 C.3     1  UNL1        0.1602
      2 O          -4.6047  -19.6586   22.7096 O.3     1  UNL1       -0.3459
      3 C          -3.9550  -18.3183   22.8865 C.3     1  UNL1        0.1598
      4 F           0.7029  -16.7636   19.4388 F       1  UNL1       -0.2042
      5 C          -0.4616  -17.1523   20.3007 C.ar    1  UNL1        0.1401
      6 C          -1.1445  -16.1204   21.1485 C.ar    1  UNL1        0.0294
      7 C          -2.3090  -16.5091   22.0105 C.ar    1  UNL1        0.0007
      8 C          -2.7905  -17.9296   22.0246 C.ar    1  UNL1        0.0089
      9 C          -2.1075  -18.9614   21.1768 C.ar    1  UNL1        0.0007
     10 C          -0.9431  -18.5728   20.3148 C.ar    1  UNL1        0.0294
     11 C          -4.4697  -17.3667   23.9254 C.ar    1  UNL1        0.0089
     12 C          -5.4765  -16.3197   23.5505 C.ar    1  UNL1        0.0007
     13 C          -5.9913  -15.3681   24.5894 C.ar    1  UNL1        0.0294
     14 C          -5.4993  -15.4633   26.0032 C.ar    1  UNL1        0.1401
     15 F          -6.0142  -14.5116   27.0421 F       1  UNL1       -0.2042
     16 C          -4.4927  -16.5102   26.3782 C.ar    1  UNL1        0.0294
     17 C          -3.9778  -17.4619   25.3393 C.ar    1  UNL1        0.0007
     18 C          -6.5206  -19.1490   21.0304 C.3     1  UNL1        0.1046
     19 N          -7.6486  -18.9258   21.9937 N.3     1  UNL1       -0.2706
     20 C          -8.1609  -17.5376   22.2401 C.3     1  UNL1        0.0722
     21 C          -9.2888  -17.3144   23.2033 C.3     1  UNL1        0.0174
     22 C          -9.9045  -18.4794   23.9202 C.3     1  UNL1        0.0028
     23 C          -9.3922  -19.8675   23.6738 C.3     1  UNL1        0.0174
     24 C          -8.2642  -20.0907   22.7106 C.3     1  UNL1        0.0722
     25 C         -11.0324  -18.2563   24.8835 C.3     1  UNL1        0.0004
     26 C         -12.4200  -18.7037   24.5303 C.3     1  UNL1        0.0047
     27 C         -13.1791  -18.0045   23.4418 C.3     1  UNL1        0.0264
     28 C         -12.5155  -17.7225   22.1265 C.ar    1  UNL1       -0.0222
     29 C         -11.9231  -18.8465   21.3293 C.ar    1  UNL1       -0.0043
     30 C         -11.2594  -18.5646   20.0139 C.ar    1  UNL1       -0.0003
     31 C         -11.1882  -17.1587   19.4959 C.ar    1  UNL1       -0.0000
     32 C         -11.7807  -16.0347   20.2932 C.ar    1  UNL1       -0.0003
     33 C         -12.4443  -16.3166   21.6085 C.ar    1  UNL1       -0.0043
@<TRIPOS>BOND
     1     4     5    1
     2     5     6   ar
     3     6     7   ar
     4     7     8   ar
     5     8     3    1
     6     3     2    1
     7     2     1    1
     8     1    18    1
     9    18    19    1
    10    19    20    1
    11    20    21    1
    12    21    22    1
    13    22    25    1
    14    25    26    1
    15    26    27    1
    16    27    28    1
    17    28    29   ar
    18    29    30   ar
    19    30    31   ar
    20    31    32   ar
    21    32    33   ar
    22    22    23    1
    23    23    24    1
    24     3    11    1
    25    11    12   ar
    26    12    13   ar
    27    13    14   ar
    28    14    15    1
    29    14    16   ar
    30    16    17   ar
    31     8     9   ar
    32     9    10   ar
    33    10     5   ar
    34    24    19    1
    35    17    11   ar
    36    33    28   ar
@<TRIPOS>MOLECULE
*****
 33 36 0 0 0
SMALL
GASTEIGER

@<TRIPOS>ATOM
      1 C          -5.2721  -19.9936   21.4098 C.3     1  UNL1        0.1602
      2 O          -4.5581  -19.6717   22.6891 O.3     1  UNL1       -0.3459
      3 C          -3.9136  -18.3295   22.8710 C.3     1  UNL1        0.1598
      4 F          -5.9815  -14.5498   27.0468 F       1  UNL1       -0.2042
      5 C          -5.4645  -15.4947   26.0029 C.ar    1  UNL1        0.1401
      6 C          -5.9212  -15.3633   24.5802 C.ar    1  UNL1        0.0294
      7 C          -5.4042  -16.3083   23.5362 C.ar    1  UNL1        0.0007
      8 C          -4.4306  -17.3846   23.9150 C.ar    1  UNL1        0.0089
      9 C          -3.9739  -17.5160   25.3377 C.ar    1  UNL1        0.0007
     10 C          -4.4909  -16.5710   26.3816 C.ar    1  UNL1        0.0294
     11 C          -2.7522  -17.9323   22.0090 C.ar    1  UNL1        0.0089
     12 C          -2.0847  -18.9513   21.1336 C.ar    1  UNL1        0.0007
     13 C          -0.9232  -18.5540   20.2716 C.ar    1  UNL1        0.0294
     14 C          -0.4292  -17.1378   20.2848 C.ar    1  UNL1        0.1401
     15 F           0.7324  -16.7406   19.4227 F       1  UNL1       -0.2042
     16 C          -1.0966  -16.1188   21.1601 C.ar    1  UNL1        0.0294
     17 C          -2.2581  -16.5160   22.0222 C.ar    1  UNL1        0.0007
     18 C          -6.4663  -19.1869   20.9938 C.3     1  UNL1        0.1046
     19 N          -7.5851  -18.9483   21.9641 N.3     1  UNL1       -0.2706
     20 C          -8.0480  -17.5496   22.2460 C.3     1  UNL1        0.0722
     21 C          -9.1668  -17.3111   23.2162 C.3     1  UNL1        0.0174
     22 C          -9.8227  -18.4713   23.9046 C.3     1  UNL1        0.0028
     23 C          -9.3598  -19.8699   23.6227 C.3     1  UNL1        0.0174
     24 C          -8.2410  -20.1085   22.6525 C.3     1  UNL1        0.0722
     25 C         -10.9415  -18.2328   24.8749 C.3     1  UNL1        0.0004
     26 C         -12.3248  -18.7196   24.5590 C.3     1  UNL1        0.0047
     27 C         -13.1139  -18.0742   23.4586 C.3     1  UNL1        0.0264
     28 C         -12.4556  -17.7613   22.1477 C.ar    1  UNL1       -0.0222
     29 C         -12.3431  -16.3387   21.6857 C.ar    1  UNL1       -0.0043
     30 C         -11.6848  -16.0257   20.3746 C.ar    1  UNL1       -0.0003
     31 C         -11.1390  -17.1354   19.5257 C.ar    1  UNL1       -0.0000
     32 C         -11.2515  -18.5581   19.9877 C.ar    1  UNL1       -0.0003
     33 C         -11.9098  -18.8710   21.2987 C.ar    1  UNL1       -0.0043
@<TRIPOS>BOND
     1     4     5    1
     2     5     6   ar
     3     6     7   ar
     4     7     8   ar
     5     8     3    1
     6     3     2    1
     7     2     1    1
     8     1    18    1
     9    18    19    1
    10    19    20    1
    11    20    21    1
    12    21    22    1
    13    22    25    1
    14    25    26    1
    15    26    27    1
    16    27    28    1
    17    28    29   ar
    18    29    30   ar
    19    30    31   ar
    20    31    32   ar
    21    32    33   ar
    22    22    23    1
    23    23    24    1
    24     3    11    1
    25    11    12   ar
    26    12    13   ar
    27    13    14   ar
    28    14    15    1
    29    14    16   ar
    30    16    17   ar
    31     8     9   ar
    32     9    10   ar
    33    10     5   ar
    34    24    19    1
    35    17    11   ar
    36    33    28   ar
@<TRIPOS>MOLECULE
*****
 33 36 0 0 0
SMALL
GASTEIGER

@<TRIPOS>ATOM
      1 C          -5.7206  -19.2827   20.5741 C.3     1  UNL1        0.1602
      2 O          -5.2694  -19.2377   22.0039 O.3     1  UNL1       -0.3459
      3 C          -4.3834  -18.1233   22.4761 C.3     1  UNL1        0.1598
      4 F          -6.0663  -14.7139   27.1176 F       1  UNL1       -0.2042
      5 C          -5.6456  -15.5663   25.9572 C.ar    1  UNL1        0.1401
      6 C          -4.5148  -16.5394   26.1126 C.ar    1  UNL1        0.0294
      7 C          -4.0940  -17.3917   24.9522 C.ar    1  UNL1        0.0007
      8 C          -4.8041  -17.2710   23.6365 C.ar    1  UNL1        0.0089
      9 C          -5.9350  -16.2978   23.4812 C.ar    1  UNL1        0.0007
     10 C          -6.3557  -15.4455   24.6415 C.ar    1  UNL1        0.0294
     11 C          -3.0766  -17.8613   21.7879 C.ar    1  UNL1        0.0089
     12 C          -2.4650  -16.4925   21.8358 C.ar    1  UNL1        0.0007
     13 C          -1.1582  -16.2304   21.1476 C.ar    1  UNL1        0.0294
     14 C          -0.4630  -17.3372   20.4115 C.ar    1  UNL1        0.1401
     15 F           0.8438  -17.0751   19.7233 F       1  UNL1       -0.2042
     16 C          -1.0746  -18.7059   20.3636 C.ar    1  UNL1        0.0294
     17 C          -2.3815  -18.9680   21.0518 C.ar    1  UNL1        0.0007
     18 C          -7.0895  -19.7941   20.2353 C.3     1  UNL1        0.1046
     19 N          -8.2892  -18.9170   20.4384 N.3     1  UNL1       -0.2706
     20 C          -8.2656  -17.8450   21.4874 C.3     1  UNL1        0.0722
     21 C          -9.4653  -16.9679   21.6905 C.3     1  UNL1        0.0174
     22 C         -10.6888  -17.1629   20.8448 C.3     1  UNL1        0.0028
     23 C         -10.7124  -18.2349   19.7959 C.3     1  UNL1        0.0174
     24 C          -9.5126  -19.1120   19.5928 C.3     1  UNL1        0.0722
     25 C         -11.8886  -16.2858   21.0480 C.3     1  UNL1        0.0004
     26 C         -12.6058  -16.2894   22.3655 C.3     1  UNL1        0.0047
     27 C         -12.9376  -17.5899   23.0352 C.3     1  UNL1        0.0264
     28 C         -11.8367  -18.5023   23.4886 C.ar    1  UNL1       -0.0222
     29 C         -11.5171  -19.7398   22.7034 C.ar    1  UNL1       -0.0043
     30 C         -10.4162  -20.6523   23.1567 C.ar    1  UNL1       -0.0003
     31 C          -9.6350  -20.3273   24.3953 C.ar    1  UNL1       -0.0000
     32 C          -9.9547  -19.0898   25.1805 C.ar    1  UNL1       -0.0003
     33 C         -11.0555  -18.1773   24.7271 C.ar    1  UNL1       -0.0043
@<TRIPOS>BOND
     1     4     5    1
     2     5     6   ar
     3     6     7   ar
     4     7     8   ar
     5     8     3    1
     6     3     2    1
     7     2     1    1
     8     1    18    1
     9    18    19    1
    10    19    20    1
    11    20    21    1
    12    21    22    1
    13    22    25    1
    14    25    26    1
    15    26    27    1
    16    27    28    1
    17    28    29   ar
    18    29    30   ar
    19    30    31   ar
    20    31    32   ar
    21    32    33   ar
    22    22    23    1
    23    23    24    1
    24     3    11    1
    25    11    12   ar
    26    12    13   ar
    27    13    14   ar
    28    14    15    1
    29    14    16   ar
    30    16    17   ar
    31     8     9   ar
    32     9    10   ar
    33    10     5   ar
    34    24    19    1
    35    17    11   ar
    36    33    28   ar
@<TRIPOS>MOLECULE
*****
 33 36 0 0 0
SMALL
GASTEIGER

@<TRIPOS>ATOM
      1 C          -5.7362  -19.2747   20.5590 C.3     1  UNL1        0.1602
      2 O          -5.2802  -19.2405   21.9876 O.3     1  UNL1       -0.3459
      3 C          -4.3875  -18.1331   22.4636 C.3     1  UNL1        0.1598
      4 F           0.8421  -17.1013   19.7093 F       1  UNL1       -0.2042
      5 C          -0.4653  -17.3592   20.3979 C.ar    1  UNL1        0.1401
      6 C          -1.0739  -18.7297   20.3627 C.ar    1  UNL1        0.0294
      7 C          -2.3813  -18.9877   21.0513 C.ar    1  UNL1        0.0007
      8 C          -3.0801  -17.8752   21.7751 C.ar    1  UNL1        0.0089
      9 C          -2.4715  -16.5047   21.8102 C.ar    1  UNL1        0.0007
     10 C          -1.1641  -16.2467   21.1216 C.ar    1  UNL1        0.0294
     11 C          -4.8022  -17.2836   23.6283 C.ar    1  UNL1        0.0089
     12 C          -4.0778  -17.3994   24.9367 C.ar    1  UNL1        0.0007
     13 C          -4.4925  -16.5500   26.1013 C.ar    1  UNL1        0.0294
     14 C          -5.6316  -15.5847   25.9576 C.ar    1  UNL1        0.1401
     15 F          -6.0463  -14.7352   27.1223 F       1  UNL1       -0.2042
     16 C          -6.3560  -15.4689   24.6493 C.ar    1  UNL1        0.0294
     17 C          -5.9413  -16.3184   23.4846 C.ar    1  UNL1        0.0007
     18 C          -7.1107  -19.7723   20.2221 C.3     1  UNL1        0.1046
     19 N          -8.3027  -18.8883   20.4402 N.3     1  UNL1       -0.2706
     20 C          -9.5387  -19.0780   19.6117 C.3     1  UNL1        0.0722
     21 C         -10.7307  -18.1939   19.8298 C.3     1  UNL1        0.0174
     22 C         -10.6867  -17.1202   20.8764 C.3     1  UNL1        0.0028
     23 C          -9.4507  -16.9305   21.7048 C.3     1  UNL1        0.0174
     24 C          -8.2587  -17.8146   21.4867 C.3     1  UNL1        0.0722
     25 C         -11.8787  -16.2361   21.0944 C.3     1  UNL1        0.0004
     26 C         -12.6291  -16.2954   22.3920 C.3     1  UNL1        0.0047
     27 C         -12.9415  -17.6224   23.0177 C.3     1  UNL1        0.0264
     28 C         -11.8277  -18.5164   23.4759 C.ar    1  UNL1       -0.0222
     29 C         -11.5069  -19.7667   22.7119 C.ar    1  UNL1       -0.0043
     30 C         -10.3930  -20.6607   23.1702 C.ar    1  UNL1       -0.0003
     31 C          -9.5999  -20.3044   24.3925 C.ar    1  UNL1       -0.0000
     32 C          -9.9207  -19.0540   25.1565 C.ar    1  UNL1       -0.0003
     33 C         -11.0346  -18.1600   24.6982 C.ar    1  UNL1       -0.0043
@<TRIPOS>BOND
     1     4     5    1
     2     5     6   ar
     3     6     7   ar
     4     7     8   ar
     5     8     3    1
     6     3     2    1
     7     2     1    1
     8     1    18    1
     9    18    19    1
    10    19    20    1
    11    20    21    1
    12    21    22    1
    13    22    25    1
    14    25    26    1
    15    26    27    1
    16    27    28    1
    17    28    29   ar
    18    29    30   ar
    19    30    31   ar
    20    31    32   ar
    21    32    33   ar
    22    22    23    1
    23    23    24    1
    24     3    11    1
    25    11    12   ar
    26    12    13   ar
    27    13    14   ar
    28    14    15    1
    29    14    16   ar
    30    16    17   ar
    31     8     9   ar
    32     9    10   ar
    33    10     5   ar
    34    24    19    1
    35    17    11   ar
    36    33    28   ar
@<TRIPOS>MOLECULE
*****
 33 36 0 0 0
SMALL
GASTEIGER

@<TRIPOS>ATOM
      1 C          -5.1474  -17.2593   23.2096 C.3     1  UNL1        0.1602
      2 O          -5.7730  -18.4989   22.6421 O.3     1  UNL1       -0.3459
      3 C          -5.3189  -19.0275   21.3139 C.3     1  UNL1        0.1598
      4 F           0.3853  -18.3184   19.5939 F       1  UNL1       -0.2042
      5 C          -1.0407  -18.4957   20.0239 C.ar    1  UNL1        0.1401
      6 C          -1.3547  -18.8881   21.4372 C.ar    1  UNL1        0.0294
      7 C          -2.7808  -19.0654   21.8672 C.ar    1  UNL1        0.0007
      8 C          -3.8929  -18.8503   20.8839 C.ar    1  UNL1        0.0089
      9 C          -3.5789  -18.4578   19.4706 C.ar    1  UNL1        0.0007
     10 C          -2.1529  -18.2806   19.0406 C.ar    1  UNL1        0.0294
     11 C          -6.2909  -19.7335   20.4157 C.ar    1  UNL1        0.0089
     12 C          -6.0848  -21.1803   20.0773 C.ar    1  UNL1        0.0007
     13 C          -7.0568  -21.8862   19.1791 C.ar    1  UNL1        0.0294
     14 C          -8.2349  -21.1455   18.6192 C.ar    1  UNL1        0.1401
     15 F          -9.2069  -21.8515   17.7209 F       1  UNL1       -0.2042
     16 C          -8.4410  -19.6988   18.9575 C.ar    1  UNL1        0.0294
     17 C          -7.4690  -18.9927   19.8558 C.ar    1  UNL1        0.0007
     18 C          -6.0092  -16.2045   23.8382 C.3     1  UNL1        0.1046
     19 N          -7.4706  -16.1348   23.5073 N.3     1  UNL1       -0.2706
     20 C          -7.9113  -16.0174   22.0782 C.3     1  UNL1        0.0722
     21 C          -9.3727  -15.9477   21.7474 C.3     1  UNL1        0.0174
     22 C         -10.3934  -15.9952   22.8456 C.3     1  UNL1        0.0028
     23 C          -9.9527  -16.1126   24.2745 C.3     1  UNL1        0.0174
     24 C          -8.4913  -16.1823   24.6054 C.3     1  UNL1        0.0722
     25 C         -11.8548  -15.9255   22.5147 C.3     1  UNL1        0.0004
     26 C         -12.4368  -16.8531   21.4895 C.3     1  UNL1        0.0047
     27 C         -12.5572  -18.3184   21.7864 C.3     1  UNL1        0.0264
     28 C         -11.5228  -18.9998   22.6324 C.ar    1  UNL1       -0.0222
     29 C         -11.7228  -19.1143   24.1145 C.ar    1  UNL1       -0.0043
     30 C         -10.6884  -19.7957   24.9605 C.ar    1  UNL1       -0.0003
     31 C          -9.4539  -20.3625   24.3243 C.ar    1  UNL1       -0.0000
     32 C          -9.2539  -20.2480   22.8421 C.ar    1  UNL1       -0.0003
     33 C         -10.2883  -19.5666   21.9961 C.ar    1  UNL1       -0.0043
@<TRIPOS>BOND
     1     4     5    1
     2     5     6   ar
     3     6     7   ar
     4     7     8   ar
     5     8     3    1
     6     3     2    1
     7     2     1    1
     8     1    18    1
     9    18    19    1
    10    19    20    1
    11    20    21    1
    12    21    22    1
    13    22    25    1
    14    25    26    1
    15    26    27    1
    16    27    28    1
    17    28    29   ar
    18    29    30   ar
    19    30    31   ar
    20    31    32   ar
    21    32    33   ar
    22    22    23    1
    23    23    24    1
    24     3    11    1
    25    11    12   ar
    26    12    13   ar
    27    13    14   ar
    28    14    15    1
    29    14    16   ar
    30    16    17   ar
    31     8     9   ar
    32     9    10   ar
    33    10     5   ar
    34    24    19    1
    35    17    11   ar
    36    33    28   ar
@<TRIPOS>MOLECULE
*****
 33 36 0 0 0
SMALL
GASTEIGER

@<TRIPOS>ATOM
      1 C          -5.1776  -17.3249   23.1945 C.3     1  UNL1        0.1602
      2 O          -5.8360  -18.5338   22.5987 O.3     1  UNL1       -0.3459
      3 C          -5.3697  -19.0666   21.2763 C.3     1  UNL1        0.1598
      4 F          -9.2293  -21.8829   17.6470 F       1  UNL1       -0.2042
      5 C          -8.2644  -21.1789   18.5543 C.ar    1  UNL1        0.1401
      6 C          -7.0791  -21.9149   19.1050 C.ar    1  UNL1        0.0294
      7 C          -6.1142  -21.2108   20.0123 C.ar    1  UNL1        0.0007
      8 C          -6.3346  -19.7707   20.3690 C.ar    1  UNL1        0.0089
      9 C          -7.5199  -19.0346   19.8184 C.ar    1  UNL1        0.0007
     10 C          -8.4848  -19.7387   18.9110 C.ar    1  UNL1        0.0294
     11 C          -3.9385  -18.8952   20.8613 C.ar    1  UNL1        0.0089
     12 C          -2.8373  -19.1223   21.8542 C.ar    1  UNL1        0.0007
     13 C          -1.4061  -18.9509   21.4391 C.ar    1  UNL1        0.0294
     14 C          -1.0761  -18.5525   20.0312 C.ar    1  UNL1        0.1401
     15 F           0.3552  -18.3811   19.6161 F       1  UNL1       -0.2042
     16 C          -2.1772  -18.3254   19.0383 C.ar    1  UNL1        0.0294
     17 C          -3.6085  -18.4968   19.4533 C.ar    1  UNL1        0.0007
     18 C          -6.0131  -16.2481   23.8211 C.3     1  UNL1        0.1046
     19 N          -7.4756  -16.1524   23.5019 N.3     1  UNL1       -0.2706
     20 C          -8.4883  -16.1834   24.6081 C.3     1  UNL1        0.0722
     21 C          -9.9508  -16.0877   24.2889 C.3     1  UNL1        0.0174
     22 C         -10.4007  -15.9610   22.8635 C.3     1  UNL1        0.0028
     23 C          -9.3880  -15.9301   21.7574 C.3     1  UNL1        0.0174
     24 C          -7.9255  -16.0258   22.0766 C.3     1  UNL1        0.0722
     25 C         -11.8632  -15.8653   22.5443 C.3     1  UNL1        0.0004
     26 C         -12.5038  -16.8846   21.6494 C.3     1  UNL1        0.0047
     27 C         -12.6922  -18.2927   22.1309 C.3     1  UNL1        0.0264
     28 C         -11.5643  -19.0097   22.8117 C.ar    1  UNL1       -0.0222
     29 C         -11.5625  -19.1586   24.3043 C.ar    1  UNL1       -0.0043
     30 C         -10.4346  -19.8757   24.9852 C.ar    1  UNL1       -0.0003
     31 C          -9.3084  -20.4439   24.1735 C.ar    1  UNL1       -0.0000
     32 C          -9.3102  -20.2950   22.6808 C.ar    1  UNL1       -0.0003
     33 C         -10.4381  -19.5779   22.0000 C.ar    1  UNL1       -0.0043
@<TRIPOS>BOND
     1     4     5    1
     2     5     6   ar
     3     6     7   ar
     4     7     8   ar
     5     8     3    1
     6     3     2    1
     7     2     1    1
     8     1    18    1
     9    18    19    1
    10    19    20    1
    11    20    21    1
    12    21    22    1
    13    22    25    1
    14    25    26    1
    15    26    27    1
    16    27    28    1
    17    28    29   ar
    18    29    30   ar
    19    30    31   ar
    20    31    32   ar
    21    32    33   ar
    22    22    23    1
    23    23    24    1
    24     3    11    1
    25    11    12   ar
    26    12    13   ar
    27    13    14   ar
    28    14    15    1
    29    14    16   ar
    30    16    17   ar
    31     8     9   ar
    32     9    10   ar
    33    10     5   ar
    34    24    19    1
    35    17    11   ar
    36    33    28   ar
@<TRIPOS>MOLECULE
*****
 33 36 0 0 0
SMALL
GASTEIGER

@<TRIPOS>ATOM
      1 C          -5.2308  -17.1942   23.1486 C.3     1  UNL1        0.1602
      2 O          -5.7938  -18.4848   22.6316 O.3     1  UNL1       -0.3459
      3 C          -5.3352  -19.0273   21.3105 C.3     1  UNL1        0.1598
      4 F           0.3847  -18.3727   19.6209 F       1  UNL1       -0.2042
      5 C          -1.0453  -18.5364   20.0433 C.ar    1  UNL1        0.1401
      6 C          -1.3704  -18.9286   21.4541 C.ar    1  UNL1        0.0294
      7 C          -2.8004  -19.0922   21.8765 C.ar    1  UNL1        0.0007
      8 C          -3.9052  -18.8637   20.8881 C.ar    1  UNL1        0.0089
      9 C          -3.5801  -18.4714   19.4773 C.ar    1  UNL1        0.0007
     10 C          -2.1502  -18.3078   19.0549 C.ar    1  UNL1        0.0294
     11 C          -6.3066  -19.7334   20.4118 C.ar    1  UNL1        0.0089
     12 C          -7.4918  -18.9964   19.8620 C.ar    1  UNL1        0.0007
     13 C          -8.4633  -19.7025   18.9633 C.ar    1  UNL1        0.0294
     14 C          -8.2495  -21.1455   18.6143 C.ar    1  UNL1        0.1401
     15 F          -9.2210  -21.8516   17.7155 F       1  UNL1       -0.2042
     16 C          -7.0644  -21.8825   19.1640 C.ar    1  UNL1        0.0294
     17 C          -6.0929  -21.1765   20.0627 C.ar    1  UNL1        0.0007
     18 C          -6.1163  -16.2293   23.8801 C.3     1  UNL1        0.1046
     19 N          -7.5723  -16.1355   23.5317 N.3     1  UNL1       -0.2706
     20 C          -8.6059  -16.1483   24.6187 C.3     1  UNL1        0.0722
     21 C         -10.0619  -16.0545   24.2704 C.3     1  UNL1        0.0174
     22 C         -10.4842  -15.9479   22.8350 C.3     1  UNL1        0.0028
     23 C          -9.4507  -15.9351   21.7480 C.3     1  UNL1        0.0174
     24 C          -7.9947  -16.0289   22.0964 C.3     1  UNL1        0.0722
     25 C         -11.9402  -15.8541   22.4866 C.3     1  UNL1        0.0004
     26 C         -12.5920  -16.9439   21.6881 C.3     1  UNL1        0.0047
     27 C         -12.7716  -18.3075   22.2869 C.3     1  UNL1        0.0264
     28 C         -11.5976  -19.0245   22.8848 C.ar    1  UNL1       -0.0222
     29 C         -10.5189  -19.5686   21.9959 C.ar    1  UNL1       -0.0043
     30 C          -9.3449  -20.2857   22.5938 C.ar    1  UNL1       -0.0003
     31 C          -9.2496  -20.4586   24.0808 C.ar    1  UNL1       -0.0000
     32 C         -10.3283  -19.9144   24.9698 C.ar    1  UNL1       -0.0003
     33 C         -11.5023  -19.1974   24.3718 C.ar    1  UNL1       -0.0043
@<TRIPOS>BOND
     1     4     5    1
     2     5     6   ar
     3     6     7   ar
     4     7     8   ar
     5     8     3    1
     6     3     2    1
     7     2     1    1
     8     1    18    1
     9    18    19    1
    10    19    20    1
    11    20    21    1
    12    21    22    1
    13    22    25    1
    14    25    26    1
    15    26    27    1
    16    27    28    1
    17    28    29   ar
    18    29    30   ar
    19    30    31   ar
    20    31    32   ar
    21    32    33   ar
    22    22    23    1
    23    23    24    1
    24     3    11    1
    25    11    12   ar
    26    12    13   ar
    27    13    14   ar
    28    14    15    1
    29    14    16   ar
    30    16    17   ar
    31     8     9   ar
    32     9    10   ar
    33    10     5   ar
    34    24    19    1
    35    17    11   ar
    36    33    28   ar
@<TRIPOS>MOLECULE
*****
 33 36 0 0 0
SMALL
GASTEIGER

@<TRIPOS>ATOM
      1 C          -9.3805  -15.3682   22.4442 C.3     1  UNL1        0.1602
      2 O          -9.3991  -16.2667   21.2432 O.3     1  UNL1       -0.3459
      3 C         -10.0252  -17.6267   21.3337 C.3     1  UNL1        0.1598
      4 F         -14.0619  -18.7921   25.6170 F       1  UNL1       -0.2042
      5 C         -13.0527  -18.5008   24.5462 C.ar    1  UNL1        0.1401
      6 C         -11.6429  -18.9923   24.6905 C.ar    1  UNL1        0.0294
      7 C         -10.6338  -18.7009   23.6197 C.ar    1  UNL1        0.0007
      8 C         -11.0344  -17.9181   22.4045 C.ar    1  UNL1        0.0089
      9 C         -12.4442  -17.4266   22.2602 C.ar    1  UNL1        0.0007
     10 C         -13.4534  -17.7179   23.3311 C.ar    1  UNL1        0.0294
     11 C          -9.6422  -18.6954   20.3533 C.ar    1  UNL1        0.0089
     12 C          -8.2438  -19.2379   20.3435 C.ar    1  UNL1        0.0007
     13 C          -7.8608  -20.3066   19.3631 C.ar    1  UNL1        0.0294
     14 C          -8.8761  -20.8328   18.3925 C.ar    1  UNL1        0.1401
     15 F          -8.4931  -21.9015   17.4120 F       1  UNL1       -0.2042
     16 C         -10.2745  -20.2903   18.4022 C.ar    1  UNL1        0.0294
     17 C         -10.6576  -19.2215   19.3826 C.ar    1  UNL1        0.0007
     18 C          -8.6000  -15.7616   23.6633 C.3     1  UNL1        0.1046
     19 N          -7.1901  -16.2542   23.5244 N.3     1  UNL1       -0.2706
     20 C          -6.9217  -17.5978   22.9137 C.3     1  UNL1        0.0722
     21 C          -5.5117  -18.0904   22.7748 C.3     1  UNL1        0.0174
     22 C          -4.3701  -17.2394   23.2467 C.3     1  UNL1        0.0028
     23 C          -4.6385  -15.8959   23.8574 C.3     1  UNL1        0.0174
     24 C          -6.0484  -15.4033   23.9962 C.3     1  UNL1        0.0722
     25 C          -2.9601  -17.7320   23.1078 C.3     1  UNL1        0.0004
     26 C          -2.6839  -19.2046   23.0345 C.3     1  UNL1        0.0047
     27 C          -2.4194  -19.8529   21.7080 C.3     1  UNL1        0.0264
     28 C          -2.3042  -19.0115   20.4717 C.ar    1  UNL1       -0.0222
     29 C          -0.9640  -18.4969   20.0369 C.ar    1  UNL1       -0.0043
     30 C          -0.8487  -17.6554   18.8005 C.ar    1  UNL1       -0.0003
     31 C          -2.0737  -17.3285   17.9989 C.ar    1  UNL1       -0.0000
     32 C          -3.4140  -17.8432   18.4337 C.ar    1  UNL1       -0.0003
     33 C          -3.5292  -18.6846   19.6701 C.ar    1  UNL1       -0.0043
@<TRIPOS>BOND
     1     4     5    1
     2     5     6   ar
     3     6     7   ar
     4     7     8   ar
     5     8     3    1
     6     3     2    1
     7     2     1    1
     8     1    18    1
     9    18    19    1
    10    19    20    1
    11    20    21    1
    12    21    22    1
    13    22    25    1
    14    25    26    1
    15    26    27    1
    16    27    28    1
    17    28    29   ar
    18    29    30   ar
    19    30    31   ar
    20    31    32   ar
    21    32    33   ar
    22    22    23    1
    23    23    24    1
    24     3    11    1
    25    11    12   ar
    26    12    13   ar
    27    13    14   ar
    28    14    15    1
    29    14    16   ar
    30    16    17   ar
    31     8     9   ar
    32     9    10   ar
    33    10     5   ar
    34    24    19    1
    35    17    11   ar
    36    33    28   ar
@<TRIPOS>MOLECULE
*****
 33 36 0 0 0
SMALL
GASTEIGER

@<TRIPOS>ATOM
      1 C          -9.4137  -15.3638   22.3907 C.3     1  UNL1        0.1602
      2 O          -9.4191  -16.2795   21.2027 O.3     1  UNL1       -0.3459
      3 C         -10.0302  -17.6450   21.3110 C.3     1  UNL1        0.1598
      4 F          -8.4648  -21.9485   17.4342 F       1  UNL1       -0.2042
      5 C          -8.8561  -20.8726   18.4034 C.ar    1  UNL1        0.1401
      6 C          -7.8504  -20.3426   19.3819 C.ar    1  UNL1        0.0294
      7 C          -8.2417  -19.2667   20.3510 C.ar    1  UNL1        0.0007
      8 C          -9.6389  -18.7209   20.3418 C.ar    1  UNL1        0.0089
      9 C         -10.6446  -19.2510   19.3634 C.ar    1  UNL1        0.0007
     10 C         -10.2533  -20.3269   18.3942 C.ar    1  UNL1        0.0294
     11 C         -11.0327  -17.9347   22.3885 C.ar    1  UNL1        0.0089
     12 C         -10.6241  -18.7143   23.6032 C.ar    1  UNL1        0.0007
     13 C         -11.6266  -19.0039   24.6807 C.ar    1  UNL1        0.0294
     14 C         -13.0377  -18.5141   24.5436 C.ar    1  UNL1        0.1401
     15 F         -14.0402  -18.8038   25.6212 F       1  UNL1       -0.2042
     16 C         -13.4463  -17.7345   23.3290 C.ar    1  UNL1        0.0294
     17 C         -12.4438  -17.4448   22.2514 C.ar    1  UNL1        0.0007
     18 C          -8.6414  -15.7366   23.6215 C.3     1  UNL1        0.1046
     19 N          -7.2269  -16.2211   23.5012 N.3     1  UNL1       -0.2706
     20 C          -6.0954  -15.3568   23.9733 C.3     1  UNL1        0.0722
     21 C          -4.6809  -15.8413   23.8530 C.3     1  UNL1        0.0174
     22 C          -4.3979  -17.1901   23.2606 C.3     1  UNL1        0.0028
     23 C          -5.5294  -18.0542   22.7884 C.3     1  UNL1        0.0174
     24 C          -6.9439  -17.5697   22.9087 C.3     1  UNL1        0.0722
     25 C          -2.9834  -17.6746   23.1403 C.3     1  UNL1        0.0004
     26 C          -2.6974  -19.1457   23.0770 C.3     1  UNL1        0.0047
     27 C          -2.5339  -19.8215   21.7479 C.3     1  UNL1        0.0264
     28 C          -2.3577  -18.9998   20.5054 C.ar    1  UNL1       -0.0222
     29 C          -3.5465  -18.6597   19.6563 C.ar    1  UNL1       -0.0043
     30 C          -3.3703  -17.8380   18.4138 C.ar    1  UNL1       -0.0003
     31 C          -2.0052  -17.3565   18.0204 C.ar    1  UNL1       -0.0000
     32 C          -0.8164  -17.6967   18.8695 C.ar    1  UNL1       -0.0003
     33 C          -0.9926  -18.5183   20.1120 C.ar    1  UNL1       -0.0043
@<TRIPOS>BOND
     1     4     5    1
     2     5     6   ar
     3     6     7   ar
     4     7     8   ar
     5     8     3    1
     6     3     2    1
     7     2     1    1
     8     1    18    1
     9    18    19    1
    10    19    20    1
    11    20    21    1
    12    21    22    1
    13    22    25    1
    14    25    26    1
    15    26    27    1
    16    27    28    1
    17    28    29   ar
    18    29    30   ar
    19    30    31   ar
    20    31    32   ar
    21    32    33   ar
    22    22    23    1
    23    23    24    1
    24     3    11    1
    25    11    12   ar
    26    12    13   ar
    27    13    14   ar
    28    14    15    1
    29    14    16   ar
    30    16    17   ar
    31     8     9   ar
    32     9    10   ar
    33    10     5   ar
    34    24    19    1
    35    17    11   ar
    36    33    28   ar
