@<TRIPOS>MOLECULE
*****
 21 23 0 0 0
SMALL
GASTEIGER

@<TRIPOS>ATOM
      1 C         -12.0614  -17.9213   22.4488 C.3     1  UNL1        0.0788
      2 C         -11.6781  -18.7165   21.2361 C.3     1  UNL1        0.0451
      3 C         -10.2330  -18.8643   20.8621 C.ar    1  UNL1       -0.0072
      4 C          -9.8497  -19.6595   19.6494 C.ar    1  UNL1       -0.0030
      5 C          -8.4046  -19.8073   19.2755 C.ar    1  UNL1       -0.0002
      6 C          -7.3428  -19.1600   20.1143 C.ar    1  UNL1        0.0013
      7 C          -7.7261  -18.3648   21.3270 C.ar    1  UNL1        0.0145
      8 C          -9.1712  -18.2170   21.7009 C.ar    1  UNL1        0.0476
      9 N          -9.5546  -17.4218   22.9137 N.pl3   1  UNL1       -0.2857
     10 C         -10.9997  -17.2740   23.2876 C.3     1  UNL1        0.1115
     11 C          -8.4928  -16.7745   23.7525 C.ar    1  UNL1        0.0525
     12 C          -7.1741  -16.4058   23.1400 C.ar    1  UNL1        0.0157
     13 C          -6.1123  -15.7584   23.9788 C.ar    1  UNL1        0.0135
     14 C          -6.3693  -15.4798   25.4301 C.ar    1  UNL1        0.0683
     15 CL         -5.3075  -14.8324   26.2690 Cl      1  UNL1       -0.0814
     16 C          -7.6879  -15.8484   26.0426 C.ar    1  UNL1        0.0694
     17 CL         -7.9449  -15.5697   27.4940 Cl      1  UNL1       -0.0813
     18 C          -8.7497  -16.4958   25.2038 C.ar    1  UNL1        0.0271
     19 C         -13.9616  -18.1197   24.2095 C.3     1  UNL1        0.0859
     20 N         -13.5066  -17.7735   22.8228 N.3     1  UNL1       -0.2957
     21 H         -13.7523  -16.7958   22.6678 H       1  UNL1        0.1233
@<TRIPOS>BOND
     1    19    20    1
     2     1    20    1
     3     1     2    1
     4     2     3    1
     5     3     4   ar
     6     4     5   ar
     7     5     6   ar
     8     6     7   ar
     9     7     8   ar
    10     8     9    1
    11     9    11    1
    12    11    12   ar
    13    12    13   ar
    14    13    14   ar
    15    14    15    1
    16    14    16   ar
    17    16    17    1
    18    16    18   ar
    19     9    10    1
    20    10     1    1
    21     8     3   ar
    22    18    11   ar
    23    20    21    1
@<TRIPOS>MOLECULE
*****
 21 23 0 0 0
SMALL
GASTEIGER

@<TRIPOS>ATOM
      1 C          -5.6479  -16.1850   23.9659 C.3     1  UNL1        0.0788
      2 C          -4.6871  -17.1334   23.3123 C.3     1  UNL1        0.0451
      3 C          -5.2002  -18.2239   22.4193 C.ar    1  UNL1       -0.0072
      4 C          -4.2394  -19.1724   21.7657 C.ar    1  UNL1       -0.0030
      5 C          -4.7525  -20.2629   20.8727 C.ar    1  UNL1       -0.0002
      6 C          -6.2264  -20.4049   20.6332 C.ar    1  UNL1        0.0013
      7 C          -7.1872  -19.4564   21.2868 C.ar    1  UNL1        0.0145
      8 C          -6.6741  -18.3660   22.1798 C.ar    1  UNL1        0.0476
      9 N          -7.6350  -17.4174   22.8335 N.pl3   1  UNL1       -0.2857
     10 C          -7.1218  -16.3270   23.7265 C.3     1  UNL1        0.1115
     11 C          -9.1089  -17.5595   22.5940 C.ar    1  UNL1        0.0525
     12 C          -9.9161  -18.5097   23.4281 C.ar    1  UNL1        0.0157
     13 C         -11.3900  -18.6517   23.1887 C.ar    1  UNL1        0.0135
     14 C         -12.0568  -17.8435   22.1152 C.ar    1  UNL1        0.0683
     15 CL        -13.5307  -17.9855   21.8758 Cl      1  UNL1       -0.0814
     16 C         -11.2496  -16.8933   21.2812 C.ar    1  UNL1        0.0694
     17 CL        -11.9164  -16.0851   20.2077 Cl      1  UNL1       -0.0813
     18 C          -9.7757  -16.7513   21.5206 C.ar    1  UNL1        0.0271
     19 C          -5.5921  -15.0157   26.2854 C.3     1  UNL1        0.0859
     20 N          -5.1348  -15.0944   24.8590 N.3     1  UNL1       -0.2957
     21 H          -4.1190  -15.1846   24.8800 H       1  UNL1        0.1233
@<TRIPOS>BOND
     1    19    20    1
     2     1    20    1
     3     1     2    1
     4     2     3    1
     5     3     4   ar
     6     4     5   ar
     7     5     6   ar
     8     6     7   ar
     9     7     8   ar
    10     8     9    1
    11     9    11    1
    12    11    12   ar
    13    12    13   ar
    14    13    14   ar
    15    14    15    1
    16    14    16   ar
    17    16    17    1
    18    16    18   ar
    19     9    10    1
    20    10     1    1
    21     8     3   ar
    22    18    11   ar
    23    20    21    1
@<TRIPOS>MOLECULE
*****
 21 23 0 0 0
SMALL
GASTEIGER

@<TRIPOS>ATOM
      1 C         -10.7411  -17.4463   20.6326 C.3     1  UNL1        0.0788
      2 C          -9.9927  -18.5244   19.9064 C.3     1  UNL1        0.0451
      3 C          -8.6647  -18.9938   20.4225 C.ar    1  UNL1       -0.0072
      4 C          -7.9164  -20.0720   19.6963 C.ar    1  UNL1       -0.0030
      5 C          -6.5885  -20.5413   20.2124 C.ar    1  UNL1       -0.0002
      6 C          -6.0090  -19.9324   21.4548 C.ar    1  UNL1        0.0013
      7 C          -6.7574  -18.8543   22.1810 C.ar    1  UNL1        0.0145
      8 C          -8.0852  -18.3849   21.6649 C.ar    1  UNL1        0.0476
      9 N          -8.8337  -17.3067   22.3911 N.pl3   1  UNL1       -0.2857
     10 C         -10.1616  -16.8374   21.8750 C.3     1  UNL1        0.1115
     11 C          -8.2542  -16.6979   23.6335 C.ar    1  UNL1        0.0525
     12 C          -7.1123  -15.7305   23.5323 C.ar    1  UNL1        0.0157
     13 C          -6.5328  -15.1216   24.7747 C.ar    1  UNL1        0.0135
     14 C          -7.0953  -15.4802   26.1182 C.ar    1  UNL1        0.0683
     15 CL         -6.5158  -14.8713   27.3606 Cl      1  UNL1       -0.0814
     16 C          -8.2371  -16.4476   26.2194 C.ar    1  UNL1        0.0694
     17 CL         -8.7996  -16.8062   27.5630 Cl      1  UNL1       -0.0813
     18 C          -8.8166  -17.0564   24.9770 C.ar    1  UNL1        0.0271
     19 C         -12.1521  -15.7339   19.2809 C.3     1  UNL1        0.0859
     20 N         -12.0690  -16.9769   20.1164 N.3     1  UNL1       -0.2957
     21 H         -12.4511  -17.7365   19.5530 H       1  UNL1        0.1233
@<TRIPOS>BOND
     1    19    20    1
     2     1    20    1
     3     1     2    1
     4     2     3    1
     5     3     4   ar
     6     4     5   ar
     7     5     6   ar
     8     6     7   ar
     9     7     8   ar
    10     8     9    1
    11     9    11    1
    12    11    12   ar
    13    12    13   ar
    14    13    14   ar
    15    14    15    1
    16    14    16   ar
    17    16    17    1
    18    16    18   ar
    19     9    10    1
    20    10     1    1
    21     8     3   ar
    22    18    11   ar
    23    20    21    1
@<TRIPOS>MOLECULE
*****
 21 23 0 0 0
SMALL
GASTEIGER

@<TRIPOS>ATOM
      1 C          -8.0999  -19.2720   20.6755 C.3     1  UNL1        0.0788
      2 C          -9.4420  -18.9535   20.0861 C.3     1  UNL1        0.0451
      3 C         -10.3454  -17.9683   20.7668 C.ar    1  UNL1       -0.0072
      4 C         -11.6874  -17.6497   20.1773 C.ar    1  UNL1       -0.0030
      5 C         -12.5908  -16.6646   20.8581 C.ar    1  UNL1       -0.0002
      6 C         -12.1521  -15.9980   22.1282 C.ar    1  UNL1        0.0013
      7 C         -10.8101  -16.3165   22.7176 C.ar    1  UNL1        0.0145
      8 C          -9.9068  -17.3017   22.0369 C.ar    1  UNL1        0.0476
      9 N          -8.5646  -17.6202   22.6263 N.pl3   1  UNL1       -0.2857
     10 C          -7.6613  -18.6054   21.9456 C.3     1  UNL1        0.1115
     11 C          -8.1260  -16.9536   23.8964 C.ar    1  UNL1        0.0525
     12 C          -8.9866  -17.0354   25.1223 C.ar    1  UNL1        0.0157
     13 C          -8.5480  -16.3688   26.3924 C.ar    1  UNL1        0.0135
     14 C          -7.2487  -15.6204   26.4367 C.ar    1  UNL1        0.0683
     15 CL         -6.8100  -14.9538   27.7068 Cl      1  UNL1       -0.0814
     16 C          -6.3881  -15.5387   25.2108 C.ar    1  UNL1        0.0694
     17 CL         -5.0888  -14.7904   25.2551 Cl      1  UNL1       -0.0813
     18 C          -6.8268  -16.2053   23.9407 C.ar    1  UNL1        0.0271
     19 C          -5.8222  -20.5143   20.5381 C.3     1  UNL1        0.0859
     20 N          -7.1965  -20.2572   19.9948 N.3     1  UNL1       -0.2957
     21 H          -7.6849  -21.1526   19.9936 H       1  UNL1        0.1233
@<TRIPOS>BOND
     1    19    20    1
     2     1    20    1
     3     1     2    1
     4     2     3    1
     5     3     4   ar
     6     4     5   ar
     7     5     6   ar
     8     6     7   ar
     9     7     8   ar
    10     8     9    1
    11     9    11    1
    12    11    12   ar
    13    12    13   ar
    14    13    14   ar
    15    14    15    1
    16    14    16   ar
    17    16    17    1
    18    16    18   ar
    19     9    10    1
    20    10     1    1
    21     8     3   ar
    22    18    11   ar
    23    20    21    1
@<TRIPOS>MOLECULE
*****
 21 23 0 0 0
SMALL
GASTEIGER

@<TRIPOS>ATOM
      1 C          -7.7812  -15.8926   24.6039 C.3     1  UNL1        0.0788
      2 C          -9.2303  -16.2786   24.6376 C.3     1  UNL1        0.0451
      3 C          -9.7279  -17.4004   23.7749 C.ar    1  UNL1       -0.0072
      4 C         -11.1769  -17.7864   23.8086 C.ar    1  UNL1       -0.0030
      5 C         -11.6745  -18.9080   22.9459 C.ar    1  UNL1       -0.0002
      6 C         -10.7230  -19.6437   22.0495 C.ar    1  UNL1        0.0013
      7 C          -9.2740  -19.2576   22.0158 C.ar    1  UNL1        0.0145
      8 C          -8.7764  -18.1360   22.8785 C.ar    1  UNL1        0.0476
      9 N          -7.3273  -17.7499   22.8448 N.pl3   1  UNL1       -0.2857
     10 C          -6.8297  -16.6283   23.7075 C.3     1  UNL1        0.1115
     11 C          -6.3758  -18.4855   21.9484 C.ar    1  UNL1        0.0525
     12 C          -6.8420  -18.9954   20.6169 C.ar    1  UNL1        0.0157
     13 C          -5.8905  -19.7310   19.7205 C.ar    1  UNL1        0.0135
     14 C          -4.4728  -19.9568   20.1557 C.ar    1  UNL1        0.0683
     15 CL         -3.5213  -20.6925   19.2593 Cl      1  UNL1       -0.0814
     16 C          -4.0067  -19.4470   21.4871 C.ar    1  UNL1        0.0694
     17 CL         -2.5890  -19.6728   21.9222 Cl      1  UNL1       -0.0813
     18 C          -4.9582  -18.7114   22.3835 C.ar    1  UNL1        0.0271
     19 C          -6.2035  -15.0237   26.4763 C.3     1  UNL1        0.0859
     20 N          -7.2836  -14.7709   25.4666 N.3     1  UNL1       -0.2957
     21 H          -6.9350  -14.0478   24.8373 H       1  UNL1        0.1233
@<TRIPOS>BOND
     1    19    20    1
     2     1    20    1
     3     1     2    1
     4     2     3    1
     5     3     4   ar
     6     4     5   ar
     7     5     6   ar
     8     6     7   ar
     9     7     8   ar
    10     8     9    1
    11     9    11    1
    12    11    12   ar
    13    12    13   ar
    14    13    14   ar
    15    14    15    1
    16    14    16   ar
    17    16    17    1
    18    16    18   ar
    19     9    10    1
    20    10     1    1
    21     8     3   ar
    22    18    11   ar
    23    20    21    1
@<TRIPOS>MOLECULE
*****
 21 23 0 0 0
SMALL
GASTEIGER

@<TRIPOS>ATOM
      1 C          -8.9662  -16.2786   23.7747 C.3     1  UNL1        0.0788
      2 C         -10.1028  -16.7215   22.9019 C.3     1  UNL1        0.0451
      3 C          -9.8565  -17.6913   21.7843 C.ar    1  UNL1       -0.0072
      4 C         -10.9932  -18.1342   20.9115 C.ar    1  UNL1       -0.0030
      5 C         -10.7468  -19.1040   19.7940 C.ar    1  UNL1       -0.0002
      6 C          -9.3639  -19.6308   19.5493 C.ar    1  UNL1        0.0013
      7 C          -8.2273  -19.1879   20.4221 C.ar    1  UNL1        0.0145
      8 C          -8.4736  -18.2182   21.5396 C.ar    1  UNL1        0.0476
      9 N          -7.3369  -17.7752   22.4125 N.pl3   1  UNL1       -0.2857
     10 C          -7.5832  -16.8054   23.5300 C.3     1  UNL1        0.1115
     11 C          -5.9540  -18.3020   22.1678 C.ar    1  UNL1        0.0525
     12 C          -4.8053  -17.8068   22.9958 C.ar    1  UNL1        0.0157
     13 C          -3.4224  -18.3336   22.7511 C.ar    1  UNL1        0.0135
     14 C          -3.1881  -19.3557   21.6784 C.ar    1  UNL1        0.0683
     15 CL         -1.8051  -19.8825   21.4338 Cl      1  UNL1       -0.0814
     16 C          -4.3366  -19.8509   20.8506 C.ar    1  UNL1        0.0694
     17 CL         -4.1023  -20.8730   19.7779 Cl      1  UNL1       -0.0813
     18 C          -5.7196  -19.3241   21.0952 C.ar    1  UNL1        0.0271
     19 C          -8.4357  -15.4241   26.1702 C.3     1  UNL1        0.0859
     20 N          -9.2125  -15.3088   24.8922 N.3     1  UNL1       -0.2957
     21 H          -9.0293  -14.3772   24.5194 H       1  UNL1        0.1233
@<TRIPOS>BOND
     1    19    20    1
     2     1    20    1
     3     1     2    1
     4     2     3    1
     5     3     4   ar
     6     4     5   ar
     7     5     6   ar
     8     6     7   ar
     9     7     8   ar
    10     8     9    1
    11     9    11    1
    12    11    12   ar
    13    12    13   ar
    14    13    14   ar
    15    14    15    1
    16    14    16   ar
    17    16    17    1
    18    16    18   ar
    19     9    10    1
    20    10     1    1
    21     8     3   ar
    22    18    11   ar
    23    20    21    1
@<TRIPOS>MOLECULE
*****
 21 23 0 0 0
SMALL
GASTEIGER

@<TRIPOS>ATOM
      1 C          -9.0353  -16.2798   23.8177 C.3     1  UNL1        0.0788
      2 C         -10.2419  -16.6922   23.0279 C.3     1  UNL1        0.0451
      3 C         -10.1030  -17.6782   21.9060 C.ar    1  UNL1       -0.0072
      4 C         -11.3097  -18.0906   21.1162 C.ar    1  UNL1       -0.0030
      5 C         -11.1707  -19.0765   19.9944 C.ar    1  UNL1       -0.0002
      6 C          -9.8250  -19.6501   19.6623 C.ar    1  UNL1        0.0013
      7 C          -8.6183  -19.2377   20.4521 C.ar    1  UNL1        0.0145
      8 C          -8.7573  -18.2517   21.5740 C.ar    1  UNL1        0.0476
      9 N          -7.5506  -17.8393   22.3638 N.pl3   1  UNL1       -0.2857
     10 C          -7.6896  -16.8533   23.4857 C.3     1  UNL1        0.1115
     11 C          -6.2050  -18.4128   22.0318 C.ar    1  UNL1        0.0525
     12 C          -6.0875  -19.5113   21.0170 C.ar    1  UNL1        0.0157
     13 C          -4.7418  -20.0848   20.6850 C.ar    1  UNL1        0.0135
     14 C          -3.5136  -19.5599   21.3678 C.ar    1  UNL1        0.0683
     15 CL         -2.1680  -20.1335   21.0357 Cl      1  UNL1       -0.0814
     16 C          -3.6311  -18.4615   22.3825 C.ar    1  UNL1        0.0694
     17 CL         -2.4029  -17.9367   23.0653 Cl      1  UNL1       -0.0813
     18 C          -4.9768  -17.8880   22.7145 C.ar    1  UNL1        0.0271
     19 C          -8.3768  -15.4717   26.1975 C.3     1  UNL1        0.0859
     20 N          -9.1742  -15.2938   24.9396 N.3     1  UNL1       -0.2957
     21 H          -8.9264  -14.3798   24.5607 H       1  UNL1        0.1233
@<TRIPOS>BOND
     1    19    20    1
     2     1    20    1
     3     1     2    1
     4     2     3    1
     5     3     4   ar
     6     4     5   ar
     7     5     6   ar
     8     6     7   ar
     9     7     8   ar
    10     8     9    1
    11     9    11    1
    12    11    12   ar
    13    12    13   ar
    14    13    14   ar
    15    14    15    1
    16    14    16   ar
    17    16    17    1
    18    16    18   ar
    19     9    10    1
    20    10     1    1
    21     8     3   ar
    22    18    11   ar
    23    20    21    1
@<TRIPOS>MOLECULE
*****
 21 23 0 0 0
SMALL
GASTEIGER

@<TRIPOS>ATOM
      1 C         -12.0211   -7.3345   18.4342 C.3     1  UNL1        0.0788
      2 C         -11.9471   -5.9378   18.9760 C.3     1  UNL1        0.0451
      3 C         -13.1987   -5.2349   19.4115 C.ar    1  UNL1       -0.0072
      4 C         -13.1247   -3.8382   19.9533 C.ar    1  UNL1       -0.0030
      5 C         -14.3763   -3.1354   20.3888 C.ar    1  UNL1       -0.0002
      6 C         -15.7018   -3.8294   20.2825 C.ar    1  UNL1        0.0013
      7 C         -15.7758   -5.2262   19.7406 C.ar    1  UNL1        0.0145
      8 C         -14.5242   -5.9289   19.3052 C.ar    1  UNL1        0.0476
      9 N         -14.5982   -7.3257   18.7633 N.pl3   1  UNL1       -0.2857
     10 C         -13.3466   -8.0285   18.3278 C.3     1  UNL1        0.1115
     11 C         -15.9237   -8.0197   18.6570 C.ar    1  UNL1        0.0525
     12 C         -16.4645   -8.7872   19.8269 C.ar    1  UNL1        0.0157
     13 C         -17.7900   -9.4812   19.7206 C.ar    1  UNL1        0.0135
     14 C         -18.5748   -9.4077   18.4443 C.ar    1  UNL1        0.0683
     15 CL        -19.9004  -10.1017   18.3380 Cl      1  UNL1       -0.0814
     16 C         -18.0341   -8.6402   17.2745 C.ar    1  UNL1        0.0694
     17 CL        -18.8189   -8.5666   15.9983 Cl      1  UNL1       -0.0813
     18 C         -16.7086   -7.9462   17.3808 C.ar    1  UNL1        0.0271
     19 C          -9.4491   -7.6609   18.6025 C.3     1  UNL1        0.0859
     20 N         -10.7695   -8.0374   17.9987 N.3     1  UNL1       -0.2957
     21 H         -10.9078   -9.0299   18.1887 H       1  UNL1        0.1233
@<TRIPOS>BOND
     1    19    20    1
     2     1    20    1
     3     1     2    1
     4     2     3    1
     5     3     4   ar
     6     4     5   ar
     7     5     6   ar
     8     6     7   ar
     9     7     8   ar
    10     8     9    1
    11     9    11    1
    12    11    12   ar
    13    12    13   ar
    14    13    14   ar
    15    14    15    1
    16    14    16   ar
    17    16    17    1
    18    16    18   ar
    19     9    10    1
    20    10     1    1
    21     8     3   ar
    22    18    11   ar
    23    20    21    1
@<TRIPOS>MOLECULE
*****
 21 23 0 0 0
SMALL
GASTEIGER

@<TRIPOS>ATOM
      1 C         -13.5907   -3.0649   18.9817 C.3     1  UNL1        0.0788
      2 C         -12.0947   -3.1615   19.0336 C.3     1  UNL1        0.0451
      3 C         -11.4275   -4.5040   18.9814 C.ar    1  UNL1       -0.0072
      4 C          -9.9316   -4.6006   19.0333 C.ar    1  UNL1       -0.0030
      5 C          -9.2645   -5.9430   18.9811 C.ar    1  UNL1       -0.0002
      6 C         -10.0933   -7.1889   18.8770 C.ar    1  UNL1        0.0013
      7 C         -11.5893   -7.0923   18.8251 C.ar    1  UNL1        0.0145
      8 C         -12.2564   -5.7498   18.8773 C.ar    1  UNL1        0.0476
      9 N         -13.7524   -5.6532   18.8254 N.pl3   1  UNL1       -0.2857
     10 C         -14.4195   -4.3107   18.8776 C.3     1  UNL1        0.1115
     11 C         -14.5813   -6.8990   18.7213 C.ar    1  UNL1        0.0525
     12 C         -14.1889   -7.9828   17.7613 C.ar    1  UNL1        0.0157
     13 C         -15.0178   -9.2287   17.6572 C.ar    1  UNL1        0.0135
     14 C         -16.2390   -9.3907   18.5131 C.ar    1  UNL1        0.0683
     15 CL        -17.0679  -10.6366   18.4090 Cl      1  UNL1       -0.0814
     16 C         -16.6313   -8.3070   19.4730 C.ar    1  UNL1        0.0694
     17 CL        -17.8525   -8.4690   20.3288 Cl      1  UNL1       -0.0813
     18 C         -15.8025   -7.0611   19.5771 C.ar    1  UNL1        0.0271
     19 C         -15.5639   -1.5614   19.7538 C.3     1  UNL1        0.0859
     20 N         -14.2579   -1.7224   19.0339 N.3     1  UNL1       -0.2957
     21 H         -13.5975   -1.0824   19.4752 H       1  UNL1        0.1233
@<TRIPOS>BOND
     1    19    20    1
     2     1    20    1
     3     1     2    1
     4     2     3    1
     5     3     4   ar
     6     4     5   ar
     7     5     6   ar
     8     6     7   ar
     9     7     8   ar
    10     8     9    1
    11     9    11    1
    12    11    12   ar
    13    12    13   ar
    14    13    14   ar
    15    14    15    1
    16    14    16   ar
    17    16    17    1
    18    16    18   ar
    19     9    10    1
    20    10     1    1
    21     8     3   ar
    22    18    11   ar
    23    20    21    1
