@<TRIPOS>MOLECULE
*****
 37 40 0 0 0
SMALL
GASTEIGER

@<TRIPOS>ATOM
      1 O          -9.2913  -19.4288   22.7553 O.3     1  UNL1       -0.4741
      2 C          -7.9830  -19.4129   22.0219 C.ar    1  UNL1        0.1513
      3 C          -6.6965  -19.3017   22.7852 C.ar    1  UNL1        0.0688
      4 C          -5.3882  -19.2858   22.0517 C.ar    1  UNL1        0.1620
      5 F          -4.1017  -19.1746   22.8150 F       1  UNL1       -0.2026
      6 C          -5.3663  -19.3810   20.5549 C.ar    1  UNL1        0.1535
      7 C          -6.6528  -19.4922   19.7915 C.ar    1  UNL1        0.0369
      8 C          -7.9611  -19.5081   20.5250 C.ar    1  UNL1        0.0930
      9 CL         -9.2475  -19.6193   19.7617 Cl      1  UNL1       -0.0790
     10 S          -4.0580  -19.3651   19.8214 S.O2    1  UNL1        0.0769
     11 O          -4.3920  -18.0170   19.2549 O.2     1  UNL1       -0.1498
     12 O          -3.7240  -20.7132   20.3879 O.2     1  UNL1       -0.1498
     13 N          -2.7496  -19.3491   19.0879 N.pl3   1  UNL1       -0.1984
     14 H          -2.6258  -19.9121   18.2898 H       1  UNL1        0.1753
     15 C          -1.6299  -18.4754   19.5704 C.ar    1  UNL1        0.1542
     16 C          -1.7727  -17.1008   20.1536 C.ar    1  UNL1        0.0725
     17 S          -0.4019  -16.5986   20.4981 S.2     1  UNL1       -0.0625
     18 C           0.5882  -17.6629   20.1279 C.ar    1  UNL1        0.1360
     19 N          -0.1707  -18.8228   19.5545 N.ar    1  UNL1       -0.2203
     20 C          -9.9567  -18.1378   23.1303 C.3     1  UNL1        0.2110
     21 C         -11.1557  -17.1160   21.0643 C.3     1  UNL1        0.0620
     22 C         -11.2883  -16.0185   20.0505 C.3     1  UNL1        0.0208
     23 C         -10.3546  -14.8451   20.0890 C.3     1  UNL1        0.0271
     24 C          -9.2883  -14.7693   21.1412 C.2     1  UNL1       -0.0302
     25 C          -9.1556  -15.8669   22.1549 C.2     1  UNL1       -0.0218
     26 C         -10.0893  -17.0402   22.1165 C.3     1  UNL1        0.0801
     27 C          -8.0893  -15.7911   23.2072 C.ar    1  UNL1       -0.0040
     28 C          -6.6445  -15.9043   22.8203 C.ar    1  UNL1        0.0020
     29 C          -5.5781  -15.8285   23.8726 C.ar    1  UNL1        0.0296
     30 C          -5.9566  -15.6396   25.3117 C.ar    1  UNL1        0.1401
     31 F          -4.8904  -15.5638   26.3640 F       1  UNL1       -0.2042
     32 C          -7.4015  -15.5264   25.6985 C.ar    1  UNL1        0.0296
     33 C          -8.4678  -15.6022   24.6463 C.ar    1  UNL1        0.0020
     34 N         -12.0894  -18.2894   21.0259 N.3     1  UNL1       -0.2982
     35 H         -12.3320  -18.4406   20.0468 H       1  UNL1        0.1232
     36 C         -13.3833  -17.8351   23.2325 C.3     1  UNL1        0.0185
     37 C         -13.3793  -18.2467   21.7901 C.3     1  UNL1        0.0686
@<TRIPOS>BOND
     1    36    37    1
     2    37    34    1
     3    21    34    1
     4    21    22    1
     5    22    23    1
     6    23    24    1
     7    24    25    2
     8    25    27    1
     9    27    28   ar
    10    28    29   ar
    11    29    30   ar
    12    30    31    1
    13    30    32   ar
    14    32    33   ar
    15    25    26    1
    16    26    20    1
    17    20     1    1
    18     1     2    1
    19     2     3   ar
    20     3     4   ar
    21     4     5    1
    22     4     6   ar
    23     6    10    1
    24    10    11    2
    25    10    12    2
    26    10    13    1
    27    13    15    1
    28    15    16   ar
    29    16    17   ar
    30    17    18   ar
    31    18    19   ar
    32     6     7   ar
    33     7     8   ar
    34     8     9    1
    35    26    21    1
    36     8     2   ar
    37    33    27   ar
    38    19    15   ar
    39    34    35    1
    40    13    14    1
@<TRIPOS>MOLECULE
*****
 37 40 0 0 0
SMALL
GASTEIGER

@<TRIPOS>ATOM
      1 O           5.9698   -0.0746   21.1846 O.3     1  UNL1       -0.4741
      2 C           4.8998    0.3785   22.1331 C.ar    1  UNL1        0.1513
      3 C           4.5689   -0.4477   23.3405 C.ar    1  UNL1        0.0688
      4 C           3.4988    0.0054   24.2890 C.ar    1  UNL1        0.1620
      5 F           3.1679   -0.8208   25.4965 F       1  UNL1       -0.2026
      6 C           2.7596    1.2846   24.0301 C.ar    1  UNL1        0.1535
      7 C           3.0905    2.1108   22.8227 C.ar    1  UNL1        0.0369
      8 C           4.1605    1.6578   21.8742 C.ar    1  UNL1        0.0930
      9 CL          4.4914    2.4840   20.6667 Cl      1  UNL1       -0.0790
     10 S           1.6896    1.7376   24.9786 S.O2    1  UNL1        0.0769
     11 O           2.6880    2.5990   25.6935 O.2     1  UNL1       -0.1498
     12 O           0.6912    0.8762   24.2637 O.2     1  UNL1       -0.1498
     13 N           0.6195    2.1907   25.9272 N.pl3   1  UNL1       -0.1984
     14 H           0.1391    3.0338   25.7610 H       1  UNL1        0.1753
     15 C           0.2814    1.3592   27.1290 C.ar    1  UNL1        0.1542
     16 C          -1.0640    1.2645   27.7854 C.ar    1  UNL1        0.0725
     17 S          -0.9476    0.3231   28.9475 S.2     1  UNL1       -0.0625
     18 C           0.4698   -0.1640   29.0092 C.ar    1  UNL1        0.1360
     19 N           1.2294    0.4763   27.8853 N.ar    1  UNL1       -0.2203
     20 C           5.6044   -0.5237   19.8008 C.3     1  UNL1        0.2110
     21 C           6.0513   -3.0678   19.5218 C.3     1  UNL1        0.0620
     22 C           5.5394   -4.4595   19.2957 C.3     1  UNL1        0.0208
     23 C           4.0688   -4.6988   19.1224 C.3     1  UNL1        0.0271
     24 C           3.1101   -3.5464   19.1753 C.2     1  UNL1       -0.0302
     25 C           3.6220   -2.1547   19.4014 C.2     1  UNL1       -0.0218
     26 C           5.0926   -1.9154   19.5747 C.3     1  UNL1        0.0801
     27 C           2.6632   -1.0023   19.4543 C.ar    1  UNL1       -0.0040
     28 C           1.7107   -0.8713   20.6056 C.ar    1  UNL1        0.0020
     29 C           0.7520    0.2811   20.6585 C.ar    1  UNL1        0.0296
     30 C           0.7458    1.3026   19.5600 C.ar    1  UNL1        0.1401
     31 F          -0.2129    2.4550   19.6129 F       1  UNL1       -0.2042
     32 C           1.6984    1.1716   18.4087 C.ar    1  UNL1        0.0296
     33 C           2.6571    0.0192   18.3559 C.ar    1  UNL1        0.0020
     34 N           7.5219   -2.8285   19.6950 N.3     1  UNL1       -0.2982
     35 H           7.9990   -3.4260   19.0199 H       1  UNL1        0.1232
     36 C           7.3283   -3.1776   22.2622 C.3     1  UNL1        0.0185
     37 C           8.1703   -3.0746   21.0251 C.3     1  UNL1        0.0686
@<TRIPOS>BOND
     1    36    37    1
     2    37    34    1
     3    21    34    1
     4    21    22    1
     5    22    23    1
     6    23    24    1
     7    24    25    2
     8    25    27    1
     9    27    28   ar
    10    28    29   ar
    11    29    30   ar
    12    30    31    1
    13    30    32   ar
    14    32    33   ar
    15    25    26    1
    16    26    20    1
    17    20     1    1
    18     1     2    1
    19     2     3   ar
    20     3     4   ar
    21     4     5    1
    22     4     6   ar
    23     6    10    1
    24    10    11    2
    25    10    12    2
    26    10    13    1
    27    13    15    1
    28    15    16   ar
    29    16    17   ar
    30    17    18   ar
    31    18    19   ar
    32     6     7   ar
    33     7     8   ar
    34     8     9    1
    35    26    21    1
    36     8     2   ar
    37    33    27   ar
    38    19    15   ar
    39    34    35    1
    40    13    14    1
@<TRIPOS>MOLECULE
*****
 37 40 0 0 0
SMALL
GASTEIGER

@<TRIPOS>ATOM
      1 O           2.4600   -1.4034   19.6041 O.3     1  UNL1       -0.4741
      2 C           2.2078   -0.6679   20.8868 C.ar    1  UNL1        0.1513
      3 C           1.1429    0.3866   20.9499 C.ar    1  UNL1        0.0688
      4 C           0.8907    1.1221   22.2327 C.ar    1  UNL1        0.1620
      5 F          -0.1742    2.1766   22.2958 F       1  UNL1       -0.2026
      6 C           1.7034    0.8030   23.4524 C.ar    1  UNL1        0.1535
      7 C           2.7683   -0.2515   23.3893 C.ar    1  UNL1        0.0369
      8 C           3.0206   -0.9869   22.1066 C.ar    1  UNL1        0.0930
      9 CL          4.0855   -2.0414   22.0436 Cl      1  UNL1       -0.0790
     10 S           1.4512    1.5385   24.7351 S.O2    1  UNL1        0.0769
     11 O           0.1463    0.8158   24.8929 O.2     1  UNL1       -0.1498
     12 O           2.7560    2.2612   24.5773 O.2     1  UNL1       -0.1498
     13 N           1.1989    2.2740   26.0179 N.pl3   1  UNL1       -0.1984
     14 H           1.2064    3.2584   26.0306 H       1  UNL1        0.1753
     15 C           0.9353    1.5096   27.2813 C.ar    1  UNL1        0.1542
     16 C           1.8220    0.4558   27.8756 C.ar    1  UNL1        0.0725
     17 S           1.1734   -0.0403   29.1338 S.2     1  UNL1       -0.0625
     18 C          -0.1143    0.7068   29.3172 C.ar    1  UNL1        0.1360
     19 N          -0.2615    1.6647   28.1723 N.ar    1  UNL1       -0.2203
     20 C           3.2618   -0.7565   18.5138 C.3     1  UNL1        0.2110
     21 C           5.5643   -1.9341   18.2656 C.3     1  UNL1        0.0620
     22 C           7.0609   -1.8934   18.3584 C.3     1  UNL1        0.0208
     23 C           7.7515   -0.6346   18.7922 C.3     1  UNL1        0.0271
     24 C           6.9456    0.5837   19.1333 C.2     1  UNL1       -0.0302
     25 C           5.4490    0.5430   19.0405 C.2     1  UNL1       -0.0218
     26 C           4.7584   -0.7159   18.6066 C.3     1  UNL1        0.0801
     27 C           4.6430    1.7613   19.3815 C.ar    1  UNL1       -0.0040
     28 C           4.0309    2.5859   18.2882 C.ar    1  UNL1        0.0020
     29 C           3.2249    3.8041   18.6292 C.ar    1  UNL1        0.0296
     30 C           3.0311    4.1978   20.0636 C.ar    1  UNL1        0.1401
     31 F           2.2251    5.4160   20.4047 F       1  UNL1       -0.2042
     32 C           3.6432    3.3732   21.1570 C.ar    1  UNL1        0.0296
     33 C           4.4492    2.1550   20.8159 C.ar    1  UNL1        0.0020
     34 N           4.8737   -3.1930   17.8317 N.3     1  UNL1       -0.2982
     35 H           3.9133   -2.9377   17.6018 H       1  UNL1        0.1232
     36 C           3.4921   -4.7356   19.4006 C.3     1  UNL1        0.0185
     37 C           4.7987   -4.3664   18.7630 C.3     1  UNL1        0.0686
@<TRIPOS>BOND
     1    36    37    1
     2    37    34    1
     3    21    34    1
     4    21    22    1
     5    22    23    1
     6    23    24    1
     7    24    25    2
     8    25    27    1
     9    27    28   ar
    10    28    29   ar
    11    29    30   ar
    12    30    31    1
    13    30    32   ar
    14    32    33   ar
    15    25    26    1
    16    26    20    1
    17    20     1    1
    18     1     2    1
    19     2     3   ar
    20     3     4   ar
    21     4     5    1
    22     4     6   ar
    23     6    10    1
    24    10    11    2
    25    10    12    2
    26    10    13    1
    27    13    15    1
    28    15    16   ar
    29    16    17   ar
    30    17    18   ar
    31    18    19   ar
    32     6     7   ar
    33     7     8   ar
    34     8     9    1
    35    26    21    1
    36     8     2   ar
    37    33    27   ar
    38    19    15   ar
    39    34    35    1
    40    13    14    1
@<TRIPOS>MOLECULE
*****
 37 40 0 0 0
SMALL
GASTEIGER

@<TRIPOS>ATOM
      1 O           6.2573   -0.6369   21.8392 O.3     1  UNL1       -0.4741
      2 C           5.5330   -0.3836   23.1280 C.ar    1  UNL1        0.1513
      3 C           4.0408   -0.2312   23.1323 C.ar    1  UNL1        0.0688
      4 C           3.3164    0.0221   24.4212 C.ar    1  UNL1        0.1620
      5 F           1.8242    0.1746   24.4255 F       1  UNL1       -0.2026
      6 C           4.0843    0.1229   25.7058 C.ar    1  UNL1        0.1535
      7 C           5.5765   -0.0296   25.7015 C.ar    1  UNL1        0.0369
      8 C           6.3009   -0.2829   24.4127 C.ar    1  UNL1        0.0930
      9 CL          7.7931   -0.4353   24.4084 Cl      1  UNL1       -0.0790
     10 S           3.3600    0.3761   26.9946 S.O2    1  UNL1        0.0769
     11 O           3.2021   -1.1018   27.1963 O.2     1  UNL1       -0.1498
     12 O           3.5178    1.8541   26.7929 O.2     1  UNL1       -0.1498
     13 N           2.6356    0.6293   28.2836 N.pl3   1  UNL1       -0.1984
     14 H           3.1440    0.7618   29.1161 H       1  UNL1        0.1753
     15 C           1.1366    0.6806   28.3039 C.ar    1  UNL1        0.1542
     16 C           0.2321   -0.2599   29.0436 C.ar    1  UNL1        0.0725
     17 S          -1.1846    0.1597   28.7849 S.2     1  UNL1       -0.0625
     18 C          -1.1557    1.3595   27.8852 C.ar    1  UNL1        0.1360
     19 N           0.2789    1.6816   27.5879 N.ar    1  UNL1       -0.2203
     20 C           5.4885   -0.7474   20.5559 C.3     1  UNL1        0.2110
     21 C           5.9575   -3.2666   20.1275 C.3     1  UNL1        0.0620
     22 C           5.4978   -4.6093   19.6419 C.3     1  UNL1        0.0208
     23 C           4.1094   -4.7754   19.0989 C.3     1  UNL1        0.0271
     24 C           3.1807   -3.5989   19.0416 C.2     1  UNL1       -0.0302
     25 C           3.6404   -2.2562   19.5273 C.2     1  UNL1       -0.0218
     26 C           5.0288   -2.0901   20.0703 C.3     1  UNL1        0.0801
     27 C           2.7117   -1.0796   19.4700 C.ar    1  UNL1       -0.0040
     28 C           2.8549   -0.0637   18.3758 C.ar    1  UNL1        0.0020
     29 C           1.9262    1.1129   18.3186 C.ar    1  UNL1        0.0296
     30 C           0.8544    1.2735   19.3556 C.ar    1  UNL1        0.1401
     31 F          -0.0743    2.4500   19.2984 F       1  UNL1       -0.2042
     32 C           0.7113    0.2575   20.4498 C.ar    1  UNL1        0.0296
     33 C           1.6399   -0.9190   20.5071 C.ar    1  UNL1        0.0020
     34 N           7.3459   -3.1005   20.6705 N.3     1  UNL1       -0.2982
     35 H           7.9880   -3.3554   19.9200 H       1  UNL1        0.1232
     36 C           6.9027   -3.8853   23.1072 C.3     1  UNL1        0.0185
     37 C           7.7730   -3.8692   21.8856 C.3     1  UNL1        0.0686
@<TRIPOS>BOND
     1    36    37    1
     2    37    34    1
     3    21    34    1
     4    21    22    1
     5    22    23    1
     6    23    24    1
     7    24    25    2
     8    25    27    1
     9    27    28   ar
    10    28    29   ar
    11    29    30   ar
    12    30    31    1
    13    30    32   ar
    14    32    33   ar
    15    25    26    1
    16    26    20    1
    17    20     1    1
    18     1     2    1
    19     2     3   ar
    20     3     4   ar
    21     4     5    1
    22     4     6   ar
    23     6    10    1
    24    10    11    2
    25    10    12    2
    26    10    13    1
    27    13    15    1
    28    15    16   ar
    29    16    17   ar
    30    17    18   ar
    31    18    19   ar
    32     6     7   ar
    33     7     8   ar
    34     8     9    1
    35    26    21    1
    36     8     2   ar
    37    33    27   ar
    38    19    15   ar
    39    34    35    1
    40    13    14    1
@<TRIPOS>MOLECULE
*****
 37 40 0 0 0
SMALL
GASTEIGER

@<TRIPOS>ATOM
      1 O           4.6829   -1.7802   23.5111 O.3     1  UNL1       -0.4741
      2 C           3.6527   -0.9284   22.8306 C.ar    1  UNL1        0.1513
      3 C           3.5163   -0.9656   21.3373 C.ar    1  UNL1        0.0688
      4 C           2.4861   -0.1137   20.6568 C.ar    1  UNL1        0.1620
      5 F           2.3497   -0.1510   19.1635 F       1  UNL1       -0.2026
      6 C           1.5924    0.7753   21.4696 C.ar    1  UNL1        0.1535
      7 C           1.7288    0.8126   22.9629 C.ar    1  UNL1        0.0369
      8 C           2.7589   -0.0392   23.6434 C.ar    1  UNL1        0.0930
      9 CL          2.8953   -0.0020   25.1368 Cl      1  UNL1       -0.0790
     10 S           0.5622    1.6271   20.7891 S.O2    1  UNL1        0.0769
     11 O          -0.3620    0.4482   20.7124 O.2     1  UNL1       -0.1498
     12 O           1.4864    2.8061   20.8657 O.2     1  UNL1       -0.1498
     13 N          -0.4680    2.4790   20.1085 N.pl3   1  UNL1       -0.1984
     14 H          -0.3791    2.6880   19.1506 H       1  UNL1        0.1753
     15 C          -1.6337    3.0122   20.8875 C.ar    1  UNL1        0.1542
     16 C          -3.0160    3.2485   20.3551 C.ar    1  UNL1        0.0725
     17 S          -3.8584    3.7851   21.4743 S.2     1  UNL1       -0.0625
     18 C          -2.9967    3.8805   22.6984 C.ar    1  UNL1        0.1360
     19 N          -1.6217    3.4028   22.3358 N.ar    1  UNL1       -0.2203
     20 C           4.8117   -3.2311   23.1532 C.3     1  UNL1        0.2110
     21 C           6.8483   -4.4446   24.2161 C.3     1  UNL1        0.0620
     22 C           8.2068   -5.0655   24.0794 C.3     1  UNL1        0.0208
     23 C           8.8874   -5.0941   22.7430 C.3     1  UNL1        0.0271
     24 C           8.2094   -4.5016   21.5433 C.2     1  UNL1       -0.0302
     25 C           6.8508   -3.8807   21.6800 C.2     1  UNL1       -0.0218
     26 C           6.1703   -3.8521   23.0165 C.3     1  UNL1        0.0801
     27 C           6.1728   -3.2882   20.4803 C.ar    1  UNL1       -0.0040
     28 C           5.0290   -4.0105   19.8323 C.ar    1  UNL1        0.0020
     29 C           4.3509   -3.4180   18.6326 C.ar    1  UNL1        0.0296
     30 C           4.8167   -2.1032   18.0809 C.ar    1  UNL1        0.1401
     31 F           4.1387   -1.5107   16.8813 F       1  UNL1       -0.2042
     32 C           5.9606   -1.3809   18.7290 C.ar    1  UNL1        0.0296
     33 C           6.6386   -1.9734   19.9286 C.ar    1  UNL1        0.0020
     34 N           6.1678   -4.4160   25.5526 N.3     1  UNL1       -0.2982
     35 H           5.5963   -3.5714   25.5740 H       1  UNL1        0.1232
     36 C           6.7059   -5.4276   27.8843 C.3     1  UNL1        0.0185
     37 C           6.9848   -4.4181   26.8105 C.3     1  UNL1        0.0686
@<TRIPOS>BOND
     1    36    37    1
     2    37    34    1
     3    21    34    1
     4    21    22    1
     5    22    23    1
     6    23    24    1
     7    24    25    2
     8    25    27    1
     9    27    28   ar
    10    28    29   ar
    11    29    30   ar
    12    30    31    1
    13    30    32   ar
    14    32    33   ar
    15    25    26    1
    16    26    20    1
    17    20     1    1
    18     1     2    1
    19     2     3   ar
    20     3     4   ar
    21     4     5    1
    22     4     6   ar
    23     6    10    1
    24    10    11    2
    25    10    12    2
    26    10    13    1
    27    13    15    1
    28    15    16   ar
    29    16    17   ar
    30    17    18   ar
    31    18    19   ar
    32     6     7   ar
    33     7     8   ar
    34     8     9    1
    35    26    21    1
    36     8     2   ar
    37    33    27   ar
    38    19    15   ar
    39    34    35    1
    40    13    14    1
@<TRIPOS>MOLECULE
*****
 37 40 0 0 0
SMALL
GASTEIGER

@<TRIPOS>ATOM
      1 O           3.4507    0.5531   33.5409 O.3     1  UNL1       -0.4741
      2 C           2.8386    0.5901   32.1720 C.ar    1  UNL1        0.1513
      3 C           3.2925   -0.3792   31.1211 C.ar    1  UNL1        0.0688
      4 C           2.6804   -0.3422   29.7521 C.ar    1  UNL1        0.1620
      5 F           3.1344   -1.3114   28.7011 F       1  UNL1       -0.2026
      6 C           1.6144    0.6640   29.4342 C.ar    1  UNL1        0.1535
      7 C           1.1604    1.6332   30.4851 C.ar    1  UNL1        0.0369
      8 C           1.7725    1.5963   31.8540 C.ar    1  UNL1        0.0930
      9 CL          1.3185    2.5655   32.9050 Cl      1  UNL1       -0.0790
     10 S           1.0023    0.7009   28.0652 S.O2    1  UNL1        0.0769
     11 O           2.0480    1.6817   27.6242 O.2     1  UNL1       -0.1498
     12 O          -0.0434   -0.2798   28.5063 O.2     1  UNL1       -0.1498
     13 N           0.3902    0.7379   26.6962 N.pl3   1  UNL1       -0.1984
     14 H           0.6079    0.0365   26.0406 H       1  UNL1        0.1753
     15 C          -0.5535    1.8436   26.3263 C.ar    1  UNL1        0.1542
     16 C          -0.7063    2.4536   24.9645 C.ar    1  UNL1        0.0725
     17 S          -1.7573    3.5205   25.0497 S.2     1  UNL1       -0.0625
     18 C          -2.2541    3.5698   26.4642 C.ar    1  UNL1        0.1360
     19 N          -1.5101    2.5334   27.2532 N.ar    1  UNL1       -0.2203
     20 C           4.2073   -0.6611   33.9917 C.3     1  UNL1        0.2110
     21 C           5.6456   -0.2350   36.1130 C.3     1  UNL1        0.0620
     22 C           6.9891   -0.0831   36.7625 C.3     1  UNL1        0.0208
     23 C           8.2378   -0.2055   35.9404 C.3     1  UNL1        0.0271
     24 C           8.1430   -0.4797   34.4688 C.2     1  UNL1       -0.0302
     25 C           6.7995   -0.6316   33.8192 C.2     1  UNL1       -0.0218
     26 C           5.5508   -0.5092   34.6413 C.3     1  UNL1        0.0801
     27 C           6.7047   -0.9058   32.3475 C.ar    1  UNL1       -0.0040
     28 C           6.4594   -2.3027   31.8592 C.ar    1  UNL1        0.0020
     29 C           6.3645   -2.5770   30.3875 C.ar    1  UNL1        0.0296
     30 C           6.5150   -1.4543   29.4042 C.ar    1  UNL1        0.1401
     31 F           6.4202   -1.7284   27.9325 F       1  UNL1       -0.2042
     32 C           6.7603   -0.0573   29.8926 C.ar    1  UNL1        0.0296
     33 C           6.8551    0.2169   31.3642 C.ar    1  UNL1        0.0020
     34 N           4.3969   -0.1126   36.9350 N.3     1  UNL1       -0.2982
     35 H           3.6301   -0.4605   36.3594 H       1  UNL1        0.1232
     36 C           2.9626    2.0413   36.7047 C.3     1  UNL1        0.0185
     37 C           3.9720    1.2272   37.4586 C.3     1  UNL1        0.0686
@<TRIPOS>BOND
     1    36    37    1
     2    37    34    1
     3    21    34    1
     4    21    22    1
     5    22    23    1
     6    23    24    1
     7    24    25    2
     8    25    27    1
     9    27    28   ar
    10    28    29   ar
    11    29    30   ar
    12    30    31    1
    13    30    32   ar
    14    32    33   ar
    15    25    26    1
    16    26    20    1
    17    20     1    1
    18     1     2    1
    19     2     3   ar
    20     3     4   ar
    21     4     5    1
    22     4     6   ar
    23     6    10    1
    24    10    11    2
    25    10    12    2
    26    10    13    1
    27    13    15    1
    28    15    16   ar
    29    16    17   ar
    30    17    18   ar
    31    18    19   ar
    32     6     7   ar
    33     7     8   ar
    34     8     9    1
    35    26    21    1
    36     8     2   ar
    37    33    27   ar
    38    19    15   ar
    39    34    35    1
    40    13    14    1
@<TRIPOS>MOLECULE
*****
 37 40 0 0 0
SMALL
GASTEIGER

@<TRIPOS>ATOM
      1 O           3.7812   -0.8881   23.8667 O.3     1  UNL1       -0.4741
      2 C           4.7617   -1.8567   24.4587 C.ar    1  UNL1        0.1513
      3 C           5.3465   -2.9456   23.6088 C.ar    1  UNL1        0.0688
      4 C           6.3271   -3.9142   24.2009 C.ar    1  UNL1        0.1620
      5 F           6.9119   -5.0030   23.3510 F       1  UNL1       -0.2026
      6 C           6.7227   -3.7938   25.6427 C.ar    1  UNL1        0.1535
      7 C           6.1378   -2.7050   26.4926 C.ar    1  UNL1        0.0369
      8 C           5.1573   -1.7364   25.9006 C.ar    1  UNL1        0.0930
      9 CL          4.5724   -0.6475   26.7505 Cl      1  UNL1       -0.0790
     10 S           7.7031   -4.7624   26.2347 S.O2    1  UNL1        0.0769
     11 O           8.8171   -3.7911   25.9788 O.2     1  UNL1       -0.1498
     12 O           6.5891   -5.7337   26.4906 O.2     1  UNL1       -0.1498
     13 N           8.6837   -5.7310   26.8268 N.pl3   1  UNL1       -0.1984
     14 H           9.2483   -6.2818   26.2377 H       1  UNL1        0.1753
     15 C           8.8040   -5.8603   28.3163 C.ar    1  UNL1        0.1542
     16 C           8.4830   -4.7952   29.3226 C.ar    1  UNL1        0.0725
     17 S           8.7470   -5.3540   30.6893 S.2     1  UNL1       -0.0625
     18 C           9.2311   -6.7645   30.5278 C.ar    1  UNL1        0.1360
     19 N           9.2663   -7.0775   29.0612 N.ar    1  UNL1       -0.2203
     20 C           3.1889   -1.1528   22.5142 C.3     1  UNL1        0.2110
     21 C           2.9023    1.3215   21.7754 C.3     1  UNL1        0.0620
     22 C           2.9668    2.3746   20.7093 C.3     1  UNL1        0.0208
     23 C           3.3823    2.0066   19.3157 C.3     1  UNL1        0.0271
     24 C           3.7333    0.5855   18.9883 C.2     1  UNL1       -0.0302
     25 C           3.6688   -0.4676   20.0545 C.2     1  UNL1       -0.0218
     26 C           3.2533   -0.0996   21.4480 C.3     1  UNL1        0.0801
     27 C           4.0198   -1.8888   19.7271 C.ar    1  UNL1       -0.0040
     28 C           2.9431   -2.8552   19.3313 C.ar    1  UNL1        0.0020
     29 C           3.2941   -4.2764   19.0040 C.ar    1  UNL1        0.0296
     30 C           4.7218   -4.7311   19.0724 C.ar    1  UNL1        0.1401
     31 F           5.0729   -6.1522   18.7451 F       1  UNL1       -0.2042
     32 C           5.7986   -3.7646   19.4682 C.ar    1  UNL1        0.0296
     33 C           5.4476   -2.3435   19.7956 C.ar    1  UNL1        0.0020
     34 N           2.4869    1.6894   23.1690 N.3     1  UNL1       -0.2982
     35 H           2.8877    0.9873   23.7908 H       1  UNL1        0.1232
     36 C           0.5068    1.1390   24.7584 C.3     1  UNL1        0.0185
     37 C           1.0310    1.7936   23.5148 C.3     1  UNL1        0.0686
@<TRIPOS>BOND
     1    36    37    1
     2    37    34    1
     3    21    34    1
     4    21    22    1
     5    22    23    1
     6    23    24    1
     7    24    25    2
     8    25    27    1
     9    27    28   ar
    10    28    29   ar
    11    29    30   ar
    12    30    31    1
    13    30    32   ar
    14    32    33   ar
    15    25    26    1
    16    26    20    1
    17    20     1    1
    18     1     2    1
    19     2     3   ar
    20     3     4   ar
    21     4     5    1
    22     4     6   ar
    23     6    10    1
    24    10    11    2
    25    10    12    2
    26    10    13    1
    27    13    15    1
    28    15    16   ar
    29    16    17   ar
    30    17    18   ar
    31    18    19   ar
    32     6     7   ar
    33     7     8   ar
    34     8     9    1
    35    26    21    1
    36     8     2   ar
    37    33    27   ar
    38    19    15   ar
    39    34    35    1
    40    13    14    1
@<TRIPOS>MOLECULE
*****
 37 40 0 0 0
SMALL
GASTEIGER

@<TRIPOS>ATOM
      1 O           3.5816   -1.4414   22.0259 O.3     1  UNL1       -0.4741
      2 C           2.7422   -0.4569   22.7850 C.ar    1  UNL1        0.1513
      3 C           1.6937    0.3430   22.0702 C.ar    1  UNL1        0.0688
      4 C           0.8543    1.3275   22.8294 C.ar    1  UNL1        0.1620
      5 F          -0.1942    2.1274   22.1146 F       1  UNL1       -0.2026
      6 C           1.0634    1.5121   24.3032 C.ar    1  UNL1        0.1535
      7 C           2.1119    0.7122   25.0179 C.ar    1  UNL1        0.0369
      8 C           2.9513   -0.2723   24.2589 C.ar    1  UNL1        0.0930
      9 CL          3.9998   -1.0721   24.9736 Cl      1  UNL1       -0.0790
     10 S           0.2240    2.4966   25.0622 S.O2    1  UNL1        0.0769
     11 O           1.0222    3.6255   24.4806 O.2     1  UNL1       -0.1498
     12 O          -0.5741    1.3676   25.6439 O.2     1  UNL1       -0.1498
     13 N          -0.6153    3.4811   25.8213 N.pl3   1  UNL1       -0.1984
     14 H          -0.2097    4.0298   26.5311 H       1  UNL1        0.1753
     15 C          -2.0727    3.6298   25.4990 C.ar    1  UNL1        0.1542
     16 C          -3.1775    3.8454   26.4904 C.ar    1  UNL1        0.0725
     17 S          -4.4688    3.9378   25.7328 S.2     1  UNL1       -0.0625
     18 C          -4.1622    3.7792   24.2731 C.ar    1  UNL1        0.1360
     19 N          -2.6813    3.5888   24.1285 N.ar    1  UNL1       -0.2203
     20 C           3.3382   -1.6633   20.5625 C.3     1  UNL1        0.2110
     21 C           5.5660   -2.4315   19.4687 C.3     1  UNL1        0.0620
     22 C           6.6734   -2.2082   18.4819 C.3     1  UNL1        0.0208
     23 C           6.6604   -0.9933   17.6022 C.3     1  UNL1        0.0271
     24 C           5.5400   -0.0018   17.7092 C.2     1  UNL1       -0.0302
     25 C           4.4326   -0.2251   18.6960 C.2     1  UNL1       -0.0218
     26 C           4.4457   -1.4400   19.5757 C.3     1  UNL1        0.0801
     27 C           3.3122    0.7665   18.8031 C.ar    1  UNL1       -0.0040
     28 C           1.9528    0.4224   18.2706 C.ar    1  UNL1        0.0020
     29 C           0.8323    1.4140   18.3777 C.ar    1  UNL1        0.0296
     30 C           1.0713    2.7496   19.0173 C.ar    1  UNL1        0.1401
     31 F          -0.0491    3.7411   19.1244 F       1  UNL1       -0.2042
     32 C           2.4308    3.0936   19.5499 C.ar    1  UNL1        0.0296
     33 C           3.5512    2.1020   19.4428 C.ar    1  UNL1        0.0020
     34 N           5.5791   -3.6464   20.3484 N.3     1  UNL1       -0.2982
     35 H           4.6325   -3.7568   20.7120 H       1  UNL1        0.1232
     36 C           5.9480   -3.8335   22.9133 C.3     1  UNL1        0.0185
     37 C           6.5056   -3.7096   21.5263 C.3     1  UNL1        0.0686
@<TRIPOS>BOND
     1    36    37    1
     2    37    34    1
     3    21    34    1
     4    21    22    1
     5    22    23    1
     6    23    24    1
     7    24    25    2
     8    25    27    1
     9    27    28   ar
    10    28    29   ar
    11    29    30   ar
    12    30    31    1
    13    30    32   ar
    14    32    33   ar
    15    25    26    1
    16    26    20    1
    17    20     1    1
    18     1     2    1
    19     2     3   ar
    20     3     4   ar
    21     4     5    1
    22     4     6   ar
    23     6    10    1
    24    10    11    2
    25    10    12    2
    26    10    13    1
    27    13    15    1
    28    15    16   ar
    29    16    17   ar
    30    17    18   ar
    31    18    19   ar
    32     6     7   ar
    33     7     8   ar
    34     8     9    1
    35    26    21    1
    36     8     2   ar
    37    33    27   ar
    38    19    15   ar
    39    34    35    1
    40    13    14    1
@<TRIPOS>MOLECULE
*****
 37 40 0 0 0
SMALL
GASTEIGER

@<TRIPOS>ATOM
      1 O          -8.4409  -19.1857   23.5197 O.3     1  UNL1       -0.4741
      2 C          -7.2014  -19.2142   22.6755 C.ar    1  UNL1        0.1513
      3 C          -6.9301  -20.3872   21.7808 C.ar    1  UNL1        0.0688
      4 C          -5.6905  -20.4156   20.9366 C.ar    1  UNL1        0.1620
      5 F          -5.4193  -21.5886   20.0418 F       1  UNL1       -0.2026
      6 C          -4.7223  -19.2712   20.9871 C.ar    1  UNL1        0.1535
      7 C          -4.9935  -18.0982   21.8818 C.ar    1  UNL1        0.0369
      8 C          -6.2330  -18.0697   22.7260 C.ar    1  UNL1        0.0930
      9 CL         -6.5043  -16.8967   23.6208 Cl      1  UNL1       -0.0790
     10 S          -3.4827  -19.2997   20.1429 S.O2    1  UNL1        0.0769
     11 O          -2.8288  -20.2162   21.1340 O.2     1  UNL1       -0.1498
     12 O          -4.1367  -18.3832   19.1518 O.2     1  UNL1       -0.1498
     13 N          -2.2431  -19.3282   19.2987 N.pl3   1  UNL1       -0.1984
     14 H          -2.1919  -19.9279   18.5195 H       1  UNL1        0.1753
     15 C          -1.0817  -18.4432   19.6416 C.ar    1  UNL1        0.1542
     16 C          -1.1545  -16.9826   19.9753 C.ar    1  UNL1        0.0725
     17 S           0.2387  -16.5000   20.2510 S.2     1  UNL1       -0.0625
     18 C           1.1727  -17.6623   20.0876 C.ar    1  UNL1        0.1360
     19 N           0.3567  -18.8633   19.7110 N.ar    1  UNL1       -0.2203
     20 C          -9.7787  -19.4555   22.8973 C.3     1  UNL1        0.2110
     21 C         -11.3020  -18.5126   21.0156 C.3     1  UNL1        0.0620
     22 C         -12.0998  -17.3836   20.4336 C.3     1  UNL1        0.0208
     23 C         -12.1720  -16.0683   21.1512 C.3     1  UNL1        0.0271
     24 C         -11.4465  -15.8821   22.4507 C.2     1  UNL1       -0.0302
     25 C         -10.6487  -17.0112   23.0327 C.2     1  UNL1       -0.0218
     26 C         -10.5765  -18.3264   22.3152 C.3     1  UNL1        0.0801
     27 C          -9.9232  -16.8250   24.3324 C.ar    1  UNL1       -0.0040
     28 C          -9.9600  -17.9044   25.3732 C.ar    1  UNL1        0.0020
     29 C          -9.2344  -17.7183   26.6728 C.ar    1  UNL1        0.0296
     30 C          -8.4720  -16.4526   26.9315 C.ar    1  UNL1        0.1401
     31 F          -7.7465  -16.2664   28.2310 F       1  UNL1       -0.2042
     32 C          -8.4353  -15.3731   25.8906 C.ar    1  UNL1        0.0296
     33 C          -9.1608  -15.5593   24.5911 C.ar    1  UNL1        0.0020
     34 N         -11.2298  -19.8279   20.2981 N.3     1  UNL1       -0.2982
     35 H         -11.0232  -20.5364   21.0021 H       1  UNL1        0.1232
     36 C          -8.9103  -19.3347   19.2366 C.3     1  UNL1        0.0185
     37 C         -10.2425  -20.0221   19.1856 C.3     1  UNL1        0.0686
@<TRIPOS>BOND
     1    36    37    1
     2    37    34    1
     3    21    34    1
     4    21    22    1
     5    22    23    1
     6    23    24    1
     7    24    25    2
     8    25    27    1
     9    27    28   ar
    10    28    29   ar
    11    29    30   ar
    12    30    31    1
    13    30    32   ar
    14    32    33   ar
    15    25    26    1
    16    26    20    1
    17    20     1    1
    18     1     2    1
    19     2     3   ar
    20     3     4   ar
    21     4     5    1
    22     4     6   ar
    23     6    10    1
    24    10    11    2
    25    10    12    2
    26    10    13    1
    27    13    15    1
    28    15    16   ar
    29    16    17   ar
    30    17    18   ar
    31    18    19   ar
    32     6     7   ar
    33     7     8   ar
    34     8     9    1
    35    26    21    1
    36     8     2   ar
    37    33    27   ar
    38    19    15   ar
    39    34    35    1
    40    13    14    1
