@<TRIPOS>MOLECULE
*****
 37 41 0 0 0
SMALL
GASTEIGER

@<TRIPOS>ATOM
      1 N           6.9038   -2.9857   23.0258 N.3     1  UNL1       -0.2690
      2 C           6.9375   -1.8719   24.0298 C.3     1  UNL1        0.0724
      3 C           6.9211   -2.1839   25.4969 C.3     1  UNL1        0.0175
      4 C           6.8709   -3.6097   25.9599 C.3     1  UNL1        0.0060
      5 C           6.8373   -4.7236   24.9559 C.3     1  UNL1        0.0175
      6 C           6.8537   -4.4116   23.4888 C.3     1  UNL1        0.0724
      7 C           6.9046   -2.4958   26.9641 C.3     1  UNL1        0.0217
      8 C           6.8882   -2.8078   28.4311 C.3     1  UNL1        0.0938
      9 N           6.8381   -4.2337   28.8942 N.am    1  UNL1       -0.2748
     10 C           6.8216   -4.5456   30.3613 C.2     1  UNL1        0.2668
     11 O           6.7715   -5.9715   30.8244 O.2     1  UNL1       -0.2683
     12 C           6.8044   -5.3475   27.8901 C.3     1  UNL1        0.0938
     13 C           6.8208   -5.0356   26.4230 C.3     1  UNL1        0.0217
     14 C           6.8553   -3.4318   31.3654 C.ar    1  UNL1        0.1348
     15 C           8.1677   -2.9570   31.9151 C.ar    1  UNL1        0.0250
     16 C           8.2014   -1.8431   32.9191 C.ar    1  UNL1        0.0174
     17 C           6.9226   -1.2039   33.3735 C.ar    1  UNL1        0.0610
     18 N           6.9563   -0.0901   34.3775 N.pl3   1  UNL1       -0.3558
     19 C           5.6102   -1.6787   32.8237 C.ar    1  UNL1        0.1130
     20 N           5.5766   -2.7927   31.8196 N.ar    1  UNL1       -0.2380
     21 H           7.8177    0.2215   34.7383 H       1  UNL1        0.1424
     22 H           6.1170    0.3294   34.6757 H       1  UNL1        0.1424
     23 C           6.9203   -2.6738   21.5586 C.3     1  UNL1        0.0989
     24 C           2.7143   -0.6613   21.0366 C.3     1  UNL1        0.1372
     25 C           4.1125   -1.0236   21.4414 C.3     1  UNL1        0.0691
     26 C           4.5041   -2.2646   20.6955 C.ar    1  UNL1        0.0126
     27 C           5.7642   -3.0785   20.6928 C.ar    1  UNL1       -0.0071
     28 C           5.8681   -4.2971   19.8243 C.ar    1  UNL1       -0.0030
     29 C           4.7120   -4.7018   18.9585 C.ar    1  UNL1        0.0028
     30 C           3.4520   -3.8879   18.9612 C.ar    1  UNL1        0.0365
     31 C           3.3481   -2.6694   19.8297 C.ar    1  UNL1        0.1340
     32 O           2.2419   -1.6784   20.0405 O.3     1  UNL1       -0.4826
     33 C           2.9027    0.4815   21.9898 C.3     1  UNL1        0.0404
     34 C           2.4669    0.3459   23.4187 C.3     1  UNL1        0.0037
     35 C           1.3555   -0.0601   20.8311 C.3     1  UNL1        0.0404
     36 C           1.2817    1.4730   18.7348 C.3     1  UNL1        0.0001
     37 C           0.8612    0.2191   19.4427 C.3     1  UNL1        0.0036
@<TRIPOS>BOND
     1    36    37    1
     2    37    35    1
     3    35    24    1
     4    24    33    1
     5    33    34    1
     6    24    25    1
     7    25    26    1
     8    26    27   ar
     9    27    23    1
    10    23     1    1
    11     1     2    1
    12     2     3    1
    13     3     4    1
    14     4     5    1
    15     5     6    1
    16     4     7    1
    17     7     8    1
    18     8     9    1
    19     9    10   am
    20    10    11    2
    21    10    14    1
    22    14    15   ar
    23    15    16   ar
    24    16    17   ar
    25    17    18    1
    26    17    19   ar
    27    19    20   ar
    28     9    12    1
    29    12    13    1
    30    27    28   ar
    31    28    29   ar
    32    29    30   ar
    33    30    31   ar
    34    31    32    1
    35    32    24    1
    36    31    26   ar
    37     6     1    1
    38    20    14   ar
    39    13     4    1
    40    18    21    1
    41    18    22    1
@<TRIPOS>MOLECULE
*****
 37 41 0 0 0
SMALL
GASTEIGER

@<TRIPOS>ATOM
      1 N           3.7746   -1.6441   18.9023 N.3     1  UNL1       -0.2690
      2 C           2.7381   -1.7945   19.9760 C.3     1  UNL1        0.0724
      3 C           1.7203   -0.7141   20.1925 C.3     1  UNL1        0.0175
      4 C           1.7391    0.5167   19.3353 C.3     1  UNL1        0.0060
      5 C           2.7756    0.6671   18.2616 C.3     1  UNL1        0.0175
      6 C           3.7934   -0.4133   18.0451 C.3     1  UNL1        0.0724
      7 C           0.7025    0.3663   20.4091 C.3     1  UNL1        0.0217
      8 C          -0.3153    1.4467   20.6256 C.3     1  UNL1        0.0938
      9 N          -0.2965    2.6774   19.7684 N.am    1  UNL1       -0.2748
     10 C          -1.3143    3.7579   19.9850 C.2     1  UNL1        0.2668
     11 O          -1.2956    4.9886   19.1278 O.2     1  UNL1       -0.2683
     12 C           0.7400    2.8279   18.6947 C.3     1  UNL1        0.0938
     13 C           1.7579    1.7475   18.4781 C.3     1  UNL1        0.0217
     14 C          -2.3508    3.6074   21.0587 C.ar    1  UNL1        0.1348
     15 C          -2.0335    4.0080   22.4690 C.ar    1  UNL1        0.0250
     16 C          -3.0700    3.8576   23.5427 C.ar    1  UNL1        0.0174
     17 C          -4.4240    3.3066   23.2062 C.ar    1  UNL1        0.0610
     18 N          -5.4605    3.1561   24.2800 N.pl3   1  UNL1       -0.3558
     19 C          -4.7414    2.9060   21.7960 C.ar    1  UNL1        0.1130
     20 N          -3.7047    3.0564   20.7222 N.ar    1  UNL1       -0.2380
     21 H          -5.2522    3.4191   25.2056 H       1  UNL1        0.1424
     22 H          -6.3491    2.7945   24.0591 H       1  UNL1        0.1424
     23 C           4.7924   -2.7245   18.6857 C.3     1  UNL1        0.0989
     24 C           6.2676   -2.6426   23.1387 C.3     1  UNL1        0.1372
     25 C           5.4628   -2.7126   21.8749 C.3     1  UNL1        0.0691
     26 C           6.4057   -2.5733   20.7167 C.ar    1  UNL1        0.0126
     27 C           6.1800   -2.5684   19.2337 C.ar    1  UNL1       -0.0071
     28 C           7.3419   -2.4075   18.2988 C.ar    1  UNL1       -0.0030
     29 C           8.7295   -2.2515   18.8468 C.ar    1  UNL1        0.0028
     30 C           8.9551   -2.2564   20.3297 C.ar    1  UNL1        0.0365
     31 C           7.7932   -2.4173   21.2646 C.ar    1  UNL1        0.1340
     32 O           7.7079   -2.4601   22.7616 O.3     1  UNL1       -0.4826
     33 C           4.9374   -2.8182   23.8094 C.3     1  UNL1        0.0404
     34 C           3.8715   -1.7755   23.6455 C.3     1  UNL1        0.0037
     35 C           6.7944   -2.6094   24.5428 C.3     1  UNL1        0.0404
     36 C           7.6590   -4.9234   25.3476 C.3     1  UNL1        0.0001
     37 C           6.6527   -3.8137   25.4257 C.3     1  UNL1        0.0036
@<TRIPOS>BOND
     1    36    37    1
     2    37    35    1
     3    35    24    1
     4    24    33    1
     5    33    34    1
     6    24    25    1
     7    25    26    1
     8    26    27   ar
     9    27    23    1
    10    23     1    1
    11     1     2    1
    12     2     3    1
    13     3     4    1
    14     4     5    1
    15     5     6    1
    16     4     7    1
    17     7     8    1
    18     8     9    1
    19     9    10   am
    20    10    11    2
    21    10    14    1
    22    14    15   ar
    23    15    16   ar
    24    16    17   ar
    25    17    18    1
    26    17    19   ar
    27    19    20   ar
    28     9    12    1
    29    12    13    1
    30    27    28   ar
    31    28    29   ar
    32    29    30   ar
    33    30    31   ar
    34    31    32    1
    35    32    24    1
    36    31    26   ar
    37     6     1    1
    38    20    14   ar
    39    13     4    1
    40    18    21    1
    41    18    22    1
@<TRIPOS>MOLECULE
*****
 37 41 0 0 0
SMALL
GASTEIGER

@<TRIPOS>ATOM
      1 N         -17.2486    1.0525   19.4322 N.3     1  UNL1       -0.2690
      2 C         -16.9603   -0.3383   19.9144 C.3     1  UNL1        0.0724
      3 C         -15.7210   -1.0488   19.4568 C.3     1  UNL1        0.0175
      4 C         -14.7701   -0.3685   18.5171 C.3     1  UNL1        0.0060
      5 C         -15.0585    1.0222   18.0349 C.3     1  UNL1        0.0175
      6 C         -16.2978    1.7327   18.4925 C.3     1  UNL1        0.0724
      7 C         -14.4817   -1.7594   18.9993 C.3     1  UNL1        0.0217
      8 C         -13.2425   -2.4699   18.5418 C.3     1  UNL1        0.0938
      9 N         -12.2916   -1.7896   17.6021 N.am    1  UNL1       -0.2748
     10 C         -11.0523   -2.5002   17.1445 C.2     1  UNL1        0.2668
     11 O         -10.1014   -1.8200   16.2048 O.2     1  UNL1       -0.2683
     12 C         -12.5799   -0.3989   17.1199 C.3     1  UNL1        0.0938
     13 C         -13.8193    0.3117   17.5774 C.3     1  UNL1        0.0217
     14 C         -10.7639   -3.8910   17.6267 C.ar    1  UNL1        0.1348
     15 C          -9.8643   -4.1038   18.8080 C.ar    1  UNL1        0.0250
     16 C          -9.5759   -5.4946   19.2901 C.ar    1  UNL1        0.0174
     17 C         -10.1872   -6.6727   18.5910 C.ar    1  UNL1        0.0610
     18 N          -9.8988   -8.0634   19.0732 N.pl3   1  UNL1       -0.3558
     19 C         -11.0868   -6.4598   17.4098 C.ar    1  UNL1        0.1130
     20 N         -11.3752   -5.0689   16.9276 N.ar    1  UNL1       -0.2380
     21 H          -9.3084   -8.2031   19.8485 H       1  UNL1        0.1424
     22 H         -10.3000   -8.8366   18.6144 H       1  UNL1        0.1424
     23 C         -18.4879    1.7631   19.8897 C.3     1  UNL1        0.0989
     24 C         -15.9279    4.2162   22.9623 C.3     1  UNL1        0.1372
     25 C         -16.4802    3.5392   21.7430 C.3     1  UNL1        0.0691
     26 C         -17.7448    2.8350   22.1367 C.ar    1  UNL1        0.0126
     27 C         -18.7172    2.0048   21.3522 C.ar    1  UNL1       -0.0071
     28 C         -19.9188    1.4165   22.0304 C.ar    1  UNL1       -0.0030
     29 C         -20.1480    1.6583   23.4930 C.ar    1  UNL1        0.0028
     30 C         -19.1756    2.4884   24.2773 C.ar    1  UNL1        0.0365
     31 C         -17.9740    3.0768   23.5992 C.ar    1  UNL1        0.1340
     32 O         -16.8511    3.9304   24.1094 O.3     1  UNL1       -0.4826
     33 C         -14.8417    4.6630   22.0292 C.3     1  UNL1        0.0404
     34 C         -15.0997    4.7245   20.5528 C.3     1  UNL1        0.0037
     35 C         -15.1485    4.9866   23.9865 C.3     1  UNL1        0.0404
     36 C         -12.8147    4.8489   25.1198 C.3     1  UNL1        0.0001
     37 C         -13.6530    5.0576   23.8936 C.3     1  UNL1        0.0036
@<TRIPOS>BOND
     1    36    37    1
     2    37    35    1
     3    35    24    1
     4    24    33    1
     5    33    34    1
     6    24    25    1
     7    25    26    1
     8    26    27   ar
     9    27    23    1
    10    23     1    1
    11     1     2    1
    12     2     3    1
    13     3     4    1
    14     4     5    1
    15     5     6    1
    16     4     7    1
    17     7     8    1
    18     8     9    1
    19     9    10   am
    20    10    11    2
    21    10    14    1
    22    14    15   ar
    23    15    16   ar
    24    16    17   ar
    25    17    18    1
    26    17    19   ar
    27    19    20   ar
    28     9    12    1
    29    12    13    1
    30    27    28   ar
    31    28    29   ar
    32    29    30   ar
    33    30    31   ar
    34    31    32    1
    35    32    24    1
    36    31    26   ar
    37     6     1    1
    38    20    14   ar
    39    13     4    1
    40    18    21    1
    41    18    22    1
@<TRIPOS>MOLECULE
*****
 37 41 0 0 0
SMALL
GASTEIGER

@<TRIPOS>ATOM
      1 N           3.8717   -2.4094   20.7957 N.3     1  UNL1       -0.2690
      2 C           2.8011   -2.1386   19.7806 C.3     1  UNL1        0.0724
      3 C           1.8134   -1.0330   20.0091 C.3     1  UNL1        0.0175
      4 C           1.8963   -0.1984   21.2527 C.3     1  UNL1        0.0060
      5 C           2.9669   -0.4692   22.2678 C.3     1  UNL1        0.0175
      6 C           3.9546   -1.5747   22.0393 C.3     1  UNL1        0.0724
      7 C           0.8257    0.0725   20.2376 C.3     1  UNL1        0.0217
      8 C          -0.1620    1.1780   20.4661 C.3     1  UNL1        0.0938
      9 N          -0.0792    2.0127   21.7096 N.am    1  UNL1       -0.2748
     10 C          -1.0669    3.1183   21.9381 C.2     1  UNL1        0.2668
     11 O          -0.9840    3.9529   23.1817 O.2     1  UNL1       -0.2683
     12 C           0.9914    1.7418   22.7247 C.3     1  UNL1        0.0938
     13 C           1.9792    0.6363   22.4963 C.3     1  UNL1        0.0217
     14 C          -2.1375    3.3891   20.9230 C.ar    1  UNL1        0.1348
     15 C          -1.7956    4.0879   19.6405 C.ar    1  UNL1        0.0250
     16 C          -2.8661    4.3588   18.6255 C.ar    1  UNL1        0.0174
     17 C          -4.2788    3.9308   18.8928 C.ar    1  UNL1        0.0610
     18 N          -5.3494    4.2016   17.8777 N.pl3   1  UNL1       -0.3558
     19 C          -4.6207    3.2320   20.1753 C.ar    1  UNL1        0.1130
     20 N          -3.5500    2.9611   21.1904 N.ar    1  UNL1       -0.2380
     21 H          -5.1249    4.6603   17.0360 H       1  UNL1        0.1424
     22 H          -6.2765    3.9208   18.0532 H       1  UNL1        0.1424
     23 C           4.8595   -3.5150   20.5672 C.3     1  UNL1        0.0989
     24 C           6.5410   -0.2395   17.6593 C.3     1  UNL1        0.1372
     25 C           5.6756   -1.1441   18.4856 C.3     1  UNL1        0.0691
     26 C           6.5717   -2.0820   19.2387 C.ar    1  UNL1        0.0126
     27 C           6.2787   -3.1900   20.2065 C.ar    1  UNL1       -0.0071
     28 C           7.4049   -3.9730   20.8135 C.ar    1  UNL1       -0.0030
     29 C           8.8242   -3.6480   20.4527 C.ar    1  UNL1        0.0028
     30 C           9.1172   -2.5401   19.4850 C.ar    1  UNL1        0.0365
     31 C           7.9909   -1.7571   18.8780 C.ar    1  UNL1        0.1340
     32 O           7.9720   -0.6183   17.9019 O.3     1  UNL1       -0.4826
     33 C           5.2338    0.3544   17.2251 C.3     1  UNL1        0.0404
     34 C           4.3202    0.9783   18.2381 C.3     1  UNL1        0.0037
     35 C           7.1332    0.7893   16.7423 C.3     1  UNL1        0.0404
     36 C           7.9105    2.9720   17.9177 C.3     1  UNL1        0.0001
     37 C           8.2375    1.6805   17.2284 C.3     1  UNL1        0.0036
@<TRIPOS>BOND
     1    36    37    1
     2    37    35    1
     3    35    24    1
     4    24    33    1
     5    33    34    1
     6    24    25    1
     7    25    26    1
     8    26    27   ar
     9    27    23    1
    10    23     1    1
    11     1     2    1
    12     2     3    1
    13     3     4    1
    14     4     5    1
    15     5     6    1
    16     4     7    1
    17     7     8    1
    18     8     9    1
    19     9    10   am
    20    10    11    2
    21    10    14    1
    22    14    15   ar
    23    15    16   ar
    24    16    17   ar
    25    17    18    1
    26    17    19   ar
    27    19    20   ar
    28     9    12    1
    29    12    13    1
    30    27    28   ar
    31    28    29   ar
    32    29    30   ar
    33    30    31   ar
    34    31    32    1
    35    32    24    1
    36    31    26   ar
    37     6     1    1
    38    20    14   ar
    39    13     4    1
    40    18    21    1
    41    18    22    1
@<TRIPOS>MOLECULE
*****
 37 41 0 0 0
SMALL
GASTEIGER

@<TRIPOS>ATOM
      1 N           7.7342   -4.6126   23.8349 N.3     1  UNL1       -0.2690
      2 C           7.6571   -3.3318   24.6118 C.3     1  UNL1        0.0724
      3 C           7.4797   -3.3673   26.1008 C.3     1  UNL1        0.0175
      4 C           7.3794   -4.6837   26.8130 C.3     1  UNL1        0.0060
      5 C           7.4565   -5.9645   26.0361 C.3     1  UNL1        0.0175
      6 C           7.6339   -5.9289   24.5471 C.3     1  UNL1        0.0724
      7 C           7.3023   -3.4028   27.5899 C.3     1  UNL1        0.0217
      8 C           7.1249   -3.4384   29.0789 C.3     1  UNL1        0.0938
      9 N           7.0246   -4.7547   29.7911 N.am    1  UNL1       -0.2748
     10 C           6.8472   -4.7902   31.2802 C.2     1  UNL1        0.2668
     11 O           6.7469   -6.1065   31.9924 O.2     1  UNL1       -0.2683
     12 C           7.1017   -6.0355   29.0142 C.3     1  UNL1        0.0938
     13 C           7.2791   -6.0000   27.5251 C.3     1  UNL1        0.0217
     14 C           6.7701   -3.5094   32.0570 C.ar    1  UNL1        0.1348
     15 C           5.4402   -2.9901   32.5170 C.ar    1  UNL1        0.0250
     16 C           5.3631   -1.7092   33.2939 C.ar    1  UNL1        0.0174
     17 C           6.6160   -0.9477   33.6108 C.ar    1  UNL1        0.0610
     18 N           6.5389    0.3331   34.3876 N.pl3   1  UNL1       -0.3558
     19 C           7.9459   -1.4670   33.1508 C.ar    1  UNL1        0.1130
     20 N           8.0230   -2.7479   32.3739 N.ar    1  UNL1       -0.2380
     21 H           5.6660    0.6740   34.6895 H       1  UNL1        0.1424
     22 H           7.3612    0.8329   34.5956 H       1  UNL1        0.1424
     23 C           7.9116   -4.5771   22.3458 C.3     1  UNL1        0.0989
     24 C           4.7436   -2.6023   19.5040 C.3     1  UNL1        0.1372
     25 C           5.5037   -3.5063   20.4288 C.3     1  UNL1        0.0691
     26 C           6.8055   -2.8400   20.7619 C.ar    1  UNL1        0.0126
     27 C           7.9563   -3.2614   21.6270 C.ar    1  UNL1       -0.0071
     28 C           9.1515   -2.3670   21.7732 C.ar    1  UNL1       -0.0030
     29 C           9.1961   -1.0512   21.0543 C.ar    1  UNL1        0.0028
     30 C           8.0454   -0.6298   20.1893 C.ar    1  UNL1        0.0365
     31 C           6.8502   -1.5242   20.0430 C.ar    1  UNL1        0.1340
     32 O           5.5758   -1.3773   19.2656 O.3     1  UNL1       -0.4826
     33 C           3.7072   -3.6857   19.5511 C.3     1  UNL1        0.0404
     34 C           4.0794   -5.0954   19.1984 C.3     1  UNL1        0.0037
     35 C           3.7669   -1.9248   18.5891 C.3     1  UNL1        0.0404
     36 C           2.1700   -0.6262   20.1744 C.3     1  UNL1        0.0001
     37 C           3.1129   -0.6415   19.0079 C.3     1  UNL1        0.0036
@<TRIPOS>BOND
     1    36    37    1
     2    37    35    1
     3    35    24    1
     4    24    33    1
     5    33    34    1
     6    24    25    1
     7    25    26    1
     8    26    27   ar
     9    27    23    1
    10    23     1    1
    11     1     2    1
    12     2     3    1
    13     3     4    1
    14     4     5    1
    15     5     6    1
    16     4     7    1
    17     7     8    1
    18     8     9    1
    19     9    10   am
    20    10    11    2
    21    10    14    1
    22    14    15   ar
    23    15    16   ar
    24    16    17   ar
    25    17    18    1
    26    17    19   ar
    27    19    20   ar
    28     9    12    1
    29    12    13    1
    30    27    28   ar
    31    28    29   ar
    32    29    30   ar
    33    30    31   ar
    34    31    32    1
    35    32    24    1
    36    31    26   ar
    37     6     1    1
    38    20    14   ar
    39    13     4    1
    40    18    21    1
    41    18    22    1
@<TRIPOS>MOLECULE
*****
 37 41 0 0 0
SMALL
GASTEIGER

@<TRIPOS>ATOM
      1 N          -0.2449    3.3138   19.5396 N.3     1  UNL1       -0.2690
      2 C           0.3883    2.8670   20.8239 C.3     1  UNL1        0.0724
      3 C           1.4179    1.7763   20.8127 C.3     1  UNL1        0.0175
      4 C           1.8143    1.1322   19.5173 C.3     1  UNL1        0.0060
      5 C           1.1811    1.5789   18.2330 C.3     1  UNL1        0.0175
      6 C           0.1515    2.6697   18.2442 C.3     1  UNL1        0.0724
      7 C           2.4475    0.6855   20.8017 C.3     1  UNL1        0.0217
      8 C           3.4771   -0.4053   20.7906 C.3     1  UNL1        0.0938
      9 N           3.8735   -1.0493   19.4952 N.am    1  UNL1       -0.2748
     10 C           4.9031   -2.1402   19.4841 C.2     1  UNL1        0.2668
     11 O           5.2995   -2.7842   18.1887 O.2     1  UNL1       -0.2683
     12 C           3.2403   -0.6026   18.2109 C.3     1  UNL1        0.0938
     13 C           2.2106    0.4882   18.2219 C.3     1  UNL1        0.0217
     14 C           5.5363   -2.5869   20.7684 C.ar    1  UNL1        0.1348
     15 C           4.7741   -3.4672   21.7139 C.ar    1  UNL1        0.0250
     16 C           5.4073   -3.9139   22.9982 C.ar    1  UNL1        0.0174
     17 C           6.8028   -3.4803   23.3370 C.ar    1  UNL1        0.0610
     18 N           7.4360   -3.9270   24.6213 N.pl3   1  UNL1       -0.3558
     19 C           7.5650   -2.6000   22.3915 C.ar    1  UNL1        0.1130
     20 N           6.9317   -2.1533   21.1071 N.ar    1  UNL1       -0.2380
     21 H           6.9357   -4.5048   25.2419 H       1  UNL1        0.1424
     22 H           8.3518   -3.6424   24.8437 H       1  UNL1        0.1424
     23 C          -1.2745    4.4046   19.5506 C.3     1  UNL1        0.0989
     24 C          -4.1277    3.5063   23.1651 C.3     1  UNL1        0.1372
     25 C          -2.9631    3.8367   22.2795 C.3     1  UNL1        0.0691
     26 C          -3.4401    3.8111   20.8576 C.ar    1  UNL1        0.0126
     27 C          -2.7340    4.0583   19.5575 C.ar    1  UNL1       -0.0071
     28 C          -3.4874    3.9592   18.2642 C.ar    1  UNL1       -0.0030
     29 C          -4.9469    3.6129   18.2711 C.ar    1  UNL1        0.0028
     30 C          -5.6529    3.3657   19.5712 C.ar    1  UNL1        0.0365
     31 C          -4.8995    3.4648   20.8645 C.ar    1  UNL1        0.1340
     32 O          -5.3245    3.2764   22.2906 O.3     1  UNL1       -0.4826
     33 C          -3.1308    3.6745   24.2732 C.3     1  UNL1        0.0404
     34 C          -1.6618    3.6477   23.9709 C.3     1  UNL1        0.0037
     35 C          -5.0840    3.2110   24.2824 C.3     1  UNL1        0.0404
     36 C          -6.6978    5.1197   24.9913 C.3     1  UNL1        0.0001
     37 C          -5.4709    4.2947   25.2447 C.3     1  UNL1        0.0036
@<TRIPOS>BOND
     1    36    37    1
     2    37    35    1
     3    35    24    1
     4    24    33    1
     5    33    34    1
     6    24    25    1
     7    25    26    1
     8    26    27   ar
     9    27    23    1
    10    23     1    1
    11     1     2    1
    12     2     3    1
    13     3     4    1
    14     4     5    1
    15     5     6    1
    16     4     7    1
    17     7     8    1
    18     8     9    1
    19     9    10   am
    20    10    11    2
    21    10    14    1
    22    14    15   ar
    23    15    16   ar
    24    16    17   ar
    25    17    18    1
    26    17    19   ar
    27    19    20   ar
    28     9    12    1
    29    12    13    1
    30    27    28   ar
    31    28    29   ar
    32    29    30   ar
    33    30    31   ar
    34    31    32    1
    35    32    24    1
    36    31    26   ar
    37     6     1    1
    38    20    14   ar
    39    13     4    1
    40    18    21    1
    41    18    22    1
@<TRIPOS>MOLECULE
*****
 37 41 0 0 0
SMALL
GASTEIGER

@<TRIPOS>ATOM
      1 N           0.8999    2.8518   21.9972 N.3     1  UNL1       -0.2690
      2 C           0.1213    3.5374   23.0805 C.3     1  UNL1        0.0724
      3 C          -1.3259    3.8696   22.8685 C.3     1  UNL1        0.0175
      4 C          -1.9946    3.5163   21.5731 C.3     1  UNL1        0.0060
      5 C          -1.2161    2.8307   20.4898 C.3     1  UNL1        0.0175
      6 C           0.2312    2.4985   20.7018 C.3     1  UNL1        0.0724
      7 C          -2.7733    4.2019   22.6565 C.3     1  UNL1        0.0217
      8 C          -4.2205    4.5342   22.4445 C.3     1  UNL1        0.0938
      9 N          -4.8892    4.1809   21.1491 N.am    1  UNL1       -0.2748
     10 C          -6.3366    4.5132   20.9371 C.2     1  UNL1        0.2668
     11 O          -7.0052    4.1599   19.6418 O.2     1  UNL1       -0.2683
     12 C          -4.1107    3.4953   20.0658 C.3     1  UNL1        0.0938
     13 C          -2.6633    3.1630   20.2777 C.3     1  UNL1        0.0217
     14 C          -7.1151    5.1988   22.0205 C.ar    1  UNL1        0.1348
     15 C          -7.2131    6.6954   22.0414 C.ar    1  UNL1        0.0250
     16 C          -7.9917    7.3810   23.1248 C.ar    1  UNL1        0.0174
     17 C          -8.6724    6.5699   24.1874 C.ar    1  UNL1        0.0610
     18 N          -9.4509    7.2555   25.2707 N.pl3   1  UNL1       -0.3558
     19 C          -8.5744    5.0733   24.1664 C.ar    1  UNL1        0.1130
     20 N          -7.7958    4.3877   23.0830 N.ar    1  UNL1       -0.2380
     21 H          -9.5152    8.2378   25.2844 H       1  UNL1        0.1424
     22 H          -9.8977    6.7232   25.9681 H       1  UNL1        0.1424
     23 C           2.3472    2.5195   22.2091 C.3     1  UNL1        0.0989
     24 C           3.4721   -1.1314   19.4856 C.3     1  UNL1        0.1372
     25 C           3.0687    0.2072   20.0290 C.3     1  UNL1        0.0691
     26 C           3.0653    0.1178   21.5263 C.ar    1  UNL1        0.0126
     27 C           2.7486    1.1256   22.5912 C.ar    1  UNL1       -0.0071
     28 C           2.8332    0.7395   24.0382 C.ar    1  UNL1       -0.0030
     29 C           3.2345   -0.6545   24.4202 C.ar    1  UNL1        0.0028
     30 C           3.5512   -1.6622   23.3553 C.ar    1  UNL1        0.0365
     31 C           3.4666   -1.2761   21.9083 C.ar    1  UNL1        0.1340
     32 O           3.7181   -2.0482   20.6471 O.3     1  UNL1       -0.4826
     33 C           3.3032   -0.4654   18.1523 C.3     1  UNL1        0.0404
     34 C           4.3725   -0.5951   17.1083 C.3     1  UNL1        0.0037
     35 C           3.8403   -2.3309   18.6635 C.3     1  UNL1        0.0404
     36 C           4.4743   -4.8446   18.8345 C.3     1  UNL1        0.0001
     37 C           3.5558   -3.7101   19.1800 C.3     1  UNL1        0.0036
@<TRIPOS>BOND
     1    36    37    1
     2    37    35    1
     3    35    24    1
     4    24    33    1
     5    33    34    1
     6    24    25    1
     7    25    26    1
     8    26    27   ar
     9    27    23    1
    10    23     1    1
    11     1     2    1
    12     2     3    1
    13     3     4    1
    14     4     5    1
    15     5     6    1
    16     4     7    1
    17     7     8    1
    18     8     9    1
    19     9    10   am
    20    10    11    2
    21    10    14    1
    22    14    15   ar
    23    15    16   ar
    24    16    17   ar
    25    17    18    1
    26    17    19   ar
    27    19    20   ar
    28     9    12    1
    29    12    13    1
    30    27    28   ar
    31    28    29   ar
    32    29    30   ar
    33    30    31   ar
    34    31    32    1
    35    32    24    1
    36    31    26   ar
    37     6     1    1
    38    20    14   ar
    39    13     4    1
    40    18    21    1
    41    18    22    1
@<TRIPOS>MOLECULE
*****
 37 41 0 0 0
SMALL
GASTEIGER

@<TRIPOS>ATOM
      1 N           8.2596   -3.7693   22.9455 N.3     1  UNL1       -0.2690
      2 C           7.3962   -2.5963   23.3035 C.3     1  UNL1        0.0724
      3 C           6.5288   -1.9572   22.2599 C.3     1  UNL1        0.0175
      4 C           6.5249   -2.4912   20.8582 C.3     1  UNL1        0.0060
      5 C           7.3884   -3.6643   20.5001 C.3     1  UNL1        0.0175
      6 C           8.2557   -4.3034   21.5437 C.3     1  UNL1        0.0724
      7 C           5.6614   -1.3180   21.2162 C.3     1  UNL1        0.0217
      8 C           4.7940   -0.6790   20.1726 C.3     1  UNL1        0.0938
      9 N           4.7901   -1.2130   18.7709 N.am    1  UNL1       -0.2748
     10 C           3.9227   -0.5738   17.7272 C.2     1  UNL1        0.2668
     11 O           3.9188   -1.1078   16.3255 O.2     1  UNL1       -0.2683
     12 C           5.6536   -2.3861   18.4128 C.3     1  UNL1        0.0938
     13 C           6.5210   -3.0252   19.4565 C.3     1  UNL1        0.0217
     14 C           3.0593    0.5993   18.0853 C.ar    1  UNL1        0.1348
     15 C           3.6693    1.9613   18.2359 C.ar    1  UNL1        0.0250
     16 C           2.8058    3.1344   18.5940 C.ar    1  UNL1        0.0174
     17 C           1.3323    2.9455   18.8015 C.ar    1  UNL1        0.0610
     18 N           0.4688    4.1186   19.1596 N.pl3   1  UNL1       -0.3558
     19 C           0.7222    1.5834   18.6509 C.ar    1  UNL1        0.1130
     20 N           1.5858    0.4103   18.2928 N.ar    1  UNL1       -0.2380
     21 H           0.8692    5.0125   19.2584 H       1  UNL1        0.1424
     22 H          -0.4983    3.9946   19.2958 H       1  UNL1        0.1424
     23 C           9.1270   -4.4085   23.9891 C.3     1  UNL1        0.0989
     24 C           7.1652   -4.2159   28.2467 C.3     1  UNL1        0.1372
     25 C           7.8196   -3.9093   26.9322 C.3     1  UNL1        0.0691
     26 C           7.9948   -5.2005   26.1893 C.ar    1  UNL1        0.0126
     27 C           8.5810   -5.5132   24.8444 C.ar    1  UNL1       -0.0071
     28 C           8.6212   -6.9305   24.3549 C.ar    1  UNL1       -0.0030
     29 C           8.0752   -8.0351   25.2102 C.ar    1  UNL1        0.0028
     30 C           7.4890   -7.7225   26.5550 C.ar    1  UNL1        0.0365
     31 C           7.4488   -6.3052   27.0446 C.ar    1  UNL1        0.1340
     32 O           6.9361   -5.6967   28.3161 O.3     1  UNL1       -0.4826
     33 C           7.2618   -2.7345   28.4614 C.3     1  UNL1        0.0404
     34 C           6.0457   -1.8720   28.2966 C.3     1  UNL1        0.0037
     35 C           6.5311   -4.2129   29.6060 C.3     1  UNL1        0.0404
     36 C           6.9692   -3.6478   32.1038 C.3     1  UNL1        0.0001
     37 C           7.3865   -4.3268   30.8329 C.3     1  UNL1        0.0036
@<TRIPOS>BOND
     1    36    37    1
     2    37    35    1
     3    35    24    1
     4    24    33    1
     5    33    34    1
     6    24    25    1
     7    25    26    1
     8    26    27   ar
     9    27    23    1
    10    23     1    1
    11     1     2    1
    12     2     3    1
    13     3     4    1
    14     4     5    1
    15     5     6    1
    16     4     7    1
    17     7     8    1
    18     8     9    1
    19     9    10   am
    20    10    11    2
    21    10    14    1
    22    14    15   ar
    23    15    16   ar
    24    16    17   ar
    25    17    18    1
    26    17    19   ar
    27    19    20   ar
    28     9    12    1
    29    12    13    1
    30    27    28   ar
    31    28    29   ar
    32    29    30   ar
    33    30    31   ar
    34    31    32    1
    35    32    24    1
    36    31    26   ar
    37     6     1    1
    38    20    14   ar
    39    13     4    1
    40    18    21    1
    41    18    22    1
@<TRIPOS>MOLECULE
*****
 37 41 0 0 0
SMALL
GASTEIGER

@<TRIPOS>ATOM
      1 N           7.5539   -2.6704   26.4050 N.3     1  UNL1       -0.2690
      2 C           6.9117   -1.3861   25.9713 C.3     1  UNL1        0.0724
      3 C           6.0798   -1.3475   24.7238 C.3     1  UNL1        0.0175
      4 C           5.8901   -2.5931   23.9099 C.3     1  UNL1        0.0060
      5 C           6.5324   -3.8774   24.3435 C.3     1  UNL1        0.0175
      6 C           7.3643   -3.9161   25.5911 C.3     1  UNL1        0.0724
      7 C           5.2479   -1.3088   23.4762 C.3     1  UNL1        0.0217
      8 C           4.4160   -1.2701   22.2287 C.3     1  UNL1        0.0938
      9 N           4.2263   -2.5157   21.4148 N.am    1  UNL1       -0.2748
     10 C           3.3943   -2.4770   20.1672 C.2     1  UNL1        0.2668
     11 O           3.2047   -3.7226   19.3533 O.2     1  UNL1       -0.2683
     12 C           4.8685   -3.8000   21.8484 C.3     1  UNL1        0.0938
     13 C           5.7005   -3.8387   23.0960 C.3     1  UNL1        0.0217
     14 C           2.7521   -1.1927   19.7335 C.ar    1  UNL1        0.1348
     15 C           1.3854   -0.8310   20.2347 C.ar    1  UNL1        0.0250
     16 C           0.7431    0.4533   19.8010 C.ar    1  UNL1        0.0174
     17 C           1.4677    1.3760   18.8662 C.ar    1  UNL1        0.0610
     18 N           0.8254    2.6603   18.4326 N.pl3   1  UNL1       -0.3558
     19 C           2.8344    1.0143   18.3651 C.ar    1  UNL1        0.1130
     20 N           3.4766   -0.2701   18.7987 N.ar    1  UNL1       -0.2380
     21 H          -0.0716    2.8977   18.7615 H       1  UNL1        0.1424
     22 H           1.3010    3.2658   17.8190 H       1  UNL1        0.1424
     23 C           8.3859   -2.7092   27.6526 C.3     1  UNL1        0.0989
     24 C           5.4183   -1.6622   31.1325 C.3     1  UNL1        0.1372
     25 C           6.2843   -1.6519   29.9077 C.3     1  UNL1        0.0691
     26 C           6.9748   -2.9804   29.8172 C.ar    1  UNL1        0.0126
     27 C           7.9468   -3.5405   28.8213 C.ar    1  UNL1       -0.0071
     28 C           8.4796   -4.9319   28.9944 C.ar    1  UNL1       -0.0030
     29 C           8.0405   -5.7633   30.1632 C.ar    1  UNL1        0.0028
     30 C           7.0685   -5.2031   31.1589 C.ar    1  UNL1        0.0365
     31 C           6.5357   -3.8117   30.9859 C.ar    1  UNL1        0.1340
     32 O           5.5737   -2.9970   31.7989 O.3     1  UNL1       -0.4826
     33 C           5.0665   -0.2686   30.7034 C.3     1  UNL1        0.0404
     34 C           3.6825    0.2610   30.9363 C.3     1  UNL1        0.0037
     35 C           4.4789   -1.3811   32.2676 C.3     1  UNL1        0.0404
     36 C           5.1582   -0.8092   34.7092 C.3     1  UNL1        0.0001
     37 C           4.8272   -1.8259   33.6571 C.3     1  UNL1        0.0036
@<TRIPOS>BOND
     1    36    37    1
     2    37    35    1
     3    35    24    1
     4    24    33    1
     5    33    34    1
     6    24    25    1
     7    25    26    1
     8    26    27   ar
     9    27    23    1
    10    23     1    1
    11     1     2    1
    12     2     3    1
    13     3     4    1
    14     4     5    1
    15     5     6    1
    16     4     7    1
    17     7     8    1
    18     8     9    1
    19     9    10   am
    20    10    11    2
    21    10    14    1
    22    14    15   ar
    23    15    16   ar
    24    16    17   ar
    25    17    18    1
    26    17    19   ar
    27    19    20   ar
    28     9    12    1
    29    12    13    1
    30    27    28   ar
    31    28    29   ar
    32    29    30   ar
    33    30    31   ar
    34    31    32    1
    35    32    24    1
    36    31    26   ar
    37     6     1    1
    38    20    14   ar
    39    13     4    1
    40    18    21    1
    41    18    22    1
