@<TRIPOS>MOLECULE
*****
 32 34 0 0 0
SMALL
GASTEIGER

@<TRIPOS>ATOM
      1 C          -9.2199  -18.8343   21.8986 C.2     1  UNL1       -0.0222
      2 C          -7.9768  -18.2196   22.4702 C.2     1  UNL1       -0.0040
      3 C          -8.0654  -17.3311   23.6756 C.ar    1  UNL1       -0.0001
      4 C          -8.6045  -17.8707   24.9671 C.ar    1  UNL1        0.0031
      5 C          -8.6931  -16.9822   26.1723 C.ar    1  UNL1        0.0366
      6 C          -8.2427  -15.5540   26.0860 C.ar    1  UNL1        0.1337
      7 O          -8.3314  -14.6655   27.2913 O.3     1  UNL1       -0.5055
      8 C          -7.7037  -15.0144   24.7944 C.ar    1  UNL1        0.0366
      9 C          -7.6150  -15.9029   23.5892 C.ar    1  UNL1        0.0031
     10 H          -8.6681  -15.0026   28.0981 H       1  UNL1        0.2922
     11 C         -10.5517  -18.5604   22.5322 C.ar    1  UNL1       -0.0038
     12 C         -11.3885  -17.4117   22.0523 C.ar    1  UNL1        0.0028
     13 C         -12.7202  -17.1378   22.6859 C.ar    1  UNL1        0.0366
     14 C         -13.2151  -18.0126   23.7993 C.ar    1  UNL1        0.1337
     15 O         -14.5469  -17.7387   24.4329 O.3     1  UNL1       -0.5055
     16 C         -12.3783  -19.1613   24.2792 C.ar    1  UNL1        0.0366
     17 C         -11.0466  -19.4352   23.6456 C.ar    1  UNL1        0.0028
     18 H         -15.0696  -17.0212   24.1332 H       1  UNL1        0.2922
     19 C          -6.6450  -18.4935   21.8367 C.ar    1  UNL1       -0.0001
     20 C          -6.5587  -18.7821   20.3673 C.ar    1  UNL1        0.0031
     21 C          -5.2268  -19.0559   19.7337 C.ar    1  UNL1        0.0369
     22 C          -3.9814  -19.0411   20.5696 C.ar    1  UNL1        0.1386
     23 C          -4.0678  -18.7525   22.0390 C.ar    1  UNL1        0.0369
     24 C          -5.3995  -18.4787   22.6726 C.ar    1  UNL1        0.0031
     25 O          -2.6497  -19.3150   19.9360 O.3     1  UNL1       -0.4740
     26 C          -1.8988  -18.2065   19.2597 C.3     1  UNL1        0.2222
     27 C          -0.9109  -17.3871   20.0362 C.3     1  UNL1        0.1131
     28 N           0.3990  -17.9879   20.4526 N.3     1  UNL1       -0.3180
     29 H           0.2313  -18.7359   21.1255 H       1  UNL1        0.1190
     30 H           0.9817  -17.2690   20.8815 H       1  UNL1        0.1190
     31 C         -10.1194  -19.5707   19.5751 C.3     1  UNL1        0.0050
     32 C          -9.1313  -19.7228   20.6933 C.3     1  UNL1        0.0264
@<TRIPOS>BOND
     1    31    32    1
     2    32     1    1
     3     1     2    2
     4     2     3    1
     5     3     4   ar
     6     4     5   ar
     7     5     6   ar
     8     6     7    1
     9     6     8   ar
    10     8     9   ar
    11     2    19    1
    12    19    20   ar
    13    20    21   ar
    14    21    22   ar
    15    22    25    1
    16    25    26    1
    17    26    27    1
    18    27    28    1
    19    22    23   ar
    20    23    24   ar
    21     1    11    1
    22    11    12   ar
    23    12    13   ar
    24    13    14   ar
    25    14    15    1
    26    14    16   ar
    27    16    17   ar
    28     9     3   ar
    29    24    19   ar
    30    17    11   ar
    31     7    10    1
    32    28    29    1
    33    28    30    1
    34    15    18    1
@<TRIPOS>MOLECULE
*****
 32 34 0 0 0
SMALL
GASTEIGER

@<TRIPOS>ATOM
      1 C         -15.0588   -3.8461   18.0440 C.2     1  UNL1       -0.0222
      2 C         -15.0270   -5.3454   18.0766 C.2     1  UNL1       -0.0040
      3 C         -13.7182   -6.0704   17.9688 C.ar    1  UNL1       -0.0001
      4 C         -13.3076   -6.6869   16.6644 C.ar    1  UNL1        0.0031
      5 C         -11.9988   -7.4118   16.5567 C.ar    1  UNL1        0.0366
      6 C         -11.1007   -7.5202   17.7532 C.ar    1  UNL1        0.1337
      7 O          -9.7919   -8.2452   17.6453 O.3     1  UNL1       -0.5055
      8 C         -11.5114   -6.9037   19.0575 C.ar    1  UNL1        0.0366
      9 C         -12.8201   -6.1788   19.1653 C.ar    1  UNL1        0.0031
     10 H          -9.5354   -8.6303   16.8306 H       1  UNL1        0.2922
     11 C         -13.7818   -3.0718   17.9035 C.ar    1  UNL1       -0.0038
     12 C         -13.1897   -2.8418   16.5446 C.ar    1  UNL1        0.0028
     13 C         -11.9127   -2.0675   16.4041 C.ar    1  UNL1        0.0366
     14 C         -11.2278   -1.5232   17.6225 C.ar    1  UNL1        0.1337
     15 O          -9.9508   -0.7488   17.4821 O.3     1  UNL1       -0.5055
     16 C         -11.8199   -1.7531   18.9814 C.ar    1  UNL1        0.0366
     17 C         -13.0969   -2.5274   19.1219 C.ar    1  UNL1        0.0028
     18 H          -9.5810   -0.6052   16.6332 H       1  UNL1        0.2922
     19 C         -16.3040   -6.1198   18.2171 C.ar    1  UNL1       -0.0001
     20 C         -16.7071   -6.6651   19.5550 C.ar    1  UNL1        0.0031
     21 C         -17.9841   -7.4395   19.6954 C.ar    1  UNL1        0.0369
     22 C         -18.8579   -7.6685   18.4979 C.ar    1  UNL1        0.1386
     23 C         -18.4547   -7.1232   17.1600 C.ar    1  UNL1        0.0369
     24 C         -17.1778   -6.3488   17.0195 C.ar    1  UNL1        0.0031
     25 O         -20.1348   -8.4428   18.6384 O.3     1  UNL1       -0.4740
     26 C         -20.1313   -9.9329   18.4658 C.3     1  UNL1        0.2222
     27 C         -19.0024  -10.6009   17.7381 C.3     1  UNL1        0.1131
     28 N         -17.9111  -11.2817   18.5100 N.3     1  UNL1       -0.3180
     29 H         -17.3851  -10.5868   19.0399 H       1  UNL1        0.1190
     30 H         -17.2852  -11.7611   17.8629 H       1  UNL1        0.1190
     31 C         -16.9185   -2.7647   19.5006 C.3     1  UNL1        0.0050
     32 C         -16.3675   -3.1211   18.1518 C.3     1  UNL1        0.0264
@<TRIPOS>BOND
     1    31    32    1
     2    32     1    1
     3     1     2    2
     4     2     3    1
     5     3     4   ar
     6     4     5   ar
     7     5     6   ar
     8     6     7    1
     9     6     8   ar
    10     8     9   ar
    11     2    19    1
    12    19    20   ar
    13    20    21   ar
    14    21    22   ar
    15    22    25    1
    16    25    26    1
    17    26    27    1
    18    27    28    1
    19    22    23   ar
    20    23    24   ar
    21     1    11    1
    22    11    12   ar
    23    12    13   ar
    24    13    14   ar
    25    14    15    1
    26    14    16   ar
    27    16    17   ar
    28     9     3   ar
    29    24    19   ar
    30    17    11   ar
    31     7    10    1
    32    28    29    1
    33    28    30    1
    34    15    18    1
@<TRIPOS>MOLECULE
*****
 32 34 0 0 0
SMALL
GASTEIGER

@<TRIPOS>ATOM
      1 C           4.0313   -2.4662   20.4616 C.2     1  UNL1       -0.0222
      2 C           5.0896   -2.0263   21.4294 C.2     1  UNL1       -0.0040
      3 C           5.2393   -0.5725   21.7674 C.ar    1  UNL1       -0.0001
      4 C           4.4840    0.0099   22.9251 C.ar    1  UNL1        0.0031
      5 C           4.6336    1.4636   23.2631 C.ar    1  UNL1        0.0366
      6 C           5.5387    2.3349   22.4435 C.ar    1  UNL1        0.1337
      7 O           5.6883    3.7886   22.7815 O.3     1  UNL1       -0.5055
      8 C           6.2940    1.7524   21.2858 C.ar    1  UNL1        0.0366
      9 C           6.1443    0.2987   20.9478 C.ar    1  UNL1        0.0031
     10 H           5.2165    4.1525   23.5047 H       1  UNL1        0.2922
     11 C           3.1227   -1.4522   19.8319 C.ar    1  UNL1       -0.0038
     12 C           1.8280   -1.0899   20.4970 C.ar    1  UNL1        0.0028
     13 C           0.9194   -0.0760   19.8674 C.ar    1  UNL1        0.0366
     14 C           1.3055    0.5755   18.5727 C.ar    1  UNL1        0.1337
     15 O           0.3969    1.5894   17.9430 O.3     1  UNL1       -0.5055
     16 C           2.6003    0.2131   17.9075 C.ar    1  UNL1        0.0366
     17 C           3.5089   -0.8007   18.5372 C.ar    1  UNL1        0.0028
     18 H          -0.4119    1.8158   18.3584 H       1  UNL1        0.2922
     19 C           5.9982   -3.0402   22.0591 C.ar    1  UNL1       -0.0001
     20 C           7.1919   -3.5478   21.3059 C.ar    1  UNL1        0.0031
     21 C           8.1005   -4.5617   21.9356 C.ar    1  UNL1        0.0369
     22 C           7.8154   -5.0679   23.3185 C.ar    1  UNL1        0.1386
     23 C           6.6217   -4.5602   24.0717 C.ar    1  UNL1        0.0369
     24 C           5.7131   -3.5464   23.4420 C.ar    1  UNL1        0.0031
     25 O           8.7240   -6.0817   23.9482 O.3     1  UNL1       -0.4740
     26 C           8.1581   -7.3584   24.4958 C.3     1  UNL1        0.2222
     27 C           7.9049   -7.4960   25.9679 C.3     1  UNL1        0.1131
     28 N           6.8734   -8.4655   26.4641 N.3     1  UNL1       -0.3180
     29 H           5.9482   -8.1631   26.1593 H       1  UNL1        0.1190
     30 H           6.9014   -8.4997   27.4831 H       1  UNL1        0.1190
     31 C           4.4946   -4.4648   18.8676 C.3     1  UNL1        0.0050
     32 C           3.8816   -3.9199   20.1235 C.3     1  UNL1        0.0264
@<TRIPOS>BOND
     1    31    32    1
     2    32     1    1
     3     1     2    2
     4     2     3    1
     5     3     4   ar
     6     4     5   ar
     7     5     6   ar
     8     6     7    1
     9     6     8   ar
    10     8     9   ar
    11     2    19    1
    12    19    20   ar
    13    20    21   ar
    14    21    22   ar
    15    22    25    1
    16    25    26    1
    17    26    27    1
    18    27    28    1
    19    22    23   ar
    20    23    24   ar
    21     1    11    1
    22    11    12   ar
    23    12    13   ar
    24    13    14   ar
    25    14    15    1
    26    14    16   ar
    27    16    17   ar
    28     9     3   ar
    29    24    19   ar
    30    17    11   ar
    31     7    10    1
    32    28    29    1
    33    28    30    1
    34    15    18    1
@<TRIPOS>MOLECULE
*****
 32 34 0 0 0
SMALL
GASTEIGER

@<TRIPOS>ATOM
      1 C           0.2313    3.2140   25.0739 C.2     1  UNL1       -0.0222
      2 C          -0.3960    3.1062   26.4321 C.2     1  UNL1       -0.0040
      3 C           0.1427    2.1256   27.4313 C.ar    1  UNL1       -0.0001
      4 C          -0.5466    0.8094   27.6371 C.ar    1  UNL1        0.0031
      5 C          -0.0080   -0.1712   28.6362 C.ar    1  UNL1        0.0366
      6 C           1.2199    0.1645   29.4296 C.ar    1  UNL1        0.1337
      7 O           1.7586   -0.8161   30.4288 O.3     1  UNL1       -0.5055
      8 C           1.9092    1.4807   29.2239 C.ar    1  UNL1        0.0366
      9 C           1.3706    2.4613   28.2247 C.ar    1  UNL1        0.0031
     10 H           1.3280   -1.6383   30.5573 H       1  UNL1        0.2922
     11 C           1.3972    2.3412   24.7148 C.ar    1  UNL1       -0.0038
     12 C           2.7963    2.8640   24.8535 C.ar    1  UNL1        0.0028
     13 C           3.9622    1.9913   24.4945 C.ar    1  UNL1        0.0366
     14 C           3.7290    0.5957   23.9967 C.ar    1  UNL1        0.1337
     15 O           4.8949   -0.2772   23.6376 O.3     1  UNL1       -0.5055
     16 C           2.3299    0.0728   23.8580 C.ar    1  UNL1        0.0366
     17 C           1.1640    0.9455   24.2170 C.ar    1  UNL1        0.0028
     18 H           5.7689    0.0494   23.7243 H       1  UNL1        0.2922
     19 C          -1.5618    3.9790   26.7912 C.ar    1  UNL1       -0.0001
     20 C          -1.3291    5.3163   27.4296 C.ar    1  UNL1        0.0031
     21 C          -2.4950    6.1891   27.7887 C.ar    1  UNL1        0.0369
     22 C          -3.8936    5.7246   27.5094 C.ar    1  UNL1        0.1386
     23 C          -4.1264    4.3873   26.8711 C.ar    1  UNL1        0.0369
     24 C          -2.9606    3.5145   26.5120 C.ar    1  UNL1        0.0031
     25 O          -5.0595    6.5973   27.8685 O.3     1  UNL1       -0.4740
     26 C          -6.4539    6.1660   27.5226 C.3     1  UNL1        0.2222
     27 C          -7.6081    6.6074   28.3729 C.3     1  UNL1        0.1131
     28 N          -8.0160    5.7932   29.5649 N.3     1  UNL1       -0.3180
     29 H          -8.3694    4.8884   29.2538 H       1  UNL1        0.1190
     30 H          -8.7470    6.2853   30.0787 H       1  UNL1        0.1190
     31 C          -1.3458    3.7610   23.0830 C.3     1  UNL1        0.0050
     32 C          -0.3073    4.1946   24.0747 C.3     1  UNL1        0.0264
@<TRIPOS>BOND
     1    31    32    1
     2    32     1    1
     3     1     2    2
     4     2     3    1
     5     3     4   ar
     6     4     5   ar
     7     5     6   ar
     8     6     7    1
     9     6     8   ar
    10     8     9   ar
    11     2    19    1
    12    19    20   ar
    13    20    21   ar
    14    21    22   ar
    15    22    25    1
    16    25    26    1
    17    26    27    1
    18    27    28    1
    19    22    23   ar
    20    23    24   ar
    21     1    11    1
    22    11    12   ar
    23    12    13   ar
    24    13    14   ar
    25    14    15    1
    26    14    16   ar
    27    16    17   ar
    28     9     3   ar
    29    24    19   ar
    30    17    11   ar
    31     7    10    1
    32    28    29    1
    33    28    30    1
    34    15    18    1
@<TRIPOS>MOLECULE
*****
 32 34 0 0 0
SMALL
GASTEIGER

@<TRIPOS>ATOM
      1 C           4.3061   -1.8355   20.5511 C.2     1  UNL1       -0.0222
      2 C           4.8034   -1.5216   21.9310 C.2     1  UNL1       -0.0040
      3 C           4.2650   -0.3322   22.6697 C.ar    1  UNL1       -0.0001
      4 C           4.8389    1.0304   22.4171 C.ar    1  UNL1        0.0031
      5 C           4.3005    2.2197   23.1558 C.ar    1  UNL1        0.0366
      6 C           3.1883    2.0463   24.1472 C.ar    1  UNL1        0.1337
      7 O           2.6499    3.2356   24.8859 O.3     1  UNL1       -0.5055
      8 C           2.6144    0.6837   24.3998 C.ar    1  UNL1        0.0366
      9 C           3.1527   -0.5056   23.6610 C.ar    1  UNL1        0.0031
     10 H           3.0084    4.0868   24.7281 H       1  UNL1        0.2922
     11 C           3.2704   -0.9601   19.9099 C.ar    1  UNL1       -0.0038
     12 C           3.6563   -0.0366   18.7927 C.ar    1  UNL1        0.0028
     13 C           2.6207    0.8388   18.1515 C.ar    1  UNL1        0.0366
     14 C           1.1991    0.7907   18.6276 C.ar    1  UNL1        0.1337
     15 O           0.1634    1.6661   17.9865 O.3     1  UNL1       -0.5055
     16 C           0.8131   -0.1328   19.7449 C.ar    1  UNL1        0.0366
     17 C           1.8488   -1.0082   20.3860 C.ar    1  UNL1        0.0028
     18 H           0.4044    2.2430   17.2886 H       1  UNL1        0.2922
     19 C           5.8391   -2.3969   22.5721 C.ar    1  UNL1       -0.0001
     20 C           5.4179   -3.5300   23.4602 C.ar    1  UNL1        0.0031
     21 C           6.4537   -4.4053   24.1014 C.ar    1  UNL1        0.0369
     22 C           7.9105   -4.1476   23.8544 C.ar    1  UNL1        0.1386
     23 C           8.3317   -3.0145   22.9664 C.ar    1  UNL1        0.0369
     24 C           7.2961   -2.1392   22.3252 C.ar    1  UNL1        0.0031
     25 O           8.9462   -5.0229   24.4956 O.3     1  UNL1       -0.4740
     26 C           8.6323   -6.4583   24.7977 C.3     1  UNL1        0.2222
     27 C           8.9285   -7.5208   23.7812 C.3     1  UNL1        0.1131
     28 N           8.7566   -7.2295   22.3198 N.3     1  UNL1       -0.3180
     29 H           7.7692   -7.0712   22.1186 H       1  UNL1        0.1190
     30 H           9.0921   -8.0226   21.7732 H       1  UNL1        0.1190
     31 C           3.9026   -3.9814   19.1431 C.3     1  UNL1        0.0050
     32 C           4.8444   -3.0248   19.8123 C.3     1  UNL1        0.0264
@<TRIPOS>BOND
     1    31    32    1
     2    32     1    1
     3     1     2    2
     4     2     3    1
     5     3     4   ar
     6     4     5   ar
     7     5     6   ar
     8     6     7    1
     9     6     8   ar
    10     8     9   ar
    11     2    19    1
    12    19    20   ar
    13    20    21   ar
    14    21    22   ar
    15    22    25    1
    16    25    26    1
    17    26    27    1
    18    27    28    1
    19    22    23   ar
    20    23    24   ar
    21     1    11    1
    22    11    12   ar
    23    12    13   ar
    24    13    14   ar
    25    14    15    1
    26    14    16   ar
    27    16    17   ar
    28     9     3   ar
    29    24    19   ar
    30    17    11   ar
    31     7    10    1
    32    28    29    1
    33    28    30    1
    34    15    18    1
@<TRIPOS>MOLECULE
*****
 32 34 0 0 0
SMALL
GASTEIGER

@<TRIPOS>ATOM
      1 C           7.0882   -3.9667   22.4505 C.2     1  UNL1       -0.0222
      2 C           6.7325   -3.2251   23.7050 C.2     1  UNL1       -0.0040
      3 C           5.8393   -2.0218   23.6372 C.ar    1  UNL1       -0.0001
      4 C           6.4299   -0.6610   23.4153 C.ar    1  UNL1        0.0031
      5 C           5.5368    0.5422   23.3476 C.ar    1  UNL1        0.0366
      6 C           4.0531    0.3846   23.5017 C.ar    1  UNL1        0.1337
      7 O           3.1600    1.5879   23.4340 O.3     1  UNL1       -0.5055
      8 C           3.4625   -0.9763   23.7237 C.ar    1  UNL1        0.0366
      9 C           4.3556   -2.1795   23.7914 C.ar    1  UNL1        0.0031
     10 H           3.5290    2.4379   23.2954 H       1  UNL1        0.2922
     11 C           6.5508   -3.5049   21.1284 C.ar    1  UNL1       -0.0038
     12 C           7.3479   -2.5539   20.2856 C.ar    1  UNL1        0.0028
     13 C           6.8105   -2.0922   18.9635 C.ar    1  UNL1        0.0366
     14 C           5.4761   -2.5814   18.4842 C.ar    1  UNL1        0.1337
     15 O           4.9387   -2.1197   17.1620 O.3     1  UNL1       -0.5055
     16 C           4.6790   -3.5324   19.3269 C.ar    1  UNL1        0.0366
     17 C           5.2163   -3.9942   20.6490 C.ar    1  UNL1        0.0028
     18 H           5.4366   -1.5256   16.6355 H       1  UNL1        0.2922
     19 C           7.2698   -3.6868   25.0271 C.ar    1  UNL1       -0.0001
     20 C           6.6072   -4.8210   25.7512 C.ar    1  UNL1        0.0031
     21 C           7.1446   -5.2827   27.0734 C.ar    1  UNL1        0.0369
     22 C           8.3446   -4.6102   27.6714 C.ar    1  UNL1        0.1386
     23 C           9.0072   -3.4759   26.9473 C.ar    1  UNL1        0.0369
     24 C           8.4699   -3.0142   25.6251 C.ar    1  UNL1        0.0031
     25 O           8.8819   -5.0718   28.9935 O.3     1  UNL1       -0.4740
     26 C           8.0605   -5.9781   29.8618 C.3     1  UNL1        0.2222
     27 C           7.0133   -5.4020   30.7682 C.3     1  UNL1        0.1131
     28 N           6.6521   -6.1085   32.0411 N.3     1  UNL1       -0.3180
     29 H           6.2139   -7.0029   31.8210 H       1  UNL1        0.1190
     30 H           6.0012   -5.5336   32.5762 H       1  UNL1        0.1190
     31 C           9.3983   -5.0803   22.0347 C.3     1  UNL1        0.0050
     32 C           7.9812   -5.1699   22.5182 C.3     1  UNL1        0.0264
@<TRIPOS>BOND
     1    31    32    1
     2    32     1    1
     3     1     2    2
     4     2     3    1
     5     3     4   ar
     6     4     5   ar
     7     5     6   ar
     8     6     7    1
     9     6     8   ar
    10     8     9   ar
    11     2    19    1
    12    19    20   ar
    13    20    21   ar
    14    21    22   ar
    15    22    25    1
    16    25    26    1
    17    26    27    1
    18    27    28    1
    19    22    23   ar
    20    23    24   ar
    21     1    11    1
    22    11    12   ar
    23    12    13   ar
    24    13    14   ar
    25    14    15    1
    26    14    16   ar
    27    16    17   ar
    28     9     3   ar
    29    24    19   ar
    30    17    11   ar
    31     7    10    1
    32    28    29    1
    33    28    30    1
    34    15    18    1
@<TRIPOS>MOLECULE
*****
 32 34 0 0 0
SMALL
GASTEIGER

@<TRIPOS>ATOM
      1 C           3.3250   -0.4584   22.7901 C.2     1  UNL1       -0.0222
      2 C           2.3317    0.6610   22.8913 C.2     1  UNL1       -0.0040
      3 C           1.7838    1.2924   21.6458 C.ar    1  UNL1       -0.0001
      4 C           0.5478    0.7354   21.0039 C.ar    1  UNL1        0.0031
      5 C          -0.0000    1.3668   19.7584 C.ar    1  UNL1        0.0366
      6 C           0.6881    2.5552   19.1549 C.ar    1  UNL1        0.1337
      7 O           0.1402    3.1866   17.9094 O.3     1  UNL1       -0.5055
      8 C           1.9240    3.1122   19.7969 C.ar    1  UNL1        0.0366
      9 C           2.4719    2.4808   21.0423 C.ar    1  UNL1        0.0031
     10 H          -0.6319    2.8387   17.5084 H       1  UNL1        0.2922
     11 C           3.7703   -0.9465   21.4434 C.ar    1  UNL1       -0.0038
     12 C           2.9685   -1.9877   20.7201 C.ar    1  UNL1        0.0028
     13 C           3.4139   -2.4757   19.3735 C.ar    1  UNL1        0.0366
     14 C           4.6610   -1.9225   18.7501 C.ar    1  UNL1        0.1337
     15 O           5.1063   -2.4105   17.4034 O.3     1  UNL1       -0.5055
     16 C           5.4627   -0.8813   19.4733 C.ar    1  UNL1        0.0366
     17 C           5.0174   -0.3933   20.8200 C.ar    1  UNL1        0.0028
     18 H           4.6055   -3.0609   16.9516 H       1  UNL1        0.2922
     19 C           1.8863    1.1490   24.2379 C.ar    1  UNL1       -0.0001
     20 C           0.4850    0.8873   24.7047 C.ar    1  UNL1        0.0031
     21 C           0.0396    1.3754   26.0514 C.ar    1  UNL1        0.0369
     22 C           0.9955    2.1251   26.9312 C.ar    1  UNL1        0.1386
     23 C           2.3968    2.3868   26.4644 C.ar    1  UNL1        0.0369
     24 C           2.8422    1.8988   25.1178 C.ar    1  UNL1        0.0031
     25 O           0.5502    2.6131   28.2778 O.3     1  UNL1       -0.4740
     26 C           0.4402    1.6529   29.4249 C.3     1  UNL1        0.2222
     27 C           1.6419    0.8710   29.8664 C.3     1  UNL1        0.1131
     28 N           1.5241   -0.6012   30.1280 N.3     1  UNL1       -0.3180
     29 H           0.9151   -0.7561   30.9315 H       1  UNL1        0.1190
     30 H           2.4481   -0.9870   30.3224 H       1  UNL1        0.1190
     31 C           4.6434   -2.3739   23.9488 C.3     1  UNL1        0.0050
     32 C           3.8729   -1.0899   24.0355 C.3     1  UNL1        0.0264
@<TRIPOS>BOND
     1    31    32    1
     2    32     1    1
     3     1     2    2
     4     2     3    1
     5     3     4   ar
     6     4     5   ar
     7     5     6   ar
     8     6     7    1
     9     6     8   ar
    10     8     9   ar
    11     2    19    1
    12    19    20   ar
    13    20    21   ar
    14    21    22   ar
    15    22    25    1
    16    25    26    1
    17    26    27    1
    18    27    28    1
    19    22    23   ar
    20    23    24   ar
    21     1    11    1
    22    11    12   ar
    23    12    13   ar
    24    13    14   ar
    25    14    15    1
    26    14    16   ar
    27    16    17   ar
    28     9     3   ar
    29    24    19   ar
    30    17    11   ar
    31     7    10    1
    32    28    29    1
    33    28    30    1
    34    15    18    1
@<TRIPOS>MOLECULE
*****
 32 34 0 0 0
SMALL
GASTEIGER

@<TRIPOS>ATOM
      1 C           7.2629   -4.9922   25.6965 C.2     1  UNL1       -0.0222
      2 C           6.8318   -3.7016   25.0652 C.2     1  UNL1       -0.0040
      3 C           6.6885   -2.4669   25.9050 C.ar    1  UNL1       -0.0001
      4 C           5.3761   -2.1537   26.5602 C.ar    1  UNL1        0.0031
      5 C           5.2329   -0.9191   27.3999 C.ar    1  UNL1        0.0366
      6 C           6.4021    0.0023   27.5844 C.ar    1  UNL1        0.1337
      7 O           6.2588    1.2369   28.4242 O.3     1  UNL1       -0.5055
      8 C           7.7145   -0.3109   26.9292 C.ar    1  UNL1        0.0366
      9 C           7.8577   -1.5455   26.0894 C.ar    1  UNL1        0.0031
     10 H           5.4390    1.4326   28.8335 H       1  UNL1        0.2922
     11 C           7.5506   -5.0481   27.1677 C.ar    1  UNL1       -0.0038
     12 C           6.4534   -5.3822   28.1343 C.ar    1  UNL1        0.0028
     13 C           6.7411   -5.4381   29.6054 C.ar    1  UNL1        0.0366
     14 C           8.1261   -5.1599   30.1098 C.ar    1  UNL1        0.1337
     15 O           8.4139   -5.2158   31.5809 O.3     1  UNL1       -0.5055
     16 C           9.2233   -4.8258   29.1431 C.ar    1  UNL1        0.0366
     17 C           8.9356   -4.7699   27.6721 C.ar    1  UNL1        0.0028
     18 H           7.7285   -5.4245   32.1848 H       1  UNL1        0.2922
     19 C           6.5440   -3.6456   23.5942 C.ar    1  UNL1       -0.0001
     20 C           7.6750   -3.6165   22.6092 C.ar    1  UNL1        0.0031
     21 C           7.3872   -3.5605   21.1381 C.ar    1  UNL1        0.0369
     22 C           5.9684   -3.5337   20.6520 C.ar    1  UNL1        0.1386
     23 C           4.8374   -3.5629   21.6369 C.ar    1  UNL1        0.0369
     24 C           5.1252   -3.6188   23.1079 C.ar    1  UNL1        0.0031
     25 O           5.6806   -3.4778   19.1810 O.3     1  UNL1       -0.4740
     26 C           4.4940   -2.7108   18.6775 C.3     1  UNL1        0.2222
     27 C           4.6911   -1.5451   17.7541 C.3     1  UNL1        0.1131
     28 N           3.8715   -1.4326   16.5029 N.3     1  UNL1       -0.3180
     29 H           4.1120   -2.1949   15.8692 H       1  UNL1        0.1190
     30 H           4.0645   -0.5397   16.0492 H       1  UNL1        0.1190
     31 C           7.7117   -7.5441   25.5060 C.3     1  UNL1        0.0050
     32 C           7.4061   -6.2268   24.8568 C.3     1  UNL1        0.0264
@<TRIPOS>BOND
     1    31    32    1
     2    32     1    1
     3     1     2    2
     4     2     3    1
     5     3     4   ar
     6     4     5   ar
     7     5     6   ar
     8     6     7    1
     9     6     8   ar
    10     8     9   ar
    11     2    19    1
    12    19    20   ar
    13    20    21   ar
    14    21    22   ar
    15    22    25    1
    16    25    26    1
    17    26    27    1
    18    27    28    1
    19    22    23   ar
    20    23    24   ar
    21     1    11    1
    22    11    12   ar
    23    12    13   ar
    24    13    14   ar
    25    14    15    1
    26    14    16   ar
    27    16    17   ar
    28     9     3   ar
    29    24    19   ar
    30    17    11   ar
    31     7    10    1
    32    28    29    1
    33    28    30    1
    34    15    18    1
@<TRIPOS>MOLECULE
*****
 32 34 0 0 0
SMALL
GASTEIGER

@<TRIPOS>ATOM
      1 C         -15.5927   -2.9560   17.6614 C.2     1  UNL1       -0.0222
      2 C         -15.1693   -4.3867   17.8156 C.2     1  UNL1       -0.0040
      3 C         -13.7121   -4.7426   17.8078 C.ar    1  UNL1       -0.0001
      4 C         -12.9025   -4.6167   19.0643 C.ar    1  UNL1        0.0031
      5 C         -11.4454   -4.9726   19.0564 C.ar    1  UNL1        0.0366
      6 C         -10.7978   -5.4544   17.7921 C.ar    1  UNL1        0.1337
      7 O          -9.3406   -5.8103   17.7843 O.3     1  UNL1       -0.5055
      8 C         -11.6073   -5.5802   16.5356 C.ar    1  UNL1        0.0366
      9 C         -13.0645   -5.2243   16.5435 C.ar    1  UNL1        0.0031
     10 H          -8.8349   -5.7316   18.5692 H       1  UNL1        0.2922
     11 C         -14.5589   -1.8812   17.4994 C.ar    1  UNL1       -0.0038
     12 C         -14.1424   -1.0569   18.6814 C.ar    1  UNL1        0.0028
     13 C         -13.1087    0.0179   18.5194 C.ar    1  UNL1        0.0366
     14 C         -12.4915    0.2684   17.1755 C.ar    1  UNL1        0.1337
     15 O         -11.4577    1.3432   17.0135 O.3     1  UNL1       -0.5055
     16 C         -12.9080   -0.5559   15.9935 C.ar    1  UNL1        0.0366
     17 C         -13.9417   -1.6307   16.1554 C.ar    1  UNL1        0.0028
     18 H         -11.1975    1.8581   17.7518 H       1  UNL1        0.2922
     19 C         -16.2029   -5.4615   17.9776 C.ar    1  UNL1       -0.0001
     20 C         -16.6688   -5.8535   19.3485 C.ar    1  UNL1        0.0031
     21 C         -17.7025   -6.9284   19.5105 C.ar    1  UNL1        0.0369
     22 C         -18.2704   -7.6111   18.3016 C.ar    1  UNL1        0.1386
     23 C         -17.8045   -7.2191   16.9307 C.ar    1  UNL1        0.0369
     24 C         -16.7708   -6.1443   16.7687 C.ar    1  UNL1        0.0031
     25 O         -19.3040   -8.6859   18.4636 O.3     1  UNL1       -0.4740
     26 C         -18.8807  -10.0981   18.7400 C.3     1  UNL1        0.2222
     27 C         -17.4744  -10.5305   18.4473 C.3     1  UNL1        0.1131
     28 N         -16.9598  -11.8289   18.9942 N.3     1  UNL1       -0.3180
     29 H         -16.9134  -11.7747   20.0117 H       1  UNL1        0.1190
     30 H         -16.0281  -12.0098   18.6206 H       1  UNL1        0.1190
     31 C         -17.6147   -1.7282   16.5872 C.3     1  UNL1        0.0050
     32 C         -17.0498   -2.6001   17.6692 C.3     1  UNL1        0.0264
@<TRIPOS>BOND
     1    31    32    1
     2    32     1    1
     3     1     2    2
     4     2     3    1
     5     3     4   ar
     6     4     5   ar
     7     5     6   ar
     8     6     7    1
     9     6     8   ar
    10     8     9   ar
    11     2    19    1
    12    19    20   ar
    13    20    21   ar
    14    21    22   ar
    15    22    25    1
    16    25    26    1
    17    26    27    1
    18    27    28    1
    19    22    23   ar
    20    23    24   ar
    21     1    11    1
    22    11    12   ar
    23    12    13   ar
    24    13    14   ar
    25    14    15    1
    26    14    16   ar
    27    16    17   ar
    28     9     3   ar
    29    24    19   ar
    30    17    11   ar
    31     7    10    1
    32    28    29    1
    33    28    30    1
    34    15    18    1
