@<TRIPOS>MOLECULE
*****
 30 33 0 0 0
SMALL
GASTEIGER

@<TRIPOS>ATOM
      1 N          -7.4307  -17.7068   22.4592 N.ar    1  UNL1       -0.2915
      2 C          -8.4374  -18.0345   21.3966 C.ar    1  UNL1        0.1658
      3 N          -7.7187  -18.7204   20.2728 N.ar    1  UNL1       -0.2282
      4 C          -6.2677  -18.8167   20.6409 C.ar    1  UNL1        0.0885
      5 C          -6.0897  -18.1903   21.9921 C.ar    1  UNL1        0.0573
      6 C          -8.5678  -14.9470   27.6641 C.3     1  UNL1        0.0521
      7 C          -8.2835  -15.6370   26.3629 C.ar    1  UNL1        0.0595
      8 C          -8.8672  -16.9913   26.0889 C.ar    1  UNL1        0.0162
      9 C          -8.5829  -17.6812   24.7876 C.ar    1  UNL1        0.0203
     10 C          -7.7149  -17.0169   23.7604 C.ar    1  UNL1        0.0842
     11 C          -7.1313  -15.6626   24.0344 C.ar    1  UNL1        0.1159
     12 N          -7.4156  -14.9726   25.3356 N.ar    1  UNL1       -0.2466
     13 C          -9.9052  -17.7297   21.4486 C.ar    1  UNL1        0.1261
     14 N         -10.4273  -16.4523   20.8604 N.ar    1  UNL1       -0.2399
     15 C         -11.8951  -16.1475   20.9125 C.ar    1  UNL1        0.0990
     16 C         -12.8408  -17.1200   21.5526 C.ar    1  UNL1        0.0215
     17 C         -12.3187  -18.3973   22.1408 C.ar    1  UNL1        0.0146
     18 C         -10.8509  -18.7021   22.0888 C.ar    1  UNL1        0.0783
     19 CL        -10.3289  -19.9795   22.6770 Cl      1  UNL1       -0.0806
     20 C          -4.7976  -18.0687   22.7443 C.3     1  UNL1        0.0400
     21 C          -3.9778  -19.2919   23.0294 C.3     1  UNL1        0.0063
     22 C          -4.3254  -16.7236   23.2113 C.3     1  UNL1        0.0063
     23 C          -5.1849  -19.4315   19.8045 C.3     1  UNL1        0.1163
     24 N          -4.2459  -18.5545   19.0304 N.3     1  UNL1       -0.2935
     25 H          -4.7201  -17.6614   18.8964 H       1  UNL1        0.1236
     26 C          -2.8850  -18.2441   19.5795 C.3     1  UNL1        0.0543
     27 C          -2.2344  -16.8929   19.6118 C.3     1  UNL1        0.0157
     28 C          -0.8831  -17.0441   20.2450 C.3     1  UNL1        0.0014
     29 C          -0.6984  -18.4889   20.6040 C.3     1  UNL1        0.0014
     30 C          -1.9358  -19.2304   20.1927 C.3     1  UNL1        0.0157
@<TRIPOS>BOND
     1     6     7    1
     2     7     8   ar
     3     8     9   ar
     4     9    10   ar
     5    10     1    1
     6     1     2   ar
     7     2    13    1
     8    13    14   ar
     9    14    15   ar
    10    15    16   ar
    11    16    17   ar
    12    17    18   ar
    13    18    19    1
    14     2     3   ar
    15     3     4   ar
    16     4    23    1
    17    23    24    1
    18    24    26    1
    19    26    27    1
    20    27    28    1
    21    28    29    1
    22    29    30    1
    23     4     5   ar
    24     5    20    1
    25    20    21    1
    26    20    22    1
    27    10    11   ar
    28    11    12   ar
    29    12     7   ar
    30     5     1   ar
    31    18    13   ar
    32    30    26    1
    33    24    25    1
@<TRIPOS>MOLECULE
*****
 30 33 0 0 0
SMALL
GASTEIGER

@<TRIPOS>ATOM
      1 N          -8.3761  -18.1470   22.2052 N.ar    1  UNL1       -0.2915
      2 C          -7.1917  -17.5554   22.9103 C.ar    1  UNL1        0.1658
      3 N          -5.9695  -17.8532   22.0932 N.ar    1  UNL1       -0.2282
      4 C          -6.3986  -18.6289   20.8832 C.ar    1  UNL1        0.0885
      5 C          -7.8859  -18.8105   20.9524 C.ar    1  UNL1        0.0573
      6 C         -14.0740  -17.9027   24.0691 C.3     1  UNL1        0.0521
      7 C         -12.6496  -17.9638   23.6032 C.ar    1  UNL1        0.0595
      8 C         -11.8087  -19.1656   23.9169 C.ar    1  UNL1        0.0162
      9 C         -10.3842  -19.2267   23.4509 C.ar    1  UNL1        0.0203
     10 C          -9.8006  -18.0860   22.6712 C.ar    1  UNL1        0.0842
     11 C         -10.6415  -16.8841   22.3575 C.ar    1  UNL1        0.1159
     12 N         -12.0659  -16.8230   22.8234 N.ar    1  UNL1       -0.2466
     13 C          -7.2238  -16.7988   24.2051 C.ar    1  UNL1        0.1261
     14 N          -8.4361  -16.8700   25.0856 N.ar    1  UNL1       -0.2399
     15 C          -8.4682  -16.1134   26.3804 C.ar    1  UNL1        0.0990
     16 C          -7.2880  -15.2855   26.7947 C.ar    1  UNL1        0.0215
     17 C          -6.0757  -15.2142   25.9142 C.ar    1  UNL1        0.0146
     18 C          -6.0436  -15.9709   24.6194 C.ar    1  UNL1        0.0783
     19 CL         -4.8312  -15.8995   23.7390 Cl      1  UNL1       -0.0806
     20 C          -8.7342  -19.5294   19.9456 C.3     1  UNL1        0.0400
     21 C          -8.2023  -20.7468   19.2493 C.3     1  UNL1        0.0063
     22 C         -10.1145  -19.0308   19.6351 C.3     1  UNL1        0.0063
     23 C          -5.4984  -19.1343   19.7949 C.3     1  UNL1        0.1163
     24 N          -4.5333  -18.2009   19.1260 N.3     1  UNL1       -0.2935
     25 H          -4.9067  -17.2588   19.2414 H       1  UNL1        0.1236
     26 C          -3.1017  -18.1568   19.5715 C.3     1  UNL1        0.0543
     27 C          -1.9178  -17.8444   18.7049 C.3     1  UNL1        0.0157
     28 C          -0.6870  -17.9118   19.5597 C.3     1  UNL1        0.0014
     29 C          -1.1102  -18.2659   20.9546 C.3     1  UNL1        0.0014
     30 C          -2.6025  -18.4172   20.9618 C.3     1  UNL1        0.0157
@<TRIPOS>BOND
     1     6     7    1
     2     7     8   ar
     3     8     9   ar
     4     9    10   ar
     5    10     1    1
     6     1     2   ar
     7     2    13    1
     8    13    14   ar
     9    14    15   ar
    10    15    16   ar
    11    16    17   ar
    12    17    18   ar
    13    18    19    1
    14     2     3   ar
    15     3     4   ar
    16     4    23    1
    17    23    24    1
    18    24    26    1
    19    26    27    1
    20    27    28    1
    21    28    29    1
    22    29    30    1
    23     4     5   ar
    24     5    20    1
    25    20    21    1
    26    20    22    1
    27    10    11   ar
    28    11    12   ar
    29    12     7   ar
    30     5     1   ar
    31    18    13   ar
    32    30    26    1
    33    24    25    1
@<TRIPOS>MOLECULE
*****
 30 33 0 0 0
SMALL
GASTEIGER

@<TRIPOS>ATOM
      1 N          -8.6503  -17.3488   23.2570 N.ar    1  UNL1       -0.2915
      2 C          -7.8728  -17.8461   22.0745 C.ar    1  UNL1        0.1658
      3 N          -6.4527  -17.3880   22.2275 N.ar    1  UNL1       -0.2282
      4 C          -6.3524  -16.6076   23.5046 C.ar    1  UNL1        0.0885
      5 C          -7.7106  -16.5835   24.1409 C.ar    1  UNL1        0.0573
      6 C         -14.4928  -18.2613   24.2730 C.3     1  UNL1        0.0521
      7 C         -13.0322  -18.0332   24.0190 C.ar    1  UNL1        0.0595
      8 C         -12.5939  -16.9345   23.0967 C.ar    1  UNL1        0.0162
      9 C         -11.1333  -16.7063   22.8427 C.ar    1  UNL1        0.0203
     10 C         -10.1109  -17.5769   23.5110 C.ar    1  UNL1        0.0842
     11 C         -10.5491  -18.6756   24.4333 C.ar    1  UNL1        0.1159
     12 N         -12.0098  -18.9037   24.6873 N.ar    1  UNL1       -0.2466
     13 C          -8.4195  -18.6587   20.9384 C.ar    1  UNL1        0.1261
     14 N          -9.7950  -18.3785   20.4095 N.ar    1  UNL1       -0.2399
     15 C         -10.3416  -19.1912   19.2734 C.ar    1  UNL1        0.0990
     16 C          -9.5129  -20.2840   18.6661 C.ar    1  UNL1        0.0215
     17 C          -8.1374  -20.5642   19.1949 C.ar    1  UNL1        0.0146
     18 C          -7.5908  -19.7515   20.3310 C.ar    1  UNL1        0.0783
     19 CL         -6.2153  -20.0318   20.8598 Cl      1  UNL1       -0.0806
     20 C          -8.0666  -15.9118   25.4340 C.3     1  UNL1        0.0400
     21 C          -9.1452  -14.8699   25.4659 C.3     1  UNL1        0.0063
     22 C          -7.3440  -16.2820   26.6953 C.3     1  UNL1        0.0063
     23 C          -5.1119  -15.9644   24.0498 C.3     1  UNL1        0.1163
     24 N          -4.0092  -15.5537   23.1196 N.3     1  UNL1       -0.2935
     25 H          -3.4123  -14.9085   23.6372 H       1  UNL1        0.1236
     26 C          -3.1074  -16.5920   22.5208 C.3     1  UNL1        0.0543
     27 C          -3.0607  -18.0429   22.8984 C.3     1  UNL1        0.0157
     28 C          -2.0185  -18.7094   22.0501 C.3     1  UNL1        0.0014
     29 C          -1.4209  -17.6703   21.1482 C.3     1  UNL1        0.0014
     30 C          -2.0940  -16.3617   21.4392 C.3     1  UNL1        0.0157
@<TRIPOS>BOND
     1     6     7    1
     2     7     8   ar
     3     8     9   ar
     4     9    10   ar
     5    10     1    1
     6     1     2   ar
     7     2    13    1
     8    13    14   ar
     9    14    15   ar
    10    15    16   ar
    11    16    17   ar
    12    17    18   ar
    13    18    19    1
    14     2     3   ar
    15     3     4   ar
    16     4    23    1
    17    23    24    1
    18    24    26    1
    19    26    27    1
    20    27    28    1
    21    28    29    1
    22    29    30    1
    23     4     5   ar
    24     5    20    1
    25    20    21    1
    26    20    22    1
    27    10    11   ar
    28    11    12   ar
    29    12     7   ar
    30     5     1   ar
    31    18    13   ar
    32    30    26    1
    33    24    25    1
@<TRIPOS>MOLECULE
*****
 30 33 0 0 0
SMALL
GASTEIGER

@<TRIPOS>ATOM
      1 N         -14.1106   -4.3297   18.4854 N.ar    1  UNL1       -0.2915
      2 C         -13.7152   -5.7629   18.6847 C.ar    1  UNL1        0.1658
      3 N         -14.9385   -6.5288   19.0933 N.ar    1  UNL1       -0.2282
      4 C         -16.0900   -5.5690   19.1465 C.ar    1  UNL1        0.0885
      5 C         -15.5783   -4.2099   18.7707 C.ar    1  UNL1        0.0573
      6 C         -10.4621    0.1389   16.8360 C.3     1  UNL1        0.0521
      7 C         -11.3743   -0.9783   17.2484 C.ar    1  UNL1        0.0595
      8 C         -11.6317   -1.2383   18.7030 C.ar    1  UNL1        0.0162
      9 C         -12.5438   -2.3554   19.1154 C.ar    1  UNL1        0.0203
     10 C         -13.1985   -3.2126   18.0730 C.ar    1  UNL1        0.0842
     11 C         -12.9411   -2.9526   16.6184 C.ar    1  UNL1        0.1159
     12 N         -12.0290   -1.8355   16.2060 N.ar    1  UNL1       -0.2466
     13 C         -12.3382   -6.3305   18.5068 C.ar    1  UNL1        0.1261
     14 N         -11.1840   -5.7522   19.2708 N.ar    1  UNL1       -0.2399
     15 C          -9.8070   -6.3198   19.0929 C.ar    1  UNL1        0.0990
     16 C          -9.5841   -7.4657   18.1509 C.ar    1  UNL1        0.0215
     17 C         -10.7382   -8.0439   17.3869 C.ar    1  UNL1        0.0146
     18 C         -12.1152   -7.4763   17.5648 C.ar    1  UNL1        0.0783
     19 CL        -13.2692   -8.0546   16.8007 Cl      1  UNL1       -0.0806
     20 C         -16.3916   -2.9519   18.6939 C.3     1  UNL1        0.0400
     21 C         -17.3505   -2.7468   17.5588 C.3     1  UNL1        0.0063
     22 C         -16.2461   -1.8988   19.7522 C.3     1  UNL1        0.0063
     23 C         -17.5048   -5.9086   19.5113 C.3     1  UNL1        0.1163
     24 N         -18.3022   -6.8342   18.6410 N.3     1  UNL1       -0.2935
     25 H         -18.1601   -6.5287   17.6783 H       1  UNL1        0.1236
     26 C         -18.0333   -8.3096   18.6713 C.3     1  UNL1        0.0543
     27 C         -18.4383   -9.3013   17.6213 C.3     1  UNL1        0.0157
     28 C         -17.9675  -10.6570   18.0579 C.3     1  UNL1        0.0014
     29 C         -17.2715  -10.5030   19.3778 C.3     1  UNL1        0.0014
     30 C         -17.3122   -9.0522   19.7568 C.3     1  UNL1        0.0157
@<TRIPOS>BOND
     1     6     7    1
     2     7     8   ar
     3     8     9   ar
     4     9    10   ar
     5    10     1    1
     6     1     2   ar
     7     2    13    1
     8    13    14   ar
     9    14    15   ar
    10    15    16   ar
    11    16    17   ar
    12    17    18   ar
    13    18    19    1
    14     2     3   ar
    15     3     4   ar
    16     4    23    1
    17    23    24    1
    18    24    26    1
    19    26    27    1
    20    27    28    1
    21    28    29    1
    22    29    30    1
    23     4     5   ar
    24     5    20    1
    25    20    21    1
    26    20    22    1
    27    10    11   ar
    28    11    12   ar
    29    12     7   ar
    30     5     1   ar
    31    18    13   ar
    32    30    26    1
    33    24    25    1
@<TRIPOS>MOLECULE
*****
 30 33 0 0 0
SMALL
GASTEIGER

@<TRIPOS>ATOM
      1 N          -6.9786  -18.7864   21.3524 N.ar    1  UNL1       -0.2915
      2 C          -7.7085  -17.9331   22.3469 C.ar    1  UNL1        0.1658
      3 N          -9.1749  -18.2207   22.2167 N.ar    1  UNL1       -0.2282
      4 C          -9.3513  -19.2518   21.1417 C.ar    1  UNL1        0.0885
      5 C          -7.9939  -19.6014   20.6076 C.ar    1  UNL1        0.0573
      6 C          -1.0405  -18.9166   20.5030 C.3     1  UNL1        0.0521
      7 C          -2.5250  -18.8840   20.7153 C.ar    1  UNL1        0.0595
      8 C          -3.1115  -19.4075   21.9928 C.ar    1  UNL1        0.0162
      9 C          -4.5961  -19.3749   22.2051 C.ar    1  UNL1        0.0203
     10 C          -5.4941  -18.8189   21.1401 C.ar    1  UNL1        0.0842
     11 C          -4.9075  -18.2955   19.8626 C.ar    1  UNL1        0.1159
     12 N          -3.4230  -18.3280   19.6503 N.ar    1  UNL1       -0.2466
     13 C          -7.0820  -16.9625   23.3037 C.ar    1  UNL1        0.1261
     14 N          -5.6615  -16.5237   23.1043 N.ar    1  UNL1       -0.2399
     15 C          -5.0350  -15.5531   24.0611 C.ar    1  UNL1        0.0990
     16 C          -5.8290  -15.0212   25.2173 C.ar    1  UNL1        0.0215
     17 C          -7.2494  -15.4600   25.4167 C.ar    1  UNL1        0.0146
     18 C          -7.8759  -16.4306   24.4599 C.ar    1  UNL1        0.0783
     19 CL         -9.2964  -16.8694   24.6594 Cl      1  UNL1       -0.0806
     20 C          -7.7029  -20.5921   19.5195 C.3     1  UNL1        0.0400
     21 C          -6.5782  -21.5717   19.6782 C.3     1  UNL1        0.0063
     22 C          -8.5369  -20.6033   18.2726 C.3     1  UNL1        0.0063
     23 C         -10.6560  -19.8316   20.6816 C.3     1  UNL1        0.1163
     24 N         -11.8277  -18.9311   20.4244 N.3     1  UNL1       -0.2935
     25 H         -12.6397  -19.5345   20.2937 H       1  UNL1        0.1236
     26 C         -12.2156  -17.8968   21.4390 C.3     1  UNL1        0.0543
     27 C         -12.1184  -16.4102   21.2643 C.3     1  UNL1        0.0157
     28 C         -12.6115  -15.7621   22.5239 C.3     1  UNL1        0.0014
     29 C         -13.0136  -16.8482   23.4773 C.3     1  UNL1        0.0014
     30 C         -12.7689  -18.1675   22.8067 C.3     1  UNL1        0.0157
@<TRIPOS>BOND
     1     6     7    1
     2     7     8   ar
     3     8     9   ar
     4     9    10   ar
     5    10     1    1
     6     1     2   ar
     7     2    13    1
     8    13    14   ar
     9    14    15   ar
    10    15    16   ar
    11    16    17   ar
    12    17    18   ar
    13    18    19    1
    14     2     3   ar
    15     3     4   ar
    16     4    23    1
    17    23    24    1
    18    24    26    1
    19    26    27    1
    20    27    28    1
    21    28    29    1
    22    29    30    1
    23     4     5   ar
    24     5    20    1
    25    20    21    1
    26    20    22    1
    27    10    11   ar
    28    11    12   ar
    29    12     7   ar
    30     5     1   ar
    31    18    13   ar
    32    30    26    1
    33    24    25    1
@<TRIPOS>MOLECULE
*****
 30 33 0 0 0
SMALL
GASTEIGER

@<TRIPOS>ATOM
      1 N           3.3044   -0.7273   22.6236 N.ar    1  UNL1       -0.2915
      2 C           4.1370   -1.9630   22.4514 C.ar    1  UNL1        0.1658
      3 N           4.6177   -2.3908   23.8064 N.ar    1  UNL1       -0.2282
      4 C           4.0821   -1.4194   24.8161 C.ar    1  UNL1        0.0885
      5 C           3.2705   -0.3913   24.0851 C.ar    1  UNL1        0.0573
      6 C           0.5869    2.3343   18.2371 C.3     1  UNL1        0.0521
      7 C           1.2663    1.5689   19.3337 C.ar    1  UNL1        0.0595
      8 C           0.7508    0.2192   19.7369 C.ar    1  UNL1        0.0162
      9 C           1.4302   -0.5462   20.8336 C.ar    1  UNL1        0.0203
     10 C           2.6250    0.0381   21.5270 C.ar    1  UNL1        0.0842
     11 C           3.1405    1.3878   21.1238 C.ar    1  UNL1        0.1159
     12 N           2.4611    2.1532   20.0271 N.ar    1  UNL1       -0.2466
     13 C           4.4365   -2.6503   21.1522 C.ar    1  UNL1        0.1261
     14 N           3.7903   -3.9660   20.8334 N.ar    1  UNL1       -0.2399
     15 C           4.0897   -4.6534   19.5342 C.ar    1  UNL1        0.0990
     16 C           5.0353   -4.0251   18.5538 C.ar    1  UNL1        0.0215
     17 C           5.6814   -2.7095   18.8726 C.ar    1  UNL1        0.0146
     18 C           5.3820   -2.0222   20.1718 C.ar    1  UNL1        0.0783
     19 CL          6.0282   -0.7065   20.4905 Cl      1  UNL1       -0.0806
     20 C           2.5512    0.7690   24.7066 C.3     1  UNL1        0.0400
     21 C           1.0558    0.7497   24.8224 C.3     1  UNL1        0.0063
     22 C           3.3273    1.9489   25.2124 C.3     1  UNL1        0.0063
     23 C           4.3169   -1.4676   26.2968 C.3     1  UNL1        0.1163
     24 N           3.1612   -1.6592   27.2337 N.3     1  UNL1       -0.2935
     25 H           3.3982   -2.4472   27.8364 H       1  UNL1        0.1236
     26 C           2.7321   -0.5391   28.1342 C.3     1  UNL1        0.0543
     27 C           3.5923    0.5994   28.5966 C.3     1  UNL1        0.0157
     28 C           2.7592    1.4815   29.4786 C.3     1  UNL1        0.0014
     29 C           1.3840    0.8881   29.5613 C.3     1  UNL1        0.0014
     30 C           1.3673   -0.3607   28.7304 C.3     1  UNL1        0.0157
@<TRIPOS>BOND
     1     6     7    1
     2     7     8   ar
     3     8     9   ar
     4     9    10   ar
     5    10     1    1
     6     1     2   ar
     7     2    13    1
     8    13    14   ar
     9    14    15   ar
    10    15    16   ar
    11    16    17   ar
    12    17    18   ar
    13    18    19    1
    14     2     3   ar
    15     3     4   ar
    16     4    23    1
    17    23    24    1
    18    24    26    1
    19    26    27    1
    20    27    28    1
    21    28    29    1
    22    29    30    1
    23     4     5   ar
    24     5    20    1
    25    20    21    1
    26    20    22    1
    27    10    11   ar
    28    11    12   ar
    29    12     7   ar
    30     5     1   ar
    31    18    13   ar
    32    30    26    1
    33    24    25    1
@<TRIPOS>MOLECULE
*****
 30 33 0 0 0
SMALL
GASTEIGER

@<TRIPOS>ATOM
      1 N           4.0026    0.7757   33.4968 N.ar    1  UNL1       -0.2915
      2 C           2.7694    1.6270   33.4307 C.ar    1  UNL1        0.1658
      3 N           2.0071    1.2438   32.1970 N.ar    1  UNL1       -0.2282
      4 C           2.7693    0.1556   31.5005 C.ar    1  UNL1        0.0885
      5 C           4.0025   -0.1336   32.3039 C.ar    1  UNL1        0.0573
      6 C           8.1991    0.9734   37.7805 C.3     1  UNL1        0.0521
      7 C           7.1500    0.9240   36.7096 C.ar    1  UNL1        0.0595
      8 C           6.1421   -0.1868   36.6977 C.ar    1  UNL1        0.0162
      9 C           5.0930   -0.2362   35.6268 C.ar    1  UNL1        0.0203
     10 C           5.0518    0.8252   34.5677 C.ar    1  UNL1        0.0842
     11 C           6.0596    1.9360   34.5796 C.ar    1  UNL1        0.1159
     12 N           7.1087    1.9854   35.6505 N.ar    1  UNL1       -0.2466
     13 C           2.3687    2.6773   34.4239 C.ar    1  UNL1        0.1261
     14 N           2.3337    2.3508   35.8876 N.ar    1  UNL1       -0.2399
     15 C           1.9331    3.4010   36.8809 C.ar    1  UNL1        0.0990
     16 C           1.5674    4.7776   36.4105 C.ar    1  UNL1        0.0215
     17 C           1.6023    5.1040   34.9469 C.ar    1  UNL1        0.0146
     18 C           2.0030    4.0538   33.9536 C.ar    1  UNL1        0.0783
     19 CL          2.0379    4.3803   32.4900 Cl      1  UNL1       -0.0806
     20 C           5.0516   -1.1533   31.9725 C.3     1  UNL1        0.0400
     21 C           5.0204   -2.5019   32.6283 C.3     1  UNL1        0.0063
     22 C           6.1319   -0.8243   30.9851 C.3     1  UNL1        0.0063
     23 C           2.3685   -0.5240   30.2248 C.3     1  UNL1        0.1163
     24 N           0.9279   -0.5467   29.8075 N.3     1  UNL1       -0.2935
     25 H           0.3730   -0.5139   30.6628 H       1  UNL1        0.1236
     26 C           0.3923    0.5231   28.9028 C.3     1  UNL1        0.0543
     27 C          -0.9826    0.5650   28.3045 C.3     1  UNL1        0.0157
     28 C          -1.0871    1.8067   27.4694 C.3     1  UNL1        0.0014
     29 C           0.2233    2.5322   27.5515 C.3     1  UNL1        0.0014
     30 C           1.1376    1.7388   28.4374 C.3     1  UNL1        0.0157
@<TRIPOS>BOND
     1     6     7    1
     2     7     8   ar
     3     8     9   ar
     4     9    10   ar
     5    10     1    1
     6     1     2   ar
     7     2    13    1
     8    13    14   ar
     9    14    15   ar
    10    15    16   ar
    11    16    17   ar
    12    17    18   ar
    13    18    19    1
    14     2     3   ar
    15     3     4   ar
    16     4    23    1
    17    23    24    1
    18    24    26    1
    19    26    27    1
    20    27    28    1
    21    28    29    1
    22    29    30    1
    23     4     5   ar
    24     5    20    1
    25    20    21    1
    26    20    22    1
    27    10    11   ar
    28    11    12   ar
    29    12     7   ar
    30     5     1   ar
    31    18    13   ar
    32    30    26    1
    33    24    25    1
@<TRIPOS>MOLECULE
*****
 30 33 0 0 0
SMALL
GASTEIGER

@<TRIPOS>ATOM
      1 N         -15.4740   -5.1660   18.5951 N.ar    1  UNL1       -0.2915
      2 C         -16.8223   -5.7942   18.7881 C.ar    1  UNL1        0.1658
      3 N         -17.8107   -4.6979   19.0550 N.ar    1  UNL1       -0.2282
      4 C         -17.0731   -3.3920   19.0269 C.ar    1  UNL1        0.0885
      5 C         -15.6290   -3.6813   18.7427 C.ar    1  UNL1        0.0573
      6 C         -10.3587   -8.0800   17.4363 C.3     1  UNL1        0.0521
      7 C         -11.6375   -7.3515   17.7260 C.ar    1  UNL1        0.0595
      8 C         -11.8780   -6.7710   19.0880 C.ar    1  UNL1        0.0162
      9 C         -13.1568   -6.0425   19.3777 C.ar    1  UNL1        0.0203
     10 C         -14.1951   -5.8945   18.3054 C.ar    1  UNL1        0.0842
     11 C         -13.9547   -6.4750   16.9434 C.ar    1  UNL1        0.1159
     12 N         -12.6759   -7.2035   16.6537 N.ar    1  UNL1       -0.2466
     13 C         -17.1286   -7.2613   18.7253 C.ar    1  UNL1        0.1261
     14 N         -16.7643   -8.1534   19.8749 N.ar    1  UNL1       -0.2399
     15 C         -17.0706   -9.6205   19.8120 C.ar    1  UNL1        0.0990
     16 C         -17.7412  -10.1954   18.5997 C.ar    1  UNL1        0.0215
     17 C         -18.1054   -9.3033   17.4502 C.ar    1  UNL1        0.0146
     18 C         -17.7991   -7.8362   17.5130 C.ar    1  UNL1        0.0783
     19 CL        -18.1635   -6.9442   16.3634 Cl      1  UNL1       -0.0806
     20 C         -14.5324   -2.6645   18.6265 C.3     1  UNL1        0.0400
     21 C         -13.6350   -2.3921   19.7971 C.3     1  UNL1        0.0063
     22 C         -14.3331   -1.9200   17.3395 C.3     1  UNL1        0.0063
     23 C         -17.6741   -2.0351   19.2448 C.3     1  UNL1        0.1163
     24 N         -17.3481   -1.2611   20.4877 N.3     1  UNL1       -0.2935
     25 H         -16.5991   -1.7663   20.9611 H       1  UNL1        0.1236
     26 C         -16.9090    0.1695   20.3867 C.3     1  UNL1        0.0543
     27 C         -15.9181    0.7205   19.4046 C.3     1  UNL1        0.0157
     28 C         -15.7803    2.1920   19.6610 C.3     1  UNL1        0.0014
     29 C         -16.6862    2.5505   20.8016 C.3     1  UNL1        0.0014
     30 C         -17.3837    1.3005   21.2501 C.3     1  UNL1        0.0157
@<TRIPOS>BOND
     1     6     7    1
     2     7     8   ar
     3     8     9   ar
     4     9    10   ar
     5    10     1    1
     6     1     2   ar
     7     2    13    1
     8    13    14   ar
     9    14    15   ar
    10    15    16   ar
    11    16    17   ar
    12    17    18   ar
    13    18    19    1
    14     2     3   ar
    15     3     4   ar
    16     4    23    1
    17    23    24    1
    18    24    26    1
    19    26    27    1
    20    27    28    1
    21    28    29    1
    22    29    30    1
    23     4     5   ar
    24     5    20    1
    25    20    21    1
    26    20    22    1
    27    10    11   ar
    28    11    12   ar
    29    12     7   ar
    30     5     1   ar
    31    18    13   ar
    32    30    26    1
    33    24    25    1
@<TRIPOS>MOLECULE
*****
 30 33 0 0 0
SMALL
GASTEIGER

@<TRIPOS>ATOM
      1 N         -14.5734   -5.2177   17.8007 N.ar    1  UNL1       -0.2915
      2 C         -13.3474   -5.9935   17.4199 C.ar    1  UNL1        0.1658
      3 N         -13.7377   -7.4343   17.2723 N.ar    1  UNL1       -0.2282
      4 C         -15.2050   -7.5490   17.5619 C.ar    1  UNL1        0.0885
      5 C         -15.7215   -6.1791   17.8884 C.ar    1  UNL1        0.0573
      6 C         -14.8388    0.6929   18.7977 C.3     1  UNL1        0.0521
      7 C         -14.7724   -0.7847   18.5484 C.ar    1  UNL1        0.0595
      8 C         -14.4022   -1.7175   19.6632 C.ar    1  UNL1        0.0162
      9 C         -14.3359   -3.1951   19.4140 C.ar    1  UNL1        0.0203
     10 C         -14.6398   -3.7400   18.0499 C.ar    1  UNL1        0.0842
     11 C         -15.0100   -2.8073   16.9351 C.ar    1  UNL1        0.1159
     12 N         -15.0763   -1.3296   17.1844 N.ar    1  UNL1       -0.2466
     13 C         -11.9724   -5.4278   17.2215 C.ar    1  UNL1        0.1261
     14 N         -11.7404   -4.3650   16.1886 N.ar    1  UNL1       -0.2399
     15 C         -10.3654   -3.7993   15.9902 C.ar    1  UNL1        0.0990
     16 C          -9.2223   -4.2963   16.8247 C.ar    1  UNL1        0.0215
     17 C          -9.4543   -5.3590   17.8576 C.ar    1  UNL1        0.0146
     18 C         -10.8293   -5.9247   18.0560 C.ar    1  UNL1        0.0783
     19 CL        -11.0612   -6.9874   19.0890 Cl      1  UNL1       -0.0806
     20 C         -17.1375   -5.8316   18.2408 C.3     1  UNL1        0.0400
     21 C         -17.4901   -5.4608   19.6508 C.3     1  UNL1        0.0063
     22 C         -18.2010   -5.8549   17.1831 C.3     1  UNL1        0.0063
     23 C         -16.0138   -8.8118   17.5305 C.3     1  UNL1        0.1163
     24 N         -16.5744   -9.3753   18.8026 N.3     1  UNL1       -0.2935
     25 H         -16.1407   -8.8605   19.5689 H       1  UNL1        0.1236
     26 C         -18.0542   -9.3493   19.0462 C.3     1  UNL1        0.0543
     27 C         -19.1085   -9.8956   18.1296 C.3     1  UNL1        0.0157
     28 C         -20.4455   -9.6564   18.7662 C.3     1  UNL1        0.0014
     29 C         -20.2175   -8.9622   20.0763 C.3     1  UNL1        0.0014
     30 C         -18.7396   -8.7725   20.2493 C.3     1  UNL1        0.0157
@<TRIPOS>BOND
     1     6     7    1
     2     7     8   ar
     3     8     9   ar
     4     9    10   ar
     5    10     1    1
     6     1     2   ar
     7     2    13    1
     8    13    14   ar
     9    14    15   ar
    10    15    16   ar
    11    16    17   ar
    12    17    18   ar
    13    18    19    1
    14     2     3   ar
    15     3     4   ar
    16     4    23    1
    17    23    24    1
    18    24    26    1
    19    26    27    1
    20    27    28    1
    21    28    29    1
    22    29    30    1
    23     4     5   ar
    24     5    20    1
    25    20    21    1
    26    20    22    1
    27    10    11   ar
    28    11    12   ar
    29    12     7   ar
    30     5     1   ar
    31    18    13   ar
    32    30    26    1
    33    24    25    1
