@<TRIPOS>MOLECULE
*****
 22 23 0 0 0
SMALL
GASTEIGER

@<TRIPOS>ATOM
      1 C         -11.6518  -17.9982   22.8758 C.ar    1  UNL1        0.1754
      2 C         -10.7973  -18.5930   23.9555 C.ar    1  UNL1        0.0403
      3 C          -9.4781  -19.2175   23.6094 C.ar    1  UNL1        0.0063
      4 C          -9.0136  -19.2473   22.1835 C.ar    1  UNL1        0.0373
      5 C          -9.8681  -18.6525   21.1037 C.ar    1  UNL1        0.1753
      6 C         -11.1873  -18.0280   21.4499 C.ar    1  UNL1        0.2061
      7 C         -13.8914  -18.0537   24.1915 C.3     1  UNL1        0.2526
      8 O         -12.9709  -17.3736   23.2219 O.3     1  UNL1       -0.4683
      9 C          -7.6945  -19.8719   21.8373 C.2     1  UNL1        0.0064
     10 C          -6.6584  -19.0763   21.1001 C.2     1  UNL1        0.0421
     11 C          -5.3393  -19.7009   20.7540 C.2     1  UNL1        0.1957
     12 O          -5.2752  -21.1451   20.3536 O.2     1  UNL1       -0.2866
     13 C          -4.0841  -18.8813   20.8081 C.ar    1  UNL1        0.0420
     14 C          -3.5954  -18.3438   22.1205 C.ar    1  UNL1        0.0239
     15 C          -2.3403  -17.5241   22.1746 C.ar    1  UNL1        0.0990
     16 N          -1.5739  -17.2420   20.9165 N.ar    1  UNL1       -0.2423
     17 C          -2.0626  -17.7796   19.6041 C.ar    1  UNL1        0.0990
     18 C          -3.3177  -18.5992   19.5499 C.ar    1  UNL1        0.0239
     19 O          -9.4036  -18.6823   19.6777 O.3     1  UNL1       -0.4683
     20 C          -9.5539  -19.9346   18.8660 C.3     1  UNL1        0.2526
     21 O         -12.0418  -17.4331   20.3700 O.3     1  UNL1       -0.4654
     22 C         -11.7206  -16.0740   19.8227 C.3     1  UNL1        0.2528
@<TRIPOS>BOND
     1     7     8    1
     2     8     1    1
     3     1     2   ar
     4     2     3   ar
     5     3     4   ar
     6     4     9    1
     7     9    10    2
     8    10    11    1
     9    11    12    2
    10    11    13    1
    11    13    14   ar
    12    14    15   ar
    13    15    16   ar
    14    16    17   ar
    15    17    18   ar
    16     4     5   ar
    17     5    19    1
    18    19    20    1
    19     5     6   ar
    20     6    21    1
    21    21    22    1
    22     6     1   ar
    23    18    13   ar
@<TRIPOS>MOLECULE
*****
 22 23 0 0 0
SMALL
GASTEIGER

@<TRIPOS>ATOM
      1 C         -11.0587  -18.7126   23.9117 C.ar    1  UNL1        0.1754
      2 C         -10.3412  -20.0266   23.8189 C.ar    1  UNL1        0.0403
      3 C          -9.1188  -20.1546   22.9591 C.ar    1  UNL1        0.0063
      4 C          -8.6139  -18.9687   22.1920 C.ar    1  UNL1        0.0373
      5 C          -9.3313  -17.6547   22.2848 C.ar    1  UNL1        0.1753
      6 C         -10.5537  -17.5267   23.1446 C.ar    1  UNL1        0.2061
      7 C         -13.6132  -18.2997   24.1436 C.3     1  UNL1        0.2526
      8 O         -12.2811  -18.5846   24.7715 O.3     1  UNL1       -0.4683
      9 C          -7.3914  -19.0967   21.3322 C.2     1  UNL1        0.0064
     10 C          -6.1755  -19.8007   21.8574 C.2     1  UNL1        0.0421
     11 C          -4.9531  -19.9287   20.9975 C.2     1  UNL1        0.1957
     12 O          -4.7881  -21.1199   20.1010 O.2     1  UNL1       -0.2866
     13 C          -3.8956  -18.8654   21.0343 C.ar    1  UNL1        0.0420
     14 C          -3.1645  -18.4910   19.7792 C.ar    1  UNL1        0.0239
     15 C          -2.1070  -17.4278   19.8159 C.ar    1  UNL1        0.0990
     16 N          -1.7806  -16.7390   21.1078 N.ar    1  UNL1       -0.2423
     17 C          -2.5117  -17.1134   22.3630 C.ar    1  UNL1        0.0990
     18 C          -3.5691  -18.1766   22.3262 C.ar    1  UNL1        0.0239
     19 O          -8.8264  -16.4687   21.5176 O.3     1  UNL1       -0.4683
     20 C          -8.0310  -15.4065   22.2169 C.3     1  UNL1        0.2526
     21 O         -11.2712  -16.2126   23.2373 O.3     1  UNL1       -0.4654
     22 C         -12.2492  -15.8153   22.1716 C.3     1  UNL1        0.2528
@<TRIPOS>BOND
     1     7     8    1
     2     8     1    1
     3     1     2   ar
     4     2     3   ar
     5     3     4   ar
     6     4     9    1
     7     9    10    2
     8    10    11    1
     9    11    12    2
    10    11    13    1
    11    13    14   ar
    12    14    15   ar
    13    15    16   ar
    14    16    17   ar
    15    17    18   ar
    16     4     5   ar
    17     5    19    1
    18    19    20    1
    19     5     6   ar
    20     6    21    1
    21    21    22    1
    22     6     1   ar
    23    18    13   ar
@<TRIPOS>MOLECULE
*****
 22 23 0 0 0
SMALL
GASTEIGER

@<TRIPOS>ATOM
      1 C         -10.0881  -18.2107   23.7143 C.ar    1  UNL1        0.1754
      2 C          -9.9556  -19.4600   22.8947 C.ar    1  UNL1        0.0403
      3 C          -8.7509  -19.6617   22.0242 C.ar    1  UNL1        0.0063
      4 C          -7.6786  -18.6141   21.9732 C.ar    1  UNL1        0.0373
      5 C          -7.8110  -17.3648   22.7928 C.ar    1  UNL1        0.1753
      6 C          -9.0158  -17.1631   23.6633 C.ar    1  UNL1        0.2061
      7 C         -12.6394  -18.4818   24.1231 C.3     1  UNL1        0.2526
      8 O         -11.2929  -18.0091   24.5849 O.3     1  UNL1       -0.4683
      9 C          -6.4738  -18.8157   21.1026 C.2     1  UNL1        0.0064
     10 C          -5.3021  -19.6006   21.6136 C.2     1  UNL1        0.0421
     11 C          -4.0974  -19.8022   20.7431 C.2     1  UNL1        0.1957
     12 O          -3.9453  -21.0692   19.9548 O.2     1  UNL1       -0.2866
     13 C          -3.0446  -18.7368   20.6609 C.ar    1  UNL1        0.0420
     14 C          -2.9311  -17.7092   21.7477 C.ar    1  UNL1        0.0239
     15 C          -1.8784  -16.6437   21.6654 C.ar    1  UNL1        0.0990
     16 N          -0.9392  -16.6060   20.4964 N.ar    1  UNL1       -0.2423
     17 C          -1.0528  -17.6336   19.4096 C.ar    1  UNL1        0.0990
     18 C          -2.1055  -18.6990   19.4919 C.ar    1  UNL1        0.0239
     19 O          -6.7387  -16.3171   22.7418 O.3     1  UNL1       -0.4683
     20 C          -5.6288  -16.3302   23.7507 C.3     1  UNL1        0.2526
     21 O          -9.1482  -15.9138   24.4829 O.3     1  UNL1       -0.4654
     22 C          -8.5450  -15.8493   25.8548 C.3     1  UNL1        0.2528
@<TRIPOS>BOND
     1     7     8    1
     2     8     1    1
     3     1     2   ar
     4     2     3   ar
     5     3     4   ar
     6     4     9    1
     7     9    10    2
     8    10    11    1
     9    11    12    2
    10    11    13    1
    11    13    14   ar
    12    14    15   ar
    13    15    16   ar
    14    16    17   ar
    15    17    18   ar
    16     4     5   ar
    17     5    19    1
    18    19    20    1
    19     5     6   ar
    20     6    21    1
    21    21    22    1
    22     6     1   ar
    23    18    13   ar
@<TRIPOS>MOLECULE
*****
 22 23 0 0 0
SMALL
GASTEIGER

@<TRIPOS>ATOM
      1 C         -10.7520  -16.9943   22.7969 C.ar    1  UNL1        0.1754
      2 C          -9.8975  -16.8685   24.0232 C.ar    1  UNL1        0.0403
      3 C          -8.4550  -17.2774   23.9774 C.ar    1  UNL1        0.0063
      4 C          -7.8671  -17.8122   22.7053 C.ar    1  UNL1        0.0373
      5 C          -8.7216  -17.9380   21.4790 C.ar    1  UNL1        0.1753
      6 C         -10.1641  -17.5291   21.5248 C.ar    1  UNL1        0.2061
      7 C         -13.2673  -17.6293   22.9387 C.3     1  UNL1        0.2526
      8 O         -12.1944  -16.5854   22.8427 O.3     1  UNL1       -0.4683
      9 C          -6.4246  -18.2211   22.6595 C.2     1  UNL1        0.0064
     10 C          -5.3870  -17.3900   23.3542 C.2     1  UNL1        0.0421
     11 C          -3.9446  -17.7989   23.3084 C.2     1  UNL1        0.1957
     12 O          -3.2520  -18.2472   24.5611 O.2     1  UNL1       -0.2866
     13 C          -3.1947  -17.7595   22.0098 C.ar    1  UNL1        0.0420
     14 C          -3.5107  -18.7524   20.9309 C.ar    1  UNL1        0.0239
     15 C          -2.7609  -18.7130   19.6323 C.ar    1  UNL1        0.0990
     16 N          -1.6950  -17.6806   19.4128 N.ar    1  UNL1       -0.2423
     17 C          -1.3790  -16.6877   20.4918 C.ar    1  UNL1        0.0990
     18 C          -2.1289  -16.7272   21.7903 C.ar    1  UNL1        0.0239
     19 O          -8.1337  -18.4727   20.2068 O.3     1  UNL1       -0.4683
     20 C          -8.4778  -19.8580   19.7457 C.3     1  UNL1        0.2526
     21 O         -11.0186  -17.6549   20.2984 O.3     1  UNL1       -0.4654
     22 C         -11.4985  -16.4234   19.5891 C.3     1  UNL1        0.2528
@<TRIPOS>BOND
     1     7     8    1
     2     8     1    1
     3     1     2   ar
     4     2     3   ar
     5     3     4   ar
     6     4     9    1
     7     9    10    2
     8    10    11    1
     9    11    12    2
    10    11    13    1
    11    13    14   ar
    12    14    15   ar
    13    15    16   ar
    14    16    17   ar
    15    17    18   ar
    16     4     5   ar
    17     5    19    1
    18    19    20    1
    19     5     6   ar
    20     6    21    1
    21    21    22    1
    22     6     1   ar
    23    18    13   ar
@<TRIPOS>MOLECULE
*****
 22 23 0 0 0
SMALL
GASTEIGER

@<TRIPOS>ATOM
      1 C         -18.3458   -8.1670   19.9031 C.ar    1  UNL1        0.1754
      2 C         -18.6479   -6.6992   19.8402 C.ar    1  UNL1        0.0403
      3 C         -17.5559   -5.7217   19.5209 C.ar    1  UNL1        0.0063
      4 C         -16.1617   -6.2121   19.2645 C.ar    1  UNL1        0.0373
      5 C         -15.8596   -7.6800   19.3275 C.ar    1  UNL1        0.1753
      6 C         -16.9516   -8.6574   19.6467 C.ar    1  UNL1        0.2061
      7 C         -20.4638   -9.4885   19.1837 C.3     1  UNL1        0.2526
      8 O         -19.4378   -9.1445   20.2224 O.3     1  UNL1       -0.4683
      9 C         -15.0696   -5.2346   18.9452 C.2     1  UNL1        0.0064
     10 C         -14.0379   -4.8982   19.9807 C.2     1  UNL1        0.0421
     11 C         -12.9458   -3.9207   19.6614 C.2     1  UNL1        0.1957
     12 O         -13.0678   -2.4908   20.0979 O.2     1  UNL1       -0.2866
     13 C         -11.7317   -4.3731   18.9055 C.ar    1  UNL1        0.0420
     14 C         -10.9722   -3.3993   18.0541 C.ar    1  UNL1        0.0239
     15 C          -9.7581   -3.8517   17.2983 C.ar    1  UNL1        0.0990
     16 N          -9.3035   -5.2780   17.3938 N.ar    1  UNL1       -0.2423
     17 C         -10.0630   -6.2518   18.2452 C.ar    1  UNL1        0.0990
     18 C         -11.2771   -5.7994   19.0010 C.ar    1  UNL1        0.0239
     19 O         -14.4654   -8.1704   19.0711 O.3     1  UNL1       -0.4683
     20 C         -14.0258   -8.4832   17.6715 C.3     1  UNL1        0.2526
     21 O         -16.6495  -10.1254   19.7097 O.3     1  UNL1       -0.4654
     22 C         -16.9997  -11.0134   18.5526 C.3     1  UNL1        0.2528
@<TRIPOS>BOND
     1     7     8    1
     2     8     1    1
     3     1     2   ar
     4     2     3   ar
     5     3     4   ar
     6     4     9    1
     7     9    10    2
     8    10    11    1
     9    11    12    2
    10    11    13    1
    11    13    14   ar
    12    14    15   ar
    13    15    16   ar
    14    16    17   ar
    15    17    18   ar
    16     4     5   ar
    17     5    19    1
    18    19    20    1
    19     5     6   ar
    20     6    21    1
    21    21    22    1
    22     6     1   ar
    23    18    13   ar
@<TRIPOS>MOLECULE
*****
 22 23 0 0 0
SMALL
GASTEIGER

@<TRIPOS>ATOM
      1 C           2.9956   -0.2972   20.1965 C.ar    1  UNL1        0.1754
      2 C           2.8573   -0.2768   21.6900 C.ar    1  UNL1        0.0403
      3 C           3.4645   -1.3729   22.5145 C.ar    1  UNL1        0.0063
      4 C           4.2101   -2.4894   21.8455 C.ar    1  UNL1        0.0373
      5 C           4.3484   -2.5098   20.3521 C.ar    1  UNL1        0.1753
      6 C           3.7412   -1.4137   19.5276 C.ar    1  UNL1        0.2061
      7 C           1.0881    0.5696   18.6603 C.3     1  UNL1        0.2526
      8 O           2.3884    0.7989   19.3721 O.3     1  UNL1       -0.4683
      9 C           4.8173   -3.5855   22.6700 C.2     1  UNL1        0.0064
     10 C           6.2453   -3.4840   23.1178 C.2     1  UNL1        0.0421
     11 C           6.8525   -4.5801   23.9423 C.2     1  UNL1        0.1957
     12 O           7.5675   -5.7152   23.2712 O.2     1  UNL1       -0.2866
     13 C           6.7447   -4.5412   25.4379 C.ar    1  UNL1        0.0420
     14 C           6.8816   -5.8057   26.2329 C.ar    1  UNL1        0.0239
     15 C           6.7738   -5.7667   27.7286 C.ar    1  UNL1        0.0990
     16 N           6.5292   -4.4631   28.4292 N.ar    1  UNL1       -0.2423
     17 C           6.3924   -3.1985   27.6341 C.ar    1  UNL1        0.0990
     18 C           6.5002   -3.2376   26.1385 C.ar    1  UNL1        0.0239
     19 O           5.0940   -3.6263   19.6831 O.3     1  UNL1       -0.4683
     20 C           4.3396   -4.7397   19.0188 C.3     1  UNL1        0.2526
     21 O           3.8795   -1.4341   18.0341 O.3     1  UNL1       -0.4654
     22 C           4.8988   -0.5616   17.3633 C.3     1  UNL1        0.2528
@<TRIPOS>BOND
     1     7     8    1
     2     8     1    1
     3     1     2   ar
     4     2     3   ar
     5     3     4   ar
     6     4     9    1
     7     9    10    2
     8    10    11    1
     9    11    12    2
    10    11    13    1
    11    13    14   ar
    12    14    15   ar
    13    15    16   ar
    14    16    17   ar
    15    17    18   ar
    16     4     5   ar
    17     5    19    1
    18    19    20    1
    19     5     6   ar
    20     6    21    1
    21    21    22    1
    22     6     1   ar
    23    18    13   ar
@<TRIPOS>MOLECULE
*****
 22 23 0 0 0
SMALL
GASTEIGER

@<TRIPOS>ATOM
      1 C         -15.0682    0.5089   18.8339 C.ar    1  UNL1        0.1754
      2 C         -13.7572    1.0111   18.3057 C.ar    1  UNL1        0.0403
      3 C         -12.5992    0.0697   18.1549 C.ar    1  UNL1        0.0063
      4 C         -12.7522   -1.3740   18.5322 C.ar    1  UNL1        0.0373
      5 C         -14.0632   -1.8762   19.0604 C.ar    1  UNL1        0.1753
      6 C         -15.2212   -0.9347   19.2112 C.ar    1  UNL1        0.2061
      7 C         -16.2178    2.4811   20.0744 C.3     1  UNL1        0.2526
      8 O         -16.2262    1.4504   18.9847 O.3     1  UNL1       -0.4683
      9 C         -11.5942   -2.3154   18.3814 C.2     1  UNL1        0.0064
     10 C         -11.2202   -2.8328   17.0241 C.2     1  UNL1        0.0421
     11 C         -10.0622   -3.7743   16.8733 C.2     1  UNL1        0.1957
     12 O          -8.7558   -3.2754   16.3308 O.2     1  UNL1       -0.2866
     13 C         -10.2107   -5.2147   17.2649 C.ar    1  UNL1        0.0420
     14 C         -11.0429   -6.1382   16.4255 C.ar    1  UNL1        0.0239
     15 C         -11.1914   -7.5786   16.8171 C.ar    1  UNL1        0.0990
     16 N         -10.5077   -8.0954   18.0482 N.ar    1  UNL1       -0.2423
     17 C          -9.6755   -7.1718   18.8876 C.ar    1  UNL1        0.0990
     18 C          -9.5270   -5.7315   18.4960 C.ar    1  UNL1        0.0239
     19 O         -14.2163   -3.3199   19.4378 O.3     1  UNL1       -0.4683
     20 C         -14.0671   -3.7407   20.8698 C.3     1  UNL1        0.2526
     21 O         -16.5323   -1.4370   19.7394 O.3     1  UNL1       -0.4654
     22 C         -17.4515   -2.2166   18.8465 C.3     1  UNL1        0.2528
@<TRIPOS>BOND
     1     7     8    1
     2     8     1    1
     3     1     2   ar
     4     2     3   ar
     5     3     4   ar
     6     4     9    1
     7     9    10    2
     8    10    11    1
     9    11    12    2
    10    11    13    1
    11    13    14   ar
    12    14    15   ar
    13    15    16   ar
    14    16    17   ar
    15    17    18   ar
    16     4     5   ar
    17     5    19    1
    18    19    20    1
    19     5     6   ar
    20     6    21    1
    21    21    22    1
    22     6     1   ar
    23    18    13   ar
@<TRIPOS>MOLECULE
*****
 22 23 0 0 0
SMALL
GASTEIGER

@<TRIPOS>ATOM
      1 C           7.0111   -3.9765   26.5305 C.ar    1  UNL1        0.1754
      2 C           6.2004   -2.8438   25.9740 C.ar    1  UNL1        0.0403
      3 C           5.8925   -2.7918   24.5069 C.ar    1  UNL1        0.0063
      4 C           6.3954   -3.8724   23.5962 C.ar    1  UNL1        0.0373
      5 C           7.2062   -5.0050   24.1527 C.ar    1  UNL1        0.1753
      6 C           7.5140   -5.0571   25.6199 C.ar    1  UNL1        0.2061
      7 C           6.5334   -4.9361   28.8971 C.3     1  UNL1        0.2526
      8 O           7.3190   -4.0285   27.9977 O.3     1  UNL1       -0.4683
      9 C           6.0876   -3.8203   22.1291 C.2     1  UNL1        0.0064
     10 C           4.6734   -3.9741   21.6536 C.2     1  UNL1        0.0421
     11 C           4.3655   -3.9221   20.1864 C.2     1  UNL1        0.1957
     12 O           4.5058   -5.1568   19.3464 O.2     1  UNL1       -0.2866
     13 C           3.9173   -2.6352   19.5593 C.ar    1  UNL1        0.0420
     14 C           4.4245   -2.2456   18.2025 C.ar    1  UNL1        0.0239
     15 C           3.9763   -0.9587   17.5754 C.ar    1  UNL1        0.0990
     16 N           3.0210   -0.0616   18.3051 N.ar    1  UNL1       -0.2423
     17 C           2.5139   -0.4513   19.6620 C.ar    1  UNL1        0.0990
     18 C           2.9620   -1.7381   20.2890 C.ar    1  UNL1        0.0239
     19 O           7.7092   -6.0857   23.2421 O.3     1  UNL1       -0.4683
     20 C           9.1052   -6.0183   22.6977 C.3     1  UNL1        0.2526
     21 O           8.3248   -6.1898   26.1764 O.3     1  UNL1       -0.4654
     22 C           7.6949   -7.5366   26.3744 C.3     1  UNL1        0.2528
@<TRIPOS>BOND
     1     7     8    1
     2     8     1    1
     3     1     2   ar
     4     2     3   ar
     5     3     4   ar
     6     4     9    1
     7     9    10    2
     8    10    11    1
     9    11    12    2
    10    11    13    1
    11    13    14   ar
    12    14    15   ar
    13    15    16   ar
    14    16    17   ar
    15    17    18   ar
    16     4     5   ar
    17     5    19    1
    18    19    20    1
    19     5     6   ar
    20     6    21    1
    21    21    22    1
    22     6     1   ar
    23    18    13   ar
@<TRIPOS>MOLECULE
*****
 22 23 0 0 0
SMALL
GASTEIGER

@<TRIPOS>ATOM
      1 C           0.2947    1.3308   26.9961 C.ar    1  UNL1        0.1754
      2 C          -0.2595    1.4347   25.6061 C.ar    1  UNL1        0.0403
      3 C           0.6070    1.1055   24.4267 C.ar    1  UNL1        0.0063
      4 C           2.0276    0.6725   24.6373 C.ar    1  UNL1        0.0373
      5 C           2.5817    0.5686   26.0273 C.ar    1  UNL1        0.1753
      6 C           1.7152    0.8978   27.2067 C.ar    1  UNL1        0.2061
      7 C          -1.4218    0.5948   28.8021 C.3     1  UNL1        0.2526
      8 O          -0.5718    1.6600   28.1754 O.3     1  UNL1       -0.4683
      9 C           2.8940    0.3433   23.4580 C.2     1  UNL1        0.0064
     10 C           2.2682   -0.0852   22.1639 C.2     1  UNL1        0.0421
     11 C           3.1347   -0.4144   20.9845 C.2     1  UNL1        0.1957
     12 O           3.5575    0.6702   20.0386 O.2     1  UNL1       -0.2866
     13 C           3.5783   -1.8282   20.7511 C.ar    1  UNL1        0.0420
     14 C           3.3697   -2.4681   19.4106 C.ar    1  UNL1        0.0239
     15 C           3.8133   -3.8819   19.1772 C.ar    1  UNL1        0.0990
     16 N           4.4655   -4.6558   20.2844 N.ar    1  UNL1       -0.2423
     17 C           4.6740   -4.0158   21.6250 C.ar    1  UNL1        0.0990
     18 C           4.2304   -2.6021   21.8583 C.ar    1  UNL1        0.0239
     19 O           4.0023    0.1355   26.2380 O.3     1  UNL1       -0.4683
     20 C           4.3238   -1.3179   26.4222 C.3     1  UNL1        0.2526
     21 O           2.2694    0.7939   28.5967 O.3     1  UNL1       -0.4654
     22 C           2.1271   -0.4852   29.3672 C.3     1  UNL1        0.2528
@<TRIPOS>BOND
     1     7     8    1
     2     8     1    1
     3     1     2   ar
     4     2     3   ar
     5     3     4   ar
     6     4     9    1
     7     9    10    2
     8    10    11    1
     9    11    12    2
    10    11    13    1
    11    13    14   ar
    12    14    15   ar
    13    15    16   ar
    14    16    17   ar
    15    17    18   ar
    16     4     5   ar
    17     5    19    1
    18    19    20    1
    19     5     6   ar
    20     6    21    1
    21    21    22    1
    22     6     1   ar
    23    18    13   ar
