@<TRIPOS>MOLECULE
*****
 39 43 0 0 0
SMALL
GASTEIGER

@<TRIPOS>ATOM
      1 C          -1.8637    3.3561   21.1193 C.ar    1  UNL1        0.1348
      2 C          -1.7360    4.1447   22.3889 C.ar    1  UNL1        0.0346
      3 C          -0.6667    3.7988   23.3823 C.ar    1  UNL1        0.0065
      4 C           0.2750    2.6645   23.1063 C.ar    1  UNL1        0.0432
      5 C           0.1474    1.8758   21.8367 C.ar    1  UNL1        0.1256
      6 N          -0.9220    2.2217   20.8432 N.ar    1  UNL1       -0.2222
      7 C           1.3444    2.3186   24.0997 C.ar    1  UNL1        0.0850
      8 C           2.8197    2.5125   23.9103 C.ar    1  UNL1        0.0991
      9 N           3.5133    2.0319   25.1505 N.ar    1  UNL1       -0.2265
     10 C           2.4666    1.5410   26.1063 C.ar    1  UNL1        0.1474
     11 C           2.5610    0.9556   27.4841 C.ar    1  UNL1        0.0332
     12 C           1.3148    0.5473   28.2124 C.ar    1  UNL1       -0.0174
     13 C           1.4092   -0.0381   29.5903 C.3     1  UNL1        0.0312
     14 C          -0.0256    0.7245   27.5630 C.ar    1  UNL1        0.0149
     15 C          -0.1200    1.3100   26.1853 C.ar    1  UNL1        0.0811
     16 N           1.1262    1.7182   25.4569 N.ar    1  UNL1       -0.2888
     17 C           3.4847    3.0862   22.6943 C.ar    1  UNL1        0.0222
     18 C           3.1371    4.4703   22.2321 C.ar    1  UNL1        0.0222
     19 C           3.8021    5.0439   21.0161 C.ar    1  UNL1        0.0989
     20 N           4.8146    4.2336   20.2624 N.ar    1  UNL1       -0.2423
     21 C           5.1621    2.8496   20.7246 C.ar    1  UNL1        0.0989
     22 C           4.4971    2.2759   21.9406 C.ar    1  UNL1        0.0222
     23 C          -4.3536    3.2930   20.3803 C.2     1  UNL1        0.2414
     24 O          -4.7048    2.5383   21.6281 O.2     1  UNL1       -0.2733
     25 N          -2.9330    3.7019   20.1259 N.am    1  UNL1       -0.2682
     26 H          -2.7025    4.1973   19.3069 H       1  UNL1        0.1563
     27 C          -5.4229    3.6389   19.3868 C.3     1  UNL1        0.1319
     28 C          -5.1183    3.6146   17.9182 C.3     1  UNL1        0.0270
     29 C          -6.9756    5.1398   20.8311 C.3     1  UNL1        0.0862
     30 N          -6.7967    4.0091   19.8618 N.3     1  UNL1       -0.2902
     31 H          -7.3420    4.2433   19.0323 H       1  UNL1        0.1237
     32 C           1.0891    0.7414   21.5605 C.1     1  UNL1       -0.0404
     33 C           2.0308   -0.3931   21.2843 C.1     1  UNL1       -0.0583
     34 C           2.9725   -1.5275   21.0082 C.ar    1  UNL1        0.0420
     35 C           3.8580   -2.0500   22.1004 C.ar    1  UNL1        0.0082
     36 C           4.7997   -3.1844   21.8243 C.ar    1  UNL1        0.0006
     37 C           4.8559   -3.7963   20.4559 C.ar    1  UNL1        0.0000
     38 C           3.9704   -3.2738   19.3637 C.ar    1  UNL1        0.0006
     39 C           3.0287   -2.1394   19.6398 C.ar    1  UNL1        0.0082
@<TRIPOS>BOND
     1    29    30    1
     2    30    27    1
     3    27    28    1
     4    27    23    1
     5    23    24    2
     6    23    25   am
     7    25     1    1
     8     1     2   ar
     9     2     3   ar
    10     3     4   ar
    11     4     7    1
    12     7     8   ar
    13     8    17    1
    14    17    18   ar
    15    18    19   ar
    16    19    20   ar
    17    20    21   ar
    18    21    22   ar
    19     8     9   ar
    20     9    10   ar
    21    10    11   ar
    22    11    12   ar
    23    12    13    1
    24    12    14   ar
    25    14    15   ar
    26    15    16   ar
    27     4     5   ar
    28     5    32    1
    29    32    33    3
    30    33    34    1
    31    34    35   ar
    32    35    36   ar
    33    36    37   ar
    34    37    38   ar
    35    38    39   ar
    36     5     6   ar
    37     6     1   ar
    38    16     7   ar
    39    39    34   ar
    40    22    17   ar
    41    16    10   ar
    42    30    31    1
    43    25    26    1
@<TRIPOS>MOLECULE
*****
 39 43 0 0 0
SMALL
GASTEIGER

@<TRIPOS>ATOM
      1 C          -0.5446    1.9374   25.9319 C.ar    1  UNL1        0.1348
      2 C          -1.3332    3.1824   25.6526 C.ar    1  UNL1        0.0346
      3 C          -1.3724    3.7498   24.2646 C.ar    1  UNL1        0.0065
      4 C          -0.6229    3.0724   23.1560 C.ar    1  UNL1        0.0432
      5 C           0.1658    1.8273   23.4353 C.ar    1  UNL1        0.1256
      6 N           0.2049    1.2598   24.8233 N.ar    1  UNL1       -0.2222
      7 C          -0.6621    3.6398   21.7680 C.ar    1  UNL1        0.0850
      8 C           0.4854    4.2803   21.0447 C.ar    1  UNL1        0.0991
      9 N           0.0011    4.7027   19.6893 N.ar    1  UNL1       -0.2265
     10 C          -1.4456    4.3233   19.5750 C.ar    1  UNL1        0.1474
     11 C          -2.4427    4.4911   18.4670 C.ar    1  UNL1        0.0332
     12 C          -3.8496    4.0020   18.6437 C.ar    1  UNL1       -0.0174
     13 C          -4.8467    4.1698   17.5357 C.3     1  UNL1        0.0312
     14 C          -4.2595    3.3450   19.9284 C.ar    1  UNL1        0.0149
     15 C          -3.2624    3.1772   21.0364 C.ar    1  UNL1        0.0811
     16 N          -1.8555    3.6663   20.8597 N.ar    1  UNL1       -0.2888
     17 C           1.8734    4.4658   21.5824 C.ar    1  UNL1        0.0222
     18 C           2.0931    5.2674   22.8311 C.ar    1  UNL1        0.0222
     19 C           3.4810    5.4528   23.3687 C.ar    1  UNL1        0.0989
     20 N           4.6493    4.8367   22.6577 N.ar    1  UNL1       -0.2423
     21 C           4.4296    4.0352   21.4091 C.ar    1  UNL1        0.0989
     22 C           3.0416    3.8497   20.8714 C.ar    1  UNL1        0.0222
     23 C           0.6693    1.6469   28.2106 C.2     1  UNL1        0.2414
     24 O           1.8049    2.4912   27.7132 O.2     1  UNL1       -0.2733
     25 N          -0.5055    1.3700   27.3199 N.am    1  UNL1       -0.2682
     26 H          -1.2508    0.8158   27.6464 H       1  UNL1        0.1563
     27 C           0.7083    1.0794   29.5986 C.3     1  UNL1        0.1319
     28 C           0.3731    1.9489   30.7739 C.3     1  UNL1        0.0270
     29 C           2.4700   -0.7131   30.2568 C.3     1  UNL1        0.0862
     30 N           1.0826   -0.3575   29.8111 N.3     1  UNL1       -0.2902
     31 H           0.4434   -0.7273   30.5147 H       1  UNL1        0.1237
     32 C           0.9152    1.1497   22.3266 C.1     1  UNL1       -0.0404
     33 C           1.6648    0.4722   21.2179 C.1     1  UNL1       -0.0583
     34 C           2.4143   -0.2054   20.1092 C.ar    1  UNL1        0.0420
     35 C           2.6270    0.5040   18.8048 C.ar    1  UNL1        0.0082
     36 C           3.3765   -0.1736   17.6962 C.ar    1  UNL1        0.0006
     37 C           3.9132   -1.5605   17.8920 C.ar    1  UNL1        0.0000
     38 C           3.7005   -2.2699   19.1964 C.ar    1  UNL1        0.0006
     39 C           2.9510   -1.5924   20.3050 C.ar    1  UNL1        0.0082
@<TRIPOS>BOND
     1    29    30    1
     2    30    27    1
     3    27    28    1
     4    27    23    1
     5    23    24    2
     6    23    25   am
     7    25     1    1
     8     1     2   ar
     9     2     3   ar
    10     3     4   ar
    11     4     7    1
    12     7     8   ar
    13     8    17    1
    14    17    18   ar
    15    18    19   ar
    16    19    20   ar
    17    20    21   ar
    18    21    22   ar
    19     8     9   ar
    20     9    10   ar
    21    10    11   ar
    22    11    12   ar
    23    12    13    1
    24    12    14   ar
    25    14    15   ar
    26    15    16   ar
    27     4     5   ar
    28     5    32    1
    29    32    33    3
    30    33    34    1
    31    34    35   ar
    32    35    36   ar
    33    36    37   ar
    34    37    38   ar
    35    38    39   ar
    36     5     6   ar
    37     6     1   ar
    38    16     7   ar
    39    39    34   ar
    40    22    17   ar
    41    16    10   ar
    42    30    31    1
    43    25    26    1
@<TRIPOS>MOLECULE
*****
 39 43 0 0 0
SMALL
GASTEIGER

@<TRIPOS>ATOM
      1 C           3.6995   -0.9213   28.5675 C.ar    1  UNL1        0.1348
      2 C           5.0447   -1.1060   29.2048 C.ar    1  UNL1        0.0346
      3 C           6.2057   -1.5805   28.3820 C.ar    1  UNL1        0.0065
      4 C           6.0215   -1.8703   26.9219 C.ar    1  UNL1        0.0432
      5 C           4.6762   -1.6856   26.2845 C.ar    1  UNL1        0.1256
      6 N           3.5152   -1.2111   27.1073 N.ar    1  UNL1       -0.2222
      7 C           7.1825   -2.3449   26.0991 C.ar    1  UNL1        0.0850
      8 C           8.2004   -1.4731   25.4254 C.ar    1  UNL1        0.0991
      9 N           9.1764   -2.3639   24.7155 N.ar    1  UNL1       -0.2265
     10 C           8.7616   -3.7861   24.9504 C.ar    1  UNL1        0.1474
     11 C           9.3468   -5.0904   24.4962 C.ar    1  UNL1        0.0332
     12 C           8.6997   -6.3829   24.8970 C.ar    1  UNL1       -0.0174
     13 C           9.2850   -7.6872   24.4427 C.3     1  UNL1        0.0312
     14 C           7.4674   -6.3712   25.7522 C.ar    1  UNL1        0.0149
     15 C           6.8822   -5.0669   26.2064 C.ar    1  UNL1        0.0811
     16 N           7.5293   -3.7744   25.8056 N.ar    1  UNL1       -0.2888
     17 C           8.2361    0.0261   25.4563 C.ar    1  UNL1        0.0222
     18 C           7.3457    0.8165   24.5438 C.ar    1  UNL1        0.0222
     19 C           7.3815    2.3157   24.5747 C.ar    1  UNL1        0.0989
     20 N           8.3075    3.0246   25.5180 N.ar    1  UNL1       -0.2423
     21 C           9.1979    2.2343   26.4304 C.ar    1  UNL1        0.0989
     22 C           9.1622    0.7350   26.3996 C.ar    1  UNL1        0.0222
     23 C           1.8873    0.8684   29.0802 C.2     1  UNL1        0.2414
     24 O           2.3970    1.7091   27.9473 O.2     1  UNL1       -0.2733
     25 N           2.5385   -0.4468   29.3903 N.am    1  UNL1       -0.2682
     26 H           2.2040   -0.9985   30.1338 H       1  UNL1        0.1563
     27 C           0.7263    1.3429   29.9031 C.3     1  UNL1        0.1319
     28 C           0.8585    2.5773   30.7449 C.3     1  UNL1        0.0270
     29 C          -0.9866   -0.1519   28.6456 C.3     1  UNL1        0.0862
     30 N          -0.5668    0.5829   29.8840 N.3     1  UNL1       -0.2902
     31 H          -0.5134   -0.1080   30.6325 H       1  UNL1        0.1237
     32 C           4.4919   -1.9754   24.8244 C.1     1  UNL1       -0.0404
     33 C           4.3077   -2.2652   23.3641 C.1     1  UNL1       -0.0583
     34 C           4.1235   -2.5550   21.9040 C.ar    1  UNL1        0.0420
     35 C           4.5933   -3.8602   21.3333 C.ar    1  UNL1        0.0082
     36 C           4.4091   -4.1500   19.8731 C.ar    1  UNL1        0.0006
     37 C           3.7549   -3.1345   18.9837 C.ar    1  UNL1        0.0000
     38 C           3.2851   -1.8294   19.5544 C.ar    1  UNL1        0.0006
     39 C           3.4693   -1.5396   21.0146 C.ar    1  UNL1        0.0082
@<TRIPOS>BOND
     1    29    30    1
     2    30    27    1
     3    27    28    1
     4    27    23    1
     5    23    24    2
     6    23    25   am
     7    25     1    1
     8     1     2   ar
     9     2     3   ar
    10     3     4   ar
    11     4     7    1
    12     7     8   ar
    13     8    17    1
    14    17    18   ar
    15    18    19   ar
    16    19    20   ar
    17    20    21   ar
    18    21    22   ar
    19     8     9   ar
    20     9    10   ar
    21    10    11   ar
    22    11    12   ar
    23    12    13    1
    24    12    14   ar
    25    14    15   ar
    26    15    16   ar
    27     4     5   ar
    28     5    32    1
    29    32    33    3
    30    33    34    1
    31    34    35   ar
    32    35    36   ar
    33    36    37   ar
    34    37    38   ar
    35    38    39   ar
    36     5     6   ar
    37     6     1   ar
    38    16     7   ar
    39    39    34   ar
    40    22    17   ar
    41    16    10   ar
    42    30    31    1
    43    25    26    1
@<TRIPOS>MOLECULE
*****
 39 43 0 0 0
SMALL
GASTEIGER

@<TRIPOS>ATOM
      1 C           4.1356   -0.8639   30.2400 C.ar    1  UNL1        0.1348
      2 C           5.4701   -1.4324   30.6223 C.ar    1  UNL1        0.0346
      3 C           6.4011   -1.9395   29.5612 C.ar    1  UNL1        0.0065
      4 C           5.9979   -1.8782   28.1178 C.ar    1  UNL1        0.0432
      5 C           4.6634   -1.3097   27.7354 C.ar    1  UNL1        0.1256
      6 N           3.7323   -0.8026   28.7965 N.ar    1  UNL1       -0.2222
      7 C           6.9289   -2.3853   27.0567 C.ar    1  UNL1        0.0850
      8 C           7.8210   -1.5452   26.1916 C.ar    1  UNL1        0.0991
      9 N           8.5748   -2.4622   25.2746 N.ar    1  UNL1       -0.2265
     10 C           8.1485   -3.8691   25.5729 C.ar    1  UNL1        0.1474
     11 C           8.5552   -5.1873   24.9840 C.ar    1  UNL1        0.0332
     12 C           7.9447   -6.4580   25.4964 C.ar    1  UNL1       -0.0174
     13 C           8.3515   -7.7763   24.9074 C.3     1  UNL1        0.0312
     14 C           6.9275   -6.4105   26.5978 C.ar    1  UNL1        0.0149
     15 C           6.5208   -5.0923   27.1867 C.ar    1  UNL1        0.0811
     16 N           7.1313   -3.8216   26.6743 N.ar    1  UNL1       -0.2888
     17 C           7.9387   -0.0504   26.2358 C.ar    1  UNL1        0.0222
     18 C           7.2629    0.7863   25.1902 C.ar    1  UNL1        0.0222
     19 C           7.3806    2.2810   25.2345 C.ar    1  UNL1        0.0989
     20 N           8.1740    2.9389   26.3243 N.ar    1  UNL1       -0.2423
     21 C           8.8497    2.1022   27.3698 C.ar    1  UNL1        0.0989
     22 C           8.7320    0.6075   27.3256 C.ar    1  UNL1        0.0222
     23 C           3.2370    1.0891   31.6987 C.2     1  UNL1        0.2414
     24 O           4.2005    2.0280   31.0352 O.2     1  UNL1       -0.2733
     25 N           3.2046   -0.3568   31.3011 N.am    1  UNL1       -0.2682
     26 H           2.5722   -0.9730   31.7365 H       1  UNL1        0.1563
     27 C           2.3059    1.5962   32.7599 C.3     1  UNL1        0.1319
     28 C           2.8242    1.8819   34.1382 C.3     1  UNL1        0.0270
     29 C           0.4154    3.1035   31.8093 C.3     1  UNL1        0.0862
     30 N           0.8566    1.8174   32.4427 N.3     1  UNL1       -0.2902
     31 H           0.5754    1.0668   31.8119 H       1  UNL1        0.1237
     32 C           4.2600   -1.2484   26.2920 C.1     1  UNL1       -0.0404
     33 C           3.8567   -1.1870   24.8485 C.1     1  UNL1       -0.0583
     34 C           3.4533   -1.1256   23.4050 C.ar    1  UNL1        0.0420
     35 C           4.0266   -2.1047   22.4239 C.ar    1  UNL1        0.0082
     36 C           3.6233   -2.0434   20.9804 C.ar    1  UNL1        0.0006
     37 C           2.6466   -1.0029   20.5182 C.ar    1  UNL1        0.0000
     38 C           2.0733   -0.0238   21.4994 C.ar    1  UNL1        0.0006
     39 C           2.4766   -0.0852   22.9428 C.ar    1  UNL1        0.0082
@<TRIPOS>BOND
     1    29    30    1
     2    30    27    1
     3    27    28    1
     4    27    23    1
     5    23    24    2
     6    23    25   am
     7    25     1    1
     8     1     2   ar
     9     2     3   ar
    10     3     4   ar
    11     4     7    1
    12     7     8   ar
    13     8    17    1
    14    17    18   ar
    15    18    19   ar
    16    19    20   ar
    17    20    21   ar
    18    21    22   ar
    19     8     9   ar
    20     9    10   ar
    21    10    11   ar
    22    11    12   ar
    23    12    13    1
    24    12    14   ar
    25    14    15   ar
    26    15    16   ar
    27     4     5   ar
    28     5    32    1
    29    32    33    3
    30    33    34    1
    31    34    35   ar
    32    35    36   ar
    33    36    37   ar
    34    37    38   ar
    35    38    39   ar
    36     5     6   ar
    37     6     1   ar
    38    16     7   ar
    39    39    34   ar
    40    22    17   ar
    41    16    10   ar
    42    30    31    1
    43    25    26    1
@<TRIPOS>MOLECULE
*****
 39 43 0 0 0
SMALL
GASTEIGER

@<TRIPOS>ATOM
      1 C           4.7014   -0.0700   35.4103 C.ar    1  UNL1        0.1348
      2 C           6.1202   -0.4914   35.1667 C.ar    1  UNL1        0.0346
      3 C           6.6114   -0.6963   33.7643 C.ar    1  UNL1        0.0065
      4 C           5.6840   -0.4797   32.6055 C.ar    1  UNL1        0.0432
      5 C           4.2651   -0.0582   32.8492 C.ar    1  UNL1        0.1256
      6 N           3.7739    0.1467   34.2516 N.ar    1  UNL1       -0.2222
      7 C           6.1753   -0.6845   31.2031 C.ar    1  UNL1        0.0850
      8 C           6.4475    0.3950   30.1978 C.ar    1  UNL1        0.0991
      9 N           6.9210   -0.2581   28.9332 N.ar    1  UNL1       -0.2265
     10 C           6.9415   -1.7412   29.1570 C.ar    1  UNL1        0.1474
     11 C           7.3202   -2.8857   28.2646 C.ar    1  UNL1        0.0332
     12 C           7.2381   -4.2938   28.7750 C.ar    1  UNL1       -0.0174
     13 C           7.6169   -5.4384   27.8825 C.3     1  UNL1        0.0312
     14 C           6.7772   -4.5574   30.1779 C.ar    1  UNL1        0.0149
     15 C           6.3985   -3.4128   31.0703 C.ar    1  UNL1        0.0811
     16 N           6.4806   -2.0047   30.5599 N.ar    1  UNL1       -0.2888
     17 C           6.2762    1.8687   30.4184 C.ar    1  UNL1        0.0222
     18 C           7.1341    2.5817   31.4213 C.ar    1  UNL1        0.0222
     19 C           6.9628    4.0554   31.6418 C.ar    1  UNL1        0.0989
     20 N           5.9336    4.8162   30.8595 N.ar    1  UNL1       -0.2423
     21 C           5.0758    4.1033   29.8567 C.ar    1  UNL1        0.0989
     22 C           5.2470    2.6295   29.6361 C.ar    1  UNL1        0.0222
     23 C           3.6458    1.4626   37.2233 C.2     1  UNL1        0.2414
     24 O           3.5727    2.5855   36.2315 O.2     1  UNL1       -0.2733
     25 N           4.2101    0.1349   36.8127 N.am    1  UNL1       -0.2682
     26 H           4.2581   -0.6021   37.4637 H       1  UNL1        0.1563
     27 C           3.1545    1.6674   38.6258 C.3     1  UNL1        0.1319
     28 C           3.1103    3.0479   39.2108 C.3     1  UNL1        0.0270
     29 C           1.2542    0.1241   39.4958 C.3     1  UNL1        0.0862
     30 N           2.7076    0.4917   39.4430 N.3     1  UNL1       -0.2902
     31 H           3.2045   -0.3231   39.0831 H       1  UNL1        0.1237
     32 C           3.3376    0.1585   31.6904 C.1     1  UNL1       -0.0404
     33 C           2.4101    0.3751   30.5315 C.1     1  UNL1       -0.0583
     34 C           1.4826    0.5918   29.3728 C.ar    1  UNL1        0.0420
     35 C           0.1319   -0.0606   29.3611 C.ar    1  UNL1        0.0082
     36 C          -0.7956    0.1560   28.2023 C.ar    1  UNL1        0.0006
     37 C          -0.3724    1.0251   27.0552 C.ar    1  UNL1        0.0000
     38 C           0.9782    1.6775   27.0669 C.ar    1  UNL1        0.0006
     39 C           1.9058    1.4608   28.2257 C.ar    1  UNL1        0.0082
@<TRIPOS>BOND
     1    29    30    1
     2    30    27    1
     3    27    28    1
     4    27    23    1
     5    23    24    2
     6    23    25   am
     7    25     1    1
     8     1     2   ar
     9     2     3   ar
    10     3     4   ar
    11     4     7    1
    12     7     8   ar
    13     8    17    1
    14    17    18   ar
    15    18    19   ar
    16    19    20   ar
    17    20    21   ar
    18    21    22   ar
    19     8     9   ar
    20     9    10   ar
    21    10    11   ar
    22    11    12   ar
    23    12    13    1
    24    12    14   ar
    25    14    15   ar
    26    15    16   ar
    27     4     5   ar
    28     5    32    1
    29    32    33    3
    30    33    34    1
    31    34    35   ar
    32    35    36   ar
    33    36    37   ar
    34    37    38   ar
    35    38    39   ar
    36     5     6   ar
    37     6     1   ar
    38    16     7   ar
    39    39    34   ar
    40    22    17   ar
    41    16    10   ar
    42    30    31    1
    43    25    26    1
@<TRIPOS>MOLECULE
*****
 39 43 0 0 0
SMALL
GASTEIGER

@<TRIPOS>ATOM
      1 C           4.8756   -1.1655   29.5882 C.ar    1  UNL1        0.1348
      2 C           4.3866    0.2036   29.9574 C.ar    1  UNL1        0.0346
      3 C           3.8200    1.1073   28.9027 C.ar    1  UNL1        0.0065
      4 C           3.7424    0.6420   27.4789 C.ar    1  UNL1        0.0432
      5 C           4.2315   -0.7272   27.1097 C.ar    1  UNL1        0.1256
      6 N           4.7981   -1.6309   28.1644 N.ar    1  UNL1       -0.2222
      7 C           3.1758    1.5457   26.4242 C.ar    1  UNL1        0.0850
      8 C           3.9615    2.2874   25.3838 C.ar    1  UNL1        0.0991
      9 N           2.9954    3.0664   24.5414 N.ar    1  UNL1       -0.2265
     10 C           1.6126    2.8061   25.0612 C.ar    1  UNL1        0.1474
     11 C           0.2663    3.3036   24.6252 C.ar    1  UNL1        0.0332
     12 C          -0.9684    2.8611   25.3530 C.ar    1  UNL1       -0.0174
     13 C          -2.3148    3.3586   24.9170 C.3     1  UNL1        0.0312
     14 C          -0.8569    1.9212   26.5167 C.ar    1  UNL1        0.0149
     15 C           0.4894    1.4238   26.9526 C.ar    1  UNL1        0.0811
     16 N           1.7241    1.8663   26.2249 N.ar    1  UNL1       -0.2888
     17 C           5.4517    2.2556   25.2154 C.ar    1  UNL1        0.0222
     18 C           6.3381    2.8585   26.2646 C.ar    1  UNL1        0.0222
     19 C           7.8282    2.8267   26.0961 C.ar    1  UNL1        0.0989
     20 N           8.4320    2.1921   24.8784 N.ar    1  UNL1       -0.2423
     21 C           7.5456    1.5893   23.8293 C.ar    1  UNL1        0.0989
     22 C           6.0555    1.6210   23.9977 C.ar    1  UNL1        0.0222
     23 C           6.9267   -2.2532   30.7544 C.2     1  UNL1        0.2414
     24 O           7.8446   -1.5336   29.8112 O.2     1  UNL1       -0.2733
     25 N           5.4422   -2.0692   30.6429 N.am    1  UNL1       -0.2682
     26 H           4.8398   -2.5415   31.2619 H       1  UNL1        0.1563
     27 C           7.4932   -3.1570   31.8091 C.3     1  UNL1        0.1319
     28 C           8.7291   -2.7537   32.5573 C.3     1  UNL1        0.0270
     29 C           6.9951   -5.6299   31.1875 C.3     1  UNL1        0.0862
     30 N           6.8238   -4.4638   32.1155 N.3     1  UNL1       -0.2902
     31 H           7.1648   -4.7622   33.0293 H       1  UNL1        0.1237
     32 C           4.1540   -1.1927   25.6858 C.1     1  UNL1       -0.0404
     33 C           4.0764   -1.6582   24.2620 C.1     1  UNL1       -0.0583
     34 C           3.9989   -2.1236   22.8381 C.ar    1  UNL1        0.0420
     35 C           3.3595   -1.2522   21.7980 C.ar    1  UNL1        0.0082
     36 C           3.2820   -1.7176   20.3742 C.ar    1  UNL1        0.0006
     37 C           3.8438   -3.0545   19.9905 C.ar    1  UNL1        0.0000
     38 C           4.4832   -3.9259   21.0306 C.ar    1  UNL1        0.0006
     39 C           4.5607   -3.4605   22.4545 C.ar    1  UNL1        0.0082
@<TRIPOS>BOND
     1    29    30    1
     2    30    27    1
     3    27    28    1
     4    27    23    1
     5    23    24    2
     6    23    25   am
     7    25     1    1
     8     1     2   ar
     9     2     3   ar
    10     3     4   ar
    11     4     7    1
    12     7     8   ar
    13     8    17    1
    14    17    18   ar
    15    18    19   ar
    16    19    20   ar
    17    20    21   ar
    18    21    22   ar
    19     8     9   ar
    20     9    10   ar
    21    10    11   ar
    22    11    12   ar
    23    12    13    1
    24    12    14   ar
    25    14    15   ar
    26    15    16   ar
    27     4     5   ar
    28     5    32    1
    29    32    33    3
    30    33    34    1
    31    34    35   ar
    32    35    36   ar
    33    36    37   ar
    34    37    38   ar
    35    38    39   ar
    36     5     6   ar
    37     6     1   ar
    38    16     7   ar
    39    39    34   ar
    40    22    17   ar
    41    16    10   ar
    42    30    31    1
    43    25    26    1
@<TRIPOS>MOLECULE
*****
 39 43 0 0 0
SMALL
GASTEIGER

@<TRIPOS>ATOM
      1 C           7.5919   -3.4955   28.1073 C.ar    1  UNL1        0.1348
      2 C           7.2653   -2.3582   29.0292 C.ar    1  UNL1        0.0346
      3 C           6.3438   -1.2653   28.5748 C.ar    1  UNL1        0.0065
      4 C           5.7488   -1.3096   27.1987 C.ar    1  UNL1        0.0432
      5 C           6.0754   -2.4470   26.2767 C.ar    1  UNL1        0.1256
      6 N           6.9969   -3.5399   26.7311 N.ar    1  UNL1       -0.2222
      7 C           4.8273   -0.2168   26.7443 C.ar    1  UNL1        0.0850
      8 C           5.1484    0.8437   25.7332 C.ar    1  UNL1        0.0991
      9 N           3.9424    1.7234   25.5853 N.ar    1  UNL1       -0.2265
     10 C           2.8761    1.2066   26.5050 C.ar    1  UNL1        0.1474
     11 C           1.4778    1.6730   26.7827 C.ar    1  UNL1        0.0332
     12 C           0.6263    0.9402   27.7768 C.ar    1  UNL1       -0.0174
     13 C          -0.7721    1.4067   28.0545 C.3     1  UNL1        0.0312
     14 C           1.1732   -0.2588   28.4932 C.ar    1  UNL1        0.0149
     15 C           2.5715   -0.7252   28.2154 C.ar    1  UNL1        0.0811
     16 N           3.4230    0.0075   27.2213 N.ar    1  UNL1       -0.2888
     17 C           6.4473    0.9974   24.9989 C.ar    1  UNL1        0.0222
     18 C           6.4861    0.8571   23.5060 C.ar    1  UNL1        0.0222
     19 C           7.7850    1.0108   22.7718 C.ar    1  UNL1        0.0989
     20 N           9.0451    1.3049   23.5305 N.ar    1  UNL1       -0.2423
     21 C           9.0063    1.4452   25.0234 C.ar    1  UNL1        0.0989
     22 C           7.7074    1.2915   25.7576 C.ar    1  UNL1        0.0222
     23 C           7.9887   -5.7062   29.4132 C.2     1  UNL1        0.2414
     24 O           6.5425   -5.7311   29.8104 O.2     1  UNL1       -0.2733
     25 N           8.5134   -4.5883   28.5616 N.am    1  UNL1       -0.2682
     26 H           9.4626   -4.5719   28.3009 H       1  UNL1        0.1563
     27 C           8.9103   -6.7990   29.8675 C.3     1  UNL1        0.1319
     28 C           9.5324   -6.7369   31.2310 C.3     1  UNL1        0.0270
     29 C           8.5985   -8.0089   27.5896 C.3     1  UNL1        0.0862
     30 N           9.2098   -7.9539   28.9583 N.3     1  UNL1       -0.2902
     31 H          10.2215   -7.9729   28.8299 H       1  UNL1        0.1237
     32 C           5.4804   -2.4914   24.9005 C.1     1  UNL1       -0.0404
     33 C           4.8855   -2.5358   23.5242 C.1     1  UNL1       -0.0583
     34 C           4.2905   -2.5802   22.1479 C.ar    1  UNL1        0.0420
     35 C           3.3963   -1.4700   21.6813 C.ar    1  UNL1        0.0082
     36 C           2.8013   -1.5145   20.3050 C.ar    1  UNL1        0.0006
     37 C           3.1006   -2.6691   19.3955 C.ar    1  UNL1        0.0000
     38 C           3.9949   -3.7793   19.8622 C.ar    1  UNL1        0.0006
     39 C           4.5898   -3.7349   21.2384 C.ar    1  UNL1        0.0082
@<TRIPOS>BOND
     1    29    30    1
     2    30    27    1
     3    27    28    1
     4    27    23    1
     5    23    24    2
     6    23    25   am
     7    25     1    1
     8     1     2   ar
     9     2     3   ar
    10     3     4   ar
    11     4     7    1
    12     7     8   ar
    13     8    17    1
    14    17    18   ar
    15    18    19   ar
    16    19    20   ar
    17    20    21   ar
    18    21    22   ar
    19     8     9   ar
    20     9    10   ar
    21    10    11   ar
    22    11    12   ar
    23    12    13    1
    24    12    14   ar
    25    14    15   ar
    26    15    16   ar
    27     4     5   ar
    28     5    32    1
    29    32    33    3
    30    33    34    1
    31    34    35   ar
    32    35    36   ar
    33    36    37   ar
    34    37    38   ar
    35    38    39   ar
    36     5     6   ar
    37     6     1   ar
    38    16     7   ar
    39    39    34   ar
    40    22    17   ar
    41    16    10   ar
    42    30    31    1
    43    25    26    1
@<TRIPOS>MOLECULE
*****
 39 43 0 0 0
SMALL
GASTEIGER

@<TRIPOS>ATOM
      1 C           3.5697   -0.7376   24.8404 C.ar    1  UNL1        0.1348
      2 C           4.9092   -1.0491   24.2418 C.ar    1  UNL1        0.0346
      3 C           5.2162   -0.6342   22.8334 C.ar    1  UNL1        0.0065
      4 C           4.1836    0.0924   22.0236 C.ar    1  UNL1        0.0432
      5 C           2.8439    0.4040   22.6223 C.ar    1  UNL1        0.1256
      6 N           2.5370   -0.0110   24.0307 N.ar    1  UNL1       -0.2222
      7 C           4.4905    0.5074   20.6152 C.ar    1  UNL1        0.0850
      8 C           4.7333   -0.4149   19.4574 C.ar    1  UNL1        0.0991
      9 N           5.0013    0.4252   18.2439 N.ar    1  UNL1       -0.2265
     10 C           4.9242    1.8666   18.6518 C.ar    1  UNL1        0.1474
     11 C           5.1007    3.1394   17.8781 C.ar    1  UNL1        0.0332
     12 C           4.9615    4.4631   18.5699 C.ar    1  UNL1       -0.0174
     13 C           5.1380    5.7360   17.7961 C.3     1  UNL1        0.0312
     14 C           4.6458    4.5139   20.0354 C.ar    1  UNL1        0.0149
     15 C           4.4693    3.2411   20.8092 C.ar    1  UNL1        0.0811
     16 N           4.6085    1.9174   20.1174 N.ar    1  UNL1       -0.2888
     17 C           4.7117   -1.9140   19.5047 C.ar    1  UNL1        0.0222
     18 C           3.4460   -2.6561   19.1928 C.ar    1  UNL1        0.0222
     19 C           3.4246   -4.1552   19.2402 C.ar    1  UNL1        0.0989
     20 N           4.6687   -4.9121   19.5994 N.ar    1  UNL1       -0.2423
     21 C           5.9344   -4.1700   19.9113 C.ar    1  UNL1        0.0989
     22 C           5.9559   -2.6709   19.8639 C.ar    1  UNL1        0.0222
     23 C           3.2153   -0.1246   27.3402 C.2     1  UNL1        0.2414
     24 O           3.4747    1.3184   27.0231 O.2     1  UNL1       -0.2733
     25 N           3.2628   -1.1525   26.2488 N.am    1  UNL1       -0.2682
     26 H           3.0925   -2.0996   26.4570 H       1  UNL1        0.1563
     27 C           2.9084   -0.5397   28.7486 C.3     1  UNL1        0.1319
     28 C           4.0111   -0.6281   29.7615 C.3     1  UNL1        0.0270
     29 C           0.3873    0.0847   28.8116 C.3     1  UNL1        0.0862
     30 N           1.4988   -0.8662   29.1439 N.3     1  UNL1       -0.2902
     31 H           1.2674   -1.7557   28.7016 H       1  UNL1        0.1237
     32 C           1.8112    1.1305   21.8126 C.1     1  UNL1       -0.0404
     33 C           0.7785    1.8572   21.0028 C.1     1  UNL1       -0.0583
     34 C          -0.2541    2.5838   20.1931 C.ar    1  UNL1        0.0420
     35 C          -1.5881    2.9091   20.7969 C.ar    1  UNL1        0.0082
     36 C          -2.6208    3.6356   19.9872 C.ar    1  UNL1        0.0006
     37 C          -2.3194    4.0369   18.5736 C.ar    1  UNL1        0.0000
     38 C          -0.9854    3.7115   17.9697 C.ar    1  UNL1        0.0006
     39 C           0.0473    2.9850   18.7795 C.ar    1  UNL1        0.0082
@<TRIPOS>BOND
     1    29    30    1
     2    30    27    1
     3    27    28    1
     4    27    23    1
     5    23    24    2
     6    23    25   am
     7    25     1    1
     8     1     2   ar
     9     2     3   ar
    10     3     4   ar
    11     4     7    1
    12     7     8   ar
    13     8    17    1
    14    17    18   ar
    15    18    19   ar
    16    19    20   ar
    17    20    21   ar
    18    21    22   ar
    19     8     9   ar
    20     9    10   ar
    21    10    11   ar
    22    11    12   ar
    23    12    13    1
    24    12    14   ar
    25    14    15   ar
    26    15    16   ar
    27     4     5   ar
    28     5    32    1
    29    32    33    3
    30    33    34    1
    31    34    35   ar
    32    35    36   ar
    33    36    37   ar
    34    37    38   ar
    35    38    39   ar
    36     5     6   ar
    37     6     1   ar
    38    16     7   ar
    39    39    34   ar
    40    22    17   ar
    41    16    10   ar
    42    30    31    1
    43    25    26    1
@<TRIPOS>MOLECULE
*****
 39 43 0 0 0
SMALL
GASTEIGER

@<TRIPOS>ATOM
      1 C          -0.2915    1.9259   20.5264 C.ar    1  UNL1        0.1348
      2 C           0.1632    1.9137   19.0970 C.ar    1  UNL1        0.0346
      3 C           1.4429    1.2264   18.7228 C.ar    1  UNL1        0.0065
      4 C           2.2679    0.5513   19.7779 C.ar    1  UNL1        0.0432
      5 C           1.8132    0.5634   21.2074 C.ar    1  UNL1        0.1256
      6 N           0.5335    1.2507   21.5816 N.ar    1  UNL1       -0.2222
      7 C           3.5476   -0.1360   19.4037 C.ar    1  UNL1        0.0850
      8 C           4.8551    0.5363   19.1060 C.ar    1  UNL1        0.0991
      9 N           5.8600   -0.5285   18.7798 N.ar    1  UNL1       -0.2265
     10 C           5.1737   -1.8588   18.8761 C.ar    1  UNL1        0.1474
     11 C           5.6655   -3.2596   18.6624 C.ar    1  UNL1        0.0332
     12 C           4.7281   -4.4180   18.8343 C.ar    1  UNL1       -0.0174
     13 C           5.2199   -5.8189   18.6206 C.3     1  UNL1        0.0312
     14 C           3.2989   -4.1755   19.2199 C.ar    1  UNL1        0.0149
     15 C           2.8072   -2.7746   19.4336 C.ar    1  UNL1        0.0811
     16 N           3.7445   -1.6162   19.2617 N.ar    1  UNL1       -0.2888
     17 C           5.1123    2.0138   19.1301 C.ar    1  UNL1        0.0222
     18 C           4.9967    2.8160   17.8679 C.ar    1  UNL1        0.0222
     19 C           5.2540    4.2935   17.8921 C.ar    1  UNL1        0.0989
     20 N           5.6268    4.9689   19.1784 N.ar    1  UNL1       -0.2423
     21 C           5.7423    4.1668   20.4406 C.ar    1  UNL1        0.0989
     22 C           5.4851    2.6893   20.4165 C.ar    1  UNL1        0.0222
     23 C          -1.5499    3.7697   21.8555 C.2     1  UNL1        0.2414
     24 O          -0.2490    4.2390   22.4363 O.2     1  UNL1       -0.2733
     25 N          -1.5712    2.6132   20.9005 N.am    1  UNL1       -0.2682
     26 H          -2.4250    2.3052   20.5193 H       1  UNL1        0.1563
     27 C          -2.8297    4.4570   22.2296 C.3     1  UNL1        0.1319
     28 C          -2.8946    5.9552   22.2622 C.3     1  UNL1        0.0270
     29 C          -4.4167    3.4210   24.0066 C.3     1  UNL1        0.0862
     30 N          -4.0445    3.6460   22.5710 N.3     1  UNL1       -0.2902
     31 H          -4.8400    4.1070   22.1293 H       1  UNL1        0.1237
     32 C           2.6383   -0.1118   22.2626 C.1     1  UNL1       -0.0404
     33 C           3.4633   -0.7870   23.3178 C.1     1  UNL1       -0.0583
     34 C           4.2884   -1.4622   24.3730 C.ar    1  UNL1        0.0420
     35 C           4.0604   -1.1439   25.8210 C.ar    1  UNL1        0.0082
     36 C           4.8854   -1.8191   26.8762 C.ar    1  UNL1        0.0006
     37 C           5.9384   -2.8125   26.4833 C.ar    1  UNL1        0.0000
     38 C           6.1664   -3.1308   25.0353 C.ar    1  UNL1        0.0006
     39 C           5.3414   -2.4556   23.9801 C.ar    1  UNL1        0.0082
@<TRIPOS>BOND
     1    29    30    1
     2    30    27    1
     3    27    28    1
     4    27    23    1
     5    23    24    2
     6    23    25   am
     7    25     1    1
     8     1     2   ar
     9     2     3   ar
    10     3     4   ar
    11     4     7    1
    12     7     8   ar
    13     8    17    1
    14    17    18   ar
    15    18    19   ar
    16    19    20   ar
    17    20    21   ar
    18    21    22   ar
    19     8     9   ar
    20     9    10   ar
    21    10    11   ar
    22    11    12   ar
    23    12    13    1
    24    12    14   ar
    25    14    15   ar
    26    15    16   ar
    27     4     5   ar
    28     5    32    1
    29    32    33    3
    30    33    34    1
    31    34    35   ar
    32    35    36   ar
    33    36    37   ar
    34    37    38   ar
    35    38    39   ar
    36     5     6   ar
    37     6     1   ar
    38    16     7   ar
    39    39    34   ar
    40    22    17   ar
    41    16    10   ar
    42    30    31    1
    43    25    26    1
