@<TRIPOS>MOLECULE
*****
 40 44 0 0 0
SMALL
GASTEIGER

@<TRIPOS>ATOM
      1 C           5.0617   -2.8178   19.9631 C.ar    1  UNL1        0.0951
      2 C           6.4653   -2.8504   19.4351 C.ar    1  UNL1        0.1454
      3 F           7.4855   -3.7470   20.0718 F       1  UNL1       -0.2040
      4 C           6.8488   -1.9863   18.2705 C.ar    1  UNL1        0.0312
      5 C           5.8287   -1.0897   17.6338 C.ar    1  UNL1        0.0204
      6 C           4.4250   -1.0572   18.1617 C.ar    1  UNL1        0.0924
      7 C           4.0416   -1.9213   19.3264 C.ar    1  UNL1        0.1598
      8 F           2.6379   -1.8886   19.8542 F       1  UNL1       -0.2026
      9 C           4.6782   -3.6819   21.1277 C.2     1  UNL1        0.2036
     10 O           4.0732   -5.0339   20.8913 O.2     1  UNL1       -0.2863
     11 C           2.5873   -0.0451   23.6011 C.2     1  UNL1        0.0322
     12 C           3.1202    0.0919   24.9965 C.2     1  UNL1        0.2321
     13 N           4.1862   -0.8423   25.4872 N.2     1  UNL1       -0.0311
     14 C           4.7193   -1.9135   24.5826 C.2     1  UNL1        0.3721
     15 N           5.7621   -2.9723   24.7866 N.2     1  UNL1       -0.0307
     16 C           5.8736   -3.7636   23.5172 C.2     1  UNL1        0.2390
     17 C           4.8998   -3.1939   22.5287 C.2     1  UNL1        0.0896
     18 C           4.1864   -2.0504   23.1871 C.2     1  UNL1        0.0774
     19 C           3.1204   -1.1162   22.6964 C.3     1  UNL1        0.0647
     20 C          -0.6108    2.7576   22.1287 C.ar    1  UNL1        0.3201
     21 N          -0.2226    1.5645   21.3066 N.ar    1  UNL1       -0.1927
     22 C           0.8435    0.6303   21.7974 C.ar    1  UNL1        0.1050
     23 C           1.5212    0.8891   23.1103 C.ar    1  UNL1        0.0386
     24 C           1.1330    2.0822   23.9324 C.ar    1  UNL1        0.1050
     25 N           0.0670    3.0164   23.4416 N.ar    1  UNL1       -0.1927
     26 C          -2.4830    3.3381   20.4235 C.3     1  UNL1        0.2559
     27 O          -1.6768    3.6918   21.6380 O.3     1  UNL1       -0.4426
     28 N           3.4049   -0.1606   17.5250 N.pl3   1  UNL1       -0.2127
     29 H           3.0249   -0.3929   16.6471 H       1  UNL1        0.1738
     30 S           2.9637    1.0900   18.2261 S.O2    1  UNL1        0.0759
     31 O           4.3247    1.6857   18.0199 O.2     1  UNL1       -0.1499
     32 O           1.6026    0.4942   18.4324 O.2     1  UNL1       -0.1499
     33 C           2.5225    2.3405   18.9272 C.ar    1  UNL1        0.1547
     34 C           1.4798    3.2211   18.3050 C.ar    1  UNL1        0.0521
     35 C           1.0386    4.4716   19.0060 C.ar    1  UNL1        0.1416
     36 F          -0.0042    5.3522   18.3837 F       1  UNL1       -0.2041
     37 C           1.6401    4.8416   20.3294 C.ar    1  UNL1        0.0320
     38 C           2.6828    3.9610   20.9517 C.ar    1  UNL1        0.0333
     39 C           3.1241    2.7105   20.2506 C.ar    1  UNL1        0.1590
     40 F           4.1668    1.8300   20.8729 F       1  UNL1       -0.2027
@<TRIPOS>BOND
     1    26    27    1
     2    27    20    1
     3    20    21   ar
     4    21    22   ar
     5    22    23   ar
     6    23    11    1
     7    11    12    2
     8    12    13    1
     9    13    14    2
    10    14    15    1
    11    15    16    2
    12    16    17    1
    13    17     9    1
    14     9    10    2
    15     9     1    1
    16     1     2   ar
    17     2     3    1
    18     2     4   ar
    19     4     5   ar
    20     5     6   ar
    21     6    28    1
    22    28    30    1
    23    30    31    2
    24    30    32    2
    25    30    33    1
    26    33    34   ar
    27    34    35   ar
    28    35    36    1
    29    35    37   ar
    30    37    38   ar
    31    38    39   ar
    32    39    40    1
    33     6     7   ar
    34     7     8    1
    35    17    18    2
    36    18    19    1
    37    23    24   ar
    38    24    25   ar
    39    25    20   ar
    40    19    11    1
    41    18    14    1
    42     7     1   ar
    43    39    33   ar
    44    28    29    1
@<TRIPOS>MOLECULE
*****
 40 44 0 0 0
SMALL
GASTEIGER

@<TRIPOS>ATOM
      1 C           5.0454   -3.3036   22.5480 C.ar    1  UNL1        0.0951
      2 C           4.2181   -2.2544   23.2297 C.ar    1  UNL1        0.1454
      3 F           2.9902   -1.7144   22.5584 F       1  UNL1       -0.2040
      4 C           4.6186   -1.7453   24.5826 C.ar    1  UNL1        0.0312
      5 C           5.8465   -2.2853   25.2538 C.ar    1  UNL1        0.0204
      6 C           6.6739   -3.3345   24.5722 C.ar    1  UNL1        0.0924
      7 C           6.2733   -3.8437   23.2193 C.ar    1  UNL1        0.1598
      8 F           7.1007   -4.8928   22.5377 F       1  UNL1       -0.2026
      9 C           4.6449   -3.8128   21.1951 C.2     1  UNL1        0.2036
     10 O           3.8312   -5.0673   21.0767 O.2     1  UNL1       -0.2863
     11 C           2.7598    0.1531   19.0893 C.2     1  UNL1        0.0322
     12 C           3.5001    0.5622   17.8506 C.2     1  UNL1        0.2321
     13 N           4.6860   -0.2319   17.3890 N.2     1  UNL1       -0.0311
     14 C           5.1314   -1.4352   18.1661 C.2     1  UNL1        0.3721
     15 N           6.2560   -2.4055   17.9564 N.2     1  UNL1       -0.0307
     16 C           6.2106   -3.4142   19.0656 C.2     1  UNL1        0.2390
     17 C           5.0580   -3.0674   19.9607 C.2     1  UNL1        0.0896
     18 C           4.3910   -1.8442   19.4048 C.2     1  UNL1        0.0774
     19 C           3.2052   -1.0501   19.8664 C.3     1  UNL1        0.0647
     20 C          -0.7978    2.5354   20.4744 C.ar    1  UNL1        0.3201
     21 N          -0.1918    2.8058   19.1292 N.ar    1  UNL1       -0.1927
     22 C           0.9941    2.0117   18.6675 C.ar    1  UNL1        0.1050
     23 C           1.5739    0.9472   19.5510 C.ar    1  UNL1        0.0386
     24 C           0.9679    0.6768   20.8962 C.ar    1  UNL1        0.1050
     25 N          -0.2180    1.4709   21.3580 N.ar    1  UNL1       -0.1927
     26 C          -3.2472    3.3293   20.1278 C.3     1  UNL1        0.2559
     27 O          -1.9837    3.3295   20.9361 O.3     1  UNL1       -0.4426
     28 N           7.9018   -3.8745   25.2434 N.pl3   1  UNL1       -0.2127
     29 H           8.7466   -3.9432   24.7427 H       1  UNL1        0.1738
     30 S           7.8424   -4.3099   26.6777 S.O2    1  UNL1        0.0759
     31 O           8.7677   -3.1915   27.0556 O.2     1  UNL1       -0.1499
     32 O           6.9170   -5.4284   26.2998 O.2     1  UNL1       -0.1499
     33 C           7.7829   -4.7453   28.1119 C.ar    1  UNL1        0.1547
     34 C           6.9109   -4.0076   29.0841 C.ar    1  UNL1        0.0521
     35 C           6.8514   -4.4430   30.5183 C.ar    1  UNL1        0.1416
     36 F           5.9793   -3.7052   31.4905 F       1  UNL1       -0.2041
     37 C           7.6640   -5.6162   30.9803 C.ar    1  UNL1        0.0320
     38 C           8.5360   -6.3539   30.0080 C.ar    1  UNL1        0.0333
     39 C           8.5955   -5.9185   28.5738 C.ar    1  UNL1        0.1590
     40 F           9.4676   -6.6562   27.6017 F       1  UNL1       -0.2027
@<TRIPOS>BOND
     1    26    27    1
     2    27    20    1
     3    20    21   ar
     4    21    22   ar
     5    22    23   ar
     6    23    11    1
     7    11    12    2
     8    12    13    1
     9    13    14    2
    10    14    15    1
    11    15    16    2
    12    16    17    1
    13    17     9    1
    14     9    10    2
    15     9     1    1
    16     1     2   ar
    17     2     3    1
    18     2     4   ar
    19     4     5   ar
    20     5     6   ar
    21     6    28    1
    22    28    30    1
    23    30    31    2
    24    30    32    2
    25    30    33    1
    26    33    34   ar
    27    34    35   ar
    28    35    36    1
    29    35    37   ar
    30    37    38   ar
    31    38    39   ar
    32    39    40    1
    33     6     7   ar
    34     7     8    1
    35    17    18    2
    36    18    19    1
    37    23    24   ar
    38    24    25   ar
    39    25    20   ar
    40    19    11    1
    41    18    14    1
    42     7     1   ar
    43    39    33   ar
    44    28    29    1
@<TRIPOS>MOLECULE
*****
 40 44 0 0 0
SMALL
GASTEIGER

@<TRIPOS>ATOM
      1 C           0.3287    2.5731   25.0581 C.ar    1  UNL1        0.0951
      2 C          -0.9344    3.1786   25.5946 C.ar    1  UNL1        0.1454
      3 F          -1.6116    4.2877   24.8453 F       1  UNL1       -0.2040
      4 C          -1.5203    2.6751   26.8803 C.ar    1  UNL1        0.0312
      5 C          -0.8431    1.5660   27.6296 C.ar    1  UNL1        0.0204
      6 C           0.4200    0.9605   27.0930 C.ar    1  UNL1        0.0924
      7 C           1.0059    1.4641   25.8073 C.ar    1  UNL1        0.1598
      8 F           2.2690    0.8585   25.2709 F       1  UNL1       -0.2026
      9 C           0.9147    3.0767   23.7723 C.2     1  UNL1        0.2036
     10 O           1.9843    4.1280   23.7966 O.2     1  UNL1       -0.2863
     11 C           2.3838   -0.7883   21.1995 C.2     1  UNL1        0.0322
     12 C           1.6098   -0.9694   19.9275 C.2     1  UNL1        0.2321
     13 N           0.5152   -0.0072   19.5722 N.2     1  UNL1       -0.0311
     14 C           0.1947    1.1360   20.4890 C.2     1  UNL1        0.3721
     15 N          -0.8215    2.2361   20.4042 N.2     1  UNL1       -0.0307
     16 C          -0.6755    3.0969   21.6238 C.2     1  UNL1        0.2390
     17 C           0.4309    2.5289   22.4624 C.2     1  UNL1        0.0896
     18 C           0.9688    1.3170   21.7610 C.2     1  UNL1        0.0774
     19 C           2.0633    0.3548   22.1163 C.3     1  UNL1        0.0647
     20 C           5.6675   -3.6748   22.2654 C.ar    1  UNL1        0.3201
     21 N           5.1927   -3.5697   20.8465 N.ar    1  UNL1       -0.1927
     22 C           4.0981   -2.6075   20.4912 C.ar    1  UNL1        0.1050
     23 C           3.4784   -1.7505   21.5548 C.ar    1  UNL1        0.0386
     24 C           3.9532   -1.8555   22.9738 C.ar    1  UNL1        0.1050
     25 N           5.0477   -2.8176   23.3291 N.ar    1  UNL1       -0.1927
     26 C           8.0981   -4.5351   21.9467 C.3     1  UNL1        0.2559
     27 O           6.7620   -4.6369   22.6208 O.3     1  UNL1       -0.4426
     28 N           1.0972   -0.1486   27.8423 N.pl3   1  UNL1       -0.2127
     29 H           1.1813   -1.0398   27.4326 H       1  UNL1        0.1738
     30 S           1.6464    0.1004   29.2158 S.O2    1  UNL1        0.0759
     31 O           2.9221    0.6098   28.6135 O.2     1  UNL1       -0.1499
     32 O           0.3706   -0.4091   29.8182 O.2     1  UNL1       -0.1499
     33 C           2.1954    0.3492   30.5893 C.ar    1  UNL1        0.1547
     34 C           3.1955   -0.5996   31.1806 C.ar    1  UNL1        0.0521
     35 C           3.7445   -0.3507   32.5541 C.ar    1  UNL1        0.1416
     36 F           4.7446   -1.2997   33.1453 F       1  UNL1       -0.2041
     37 C           3.2936    0.8470   33.3364 C.ar    1  UNL1        0.0320
     38 C           2.2936    1.7959   32.7452 C.ar    1  UNL1        0.0333
     39 C           1.7445    1.5470   31.3716 C.ar    1  UNL1        0.1590
     40 F           0.7445    2.4959   30.7805 F       1  UNL1       -0.2027
@<TRIPOS>BOND
     1    26    27    1
     2    27    20    1
     3    20    21   ar
     4    21    22   ar
     5    22    23   ar
     6    23    11    1
     7    11    12    2
     8    12    13    1
     9    13    14    2
    10    14    15    1
    11    15    16    2
    12    16    17    1
    13    17     9    1
    14     9    10    2
    15     9     1    1
    16     1     2   ar
    17     2     3    1
    18     2     4   ar
    19     4     5   ar
    20     5     6   ar
    21     6    28    1
    22    28    30    1
    23    30    31    2
    24    30    32    2
    25    30    33    1
    26    33    34   ar
    27    34    35   ar
    28    35    36    1
    29    35    37   ar
    30    37    38   ar
    31    38    39   ar
    32    39    40    1
    33     6     7   ar
    34     7     8    1
    35    17    18    2
    36    18    19    1
    37    23    24   ar
    38    24    25   ar
    39    25    20   ar
    40    19    11    1
    41    18    14    1
    42     7     1   ar
    43    39    33   ar
    44    28    29    1
@<TRIPOS>MOLECULE
*****
 40 44 0 0 0
SMALL
GASTEIGER

@<TRIPOS>ATOM
      1 C           6.5675   -2.6085   25.8207 C.ar    1  UNL1        0.0951
      2 C           5.3497   -1.8410   26.2424 C.ar    1  UNL1        0.1454
      3 F           5.2386   -1.3223   27.6455 F       1  UNL1       -0.2040
      4 C           4.2429   -1.5921   25.2610 C.ar    1  UNL1        0.0312
      5 C           4.3539   -2.1107   23.8579 C.ar    1  UNL1        0.0204
      6 C           5.5717   -2.8782   23.4362 C.ar    1  UNL1        0.0924
      7 C           6.6785   -3.1271   24.4176 C.ar    1  UNL1        0.1598
      8 F           7.8962   -3.8946   23.9958 F       1  UNL1       -0.2026
      9 C           7.6742   -2.8574   26.8021 C.2     1  UNL1        0.2036
     10 O           8.7604   -1.8386   26.9817 O.2     1  UNL1       -0.2863
     11 C           6.5031   -3.7032   31.4528 C.2     1  UNL1        0.0322
     12 C           6.6754   -5.1409   31.8443 C.2     1  UNL1        0.2321
     13 N           7.1634   -6.1392   30.8368 N.2     1  UNL1       -0.0311
     14 C           7.4791   -5.6999   29.4378 C.2     1  UNL1        0.3721
     15 N           7.9737   -6.4512   28.2373 N.2     1  UNL1       -0.0307
     16 C           8.1070   -5.4778   27.1039 C.2     1  UNL1        0.2390
     17 C           7.6948   -4.1250   27.6038 C.2     1  UNL1        0.0896
     18 C           7.3067   -4.2622   29.0462 C.2     1  UNL1        0.0774
     19 C           6.8187   -3.2639   30.0537 C.3     1  UNL1        0.0647
     20 C           5.0389   -0.7079   34.4753 C.ar    1  UNL1        0.3201
     21 N           6.4359   -0.6096   33.9379 N.ar    1  UNL1       -0.1927
     22 C           6.9239   -1.6080   32.9304 C.ar    1  UNL1        0.1050
     23 C           6.0150   -2.7047   32.4603 C.ar    1  UNL1        0.0386
     24 C           4.6180   -2.8031   32.9977 C.ar    1  UNL1        0.1050
     25 N           4.1300   -1.8047   34.0051 N.ar    1  UNL1       -0.1927
     26 C           5.1178    0.2929   36.8714 C.3     1  UNL1        0.2559
     27 O           4.5509    0.2904   35.4827 O.3     1  UNL1       -0.4426
     28 N           5.6827   -3.3969   22.0331 N.pl3   1  UNL1       -0.2127
     29 H           6.1503   -4.2452   21.8574 H       1  UNL1        0.1738
     30 S           5.0813   -2.6228   20.8977 S.O2    1  UNL1        0.0759
     31 O           6.0951   -1.5363   21.1013 O.2     1  UNL1       -0.1499
     32 O           4.0674   -3.7093   20.6940 O.2     1  UNL1       -0.1499
     33 C           4.4799   -1.8488   19.7622 C.ar    1  UNL1        0.1547
     34 C           3.2693   -0.9943   19.9952 C.ar    1  UNL1        0.0521
     35 C           2.6678   -0.2203   18.8597 C.ar    1  UNL1        0.1416
     36 F           1.4572    0.6343   19.0928 F       1  UNL1       -0.2041
     37 C           3.2769   -0.3009   17.4914 C.ar    1  UNL1        0.0320
     38 C           4.4875   -1.1554   17.2584 C.ar    1  UNL1        0.0333
     39 C           5.0890   -1.9294   18.3938 C.ar    1  UNL1        0.1590
     40 F           6.2995   -2.7839   18.1608 F       1  UNL1       -0.2027
@<TRIPOS>BOND
     1    26    27    1
     2    27    20    1
     3    20    21   ar
     4    21    22   ar
     5    22    23   ar
     6    23    11    1
     7    11    12    2
     8    12    13    1
     9    13    14    2
    10    14    15    1
    11    15    16    2
    12    16    17    1
    13    17     9    1
    14     9    10    2
    15     9     1    1
    16     1     2   ar
    17     2     3    1
    18     2     4   ar
    19     4     5   ar
    20     5     6   ar
    21     6    28    1
    22    28    30    1
    23    30    31    2
    24    30    32    2
    25    30    33    1
    26    33    34   ar
    27    34    35   ar
    28    35    36    1
    29    35    37   ar
    30    37    38   ar
    31    38    39   ar
    32    39    40    1
    33     6     7   ar
    34     7     8    1
    35    17    18    2
    36    18    19    1
    37    23    24   ar
    38    24    25   ar
    39    25    20   ar
    40    19    11    1
    41    18    14    1
    42     7     1   ar
    43    39    33   ar
    44    28    29    1
@<TRIPOS>MOLECULE
*****
 40 44 0 0 0
SMALL
GASTEIGER

@<TRIPOS>ATOM
      1 C           3.5055    0.4929   18.5314 C.ar    1  UNL1        0.0951
      2 C           4.4917    1.3233   19.2982 C.ar    1  UNL1        0.1454
      3 F           5.9196    0.8781   19.4110 F       1  UNL1       -0.2040
      4 C           4.0498    2.5989   19.9521 C.ar    1  UNL1        0.0312
      5 C           2.6219    3.0441   19.8394 C.ar    1  UNL1        0.0204
      6 C           1.6358    2.2137   19.0726 C.ar    1  UNL1        0.0924
      7 C           2.0776    0.9381   18.4186 C.ar    1  UNL1        0.1598
      8 F           1.0914    0.1078   17.6519 F       1  UNL1       -0.2026
      9 C           3.9474   -0.7827   17.8775 C.2     1  UNL1        0.2036
     10 O           3.8991   -0.9157   16.3842 O.2     1  UNL1       -0.2863
     11 C           3.7419   -1.5184   22.6871 C.2     1  UNL1        0.0322
     12 C           4.3647   -2.8175   23.1044 C.2     1  UNL1        0.2321
     13 N           4.9627   -3.7280   22.0733 N.2     1  UNL1       -0.0311
     14 C           4.9380   -3.3393   20.6247 C.2     1  UNL1        0.3721
     15 N           5.4452   -4.0273   19.3921 N.2     1  UNL1       -0.0307
     16 C           5.1359   -3.1533   18.2129 C.2     1  UNL1        0.2390
     17 C           4.4375   -1.9252   18.7168 C.2     1  UNL1        0.0896
     18 C           4.3151   -2.0401   20.2073 C.2     1  UNL1        0.0774
     19 C           3.7171   -1.1297   21.2385 C.3     1  UNL1        0.0647
     20 C           1.9476    1.2132   25.7806 C.ar    1  UNL1        0.3201
     21 N           2.9370    0.1630   26.1908 N.ar    1  UNL1       -0.1927
     22 C           3.5351   -0.7475   25.1596 C.ar    1  UNL1        0.1050
     23 C           3.1438   -0.6079   23.7183 C.ar    1  UNL1        0.0386
     24 C           2.1544    0.4423   23.3081 C.ar    1  UNL1        0.1050
     25 N           1.5563    1.3528   24.3392 N.ar    1  UNL1       -0.1927
     26 C           0.2654    1.6206   27.7181 C.3     1  UNL1        0.2559
     27 O           1.3495    2.1237   26.8117 O.3     1  UNL1       -0.4426
     28 N           0.2078    2.6589   18.9598 N.pl3   1  UNL1       -0.2127
     29 H          -0.2056    2.7669   18.0728 H       1  UNL1        0.1738
     30 S          -0.5904    2.9394   20.1985 S.O2    1  UNL1        0.0759
     31 O          -0.5531    1.4824   20.5526 O.2     1  UNL1       -0.1499
     32 O          -0.6277    4.3966   19.8444 O.2     1  UNL1       -0.1499
     33 C          -1.3885    3.2200   21.4371 C.ar    1  UNL1        0.1547
     34 C          -0.6935    3.3823   22.7564 C.ar    1  UNL1        0.0521
     35 C          -1.4917    3.6630   23.9951 C.ar    1  UNL1        0.1416
     36 F          -0.7965    3.8253   25.3144 F       1  UNL1       -0.2041
     37 C          -2.9848    3.7813   23.9144 C.ar    1  UNL1        0.0320
     38 C          -3.6798    3.6189   22.5951 C.ar    1  UNL1        0.0333
     39 C          -2.8817    3.3383   21.3565 C.ar    1  UNL1        0.1590
     40 F          -3.5767    3.1760   20.0372 F       1  UNL1       -0.2027
@<TRIPOS>BOND
     1    26    27    1
     2    27    20    1
     3    20    21   ar
     4    21    22   ar
     5    22    23   ar
     6    23    11    1
     7    11    12    2
     8    12    13    1
     9    13    14    2
    10    14    15    1
    11    15    16    2
    12    16    17    1
    13    17     9    1
    14     9    10    2
    15     9     1    1
    16     1     2   ar
    17     2     3    1
    18     2     4   ar
    19     4     5   ar
    20     5     6   ar
    21     6    28    1
    22    28    30    1
    23    30    31    2
    24    30    32    2
    25    30    33    1
    26    33    34   ar
    27    34    35   ar
    28    35    36    1
    29    35    37   ar
    30    37    38   ar
    31    38    39   ar
    32    39    40    1
    33     6     7   ar
    34     7     8    1
    35    17    18    2
    36    18    19    1
    37    23    24   ar
    38    24    25   ar
    39    25    20   ar
    40    19    11    1
    41    18    14    1
    42     7     1   ar
    43    39    33   ar
    44    28    29    1
@<TRIPOS>MOLECULE
*****
 40 44 0 0 0
SMALL
GASTEIGER

@<TRIPOS>ATOM
      1 C          -0.6614    3.1956   23.4425 C.ar    1  UNL1        0.0951
      2 C           0.4224    2.7915   22.4874 C.ar    1  UNL1        0.1454
      3 F           0.5806    3.5149   21.1830 F       1  UNL1       -0.2040
      4 C           1.3478    1.6639   22.8368 C.ar    1  UNL1        0.0312
      5 C           1.1896    0.9405   24.1413 C.ar    1  UNL1        0.0204
      6 C           0.1059    1.3447   25.0963 C.ar    1  UNL1        0.0924
      7 C          -0.8196    2.4722   24.7470 C.ar    1  UNL1        0.1598
      8 F          -1.9032    2.8763   25.7021 F       1  UNL1       -0.2026
      9 C          -1.5868    4.3232   23.0931 C.2     1  UNL1        0.2036
     10 O          -1.1889    5.7390   23.3885 O.2     1  UNL1       -0.2863
     11 C          -6.1306    5.1037   24.6619 C.2     1  UNL1        0.0322
     12 C          -7.1710    4.6545   23.6793 C.2     1  UNL1        0.2321
     13 N          -6.7555    4.0401   22.3755 N.2     1  UNL1       -0.0311
     14 C          -5.2997    3.8750   22.0544 C.2     1  UNL1        0.3721
     15 N          -4.5936    3.3081   20.8584 N.2     1  UNL1       -0.0307
     16 C          -3.1169    3.4070   21.1020 C.2     1  UNL1        0.2390
     17 C          -2.9102    4.0350   22.4484 C.2     1  UNL1        0.0896
     18 C          -4.2592    4.3242   23.0370 C.2     1  UNL1        0.0774
     19 C          -4.6747    4.9386   24.3408 C.3     1  UNL1        0.0647
     20 C          -7.3769    6.9469   28.5735 C.ar    1  UNL1        0.3201
     21 N          -8.3271    6.9363   27.4129 N.ar    1  UNL1       -0.1927
     22 C          -7.9116    6.3219   26.1090 C.ar    1  UNL1        0.1050
     23 C          -6.5460    5.7181   25.9658 C.ar    1  UNL1        0.0386
     24 C          -5.5958    5.7287   27.1264 C.ar    1  UNL1        0.1050
     25 N          -6.0112    6.3431   28.4302 N.ar    1  UNL1       -0.1927
     26 C          -7.4015    6.9107   31.1711 C.3     1  UNL1        0.2559
     27 O          -7.7922    7.5613   29.8773 O.3     1  UNL1       -0.4426
     28 N          -0.0523    0.6213   26.4008 N.pl3   1  UNL1       -0.2127
     29 H          -0.3827   -0.3061   26.4125 H       1  UNL1        0.1738
     30 S           0.2929    1.3108   27.6874 S.O2    1  UNL1        0.0759
     31 O          -1.1492    1.2674   28.0977 O.2     1  UNL1       -0.1499
     32 O           1.7351    1.3543   27.2772 O.2     1  UNL1       -0.1499
     33 C           0.6382    2.0004   28.9740 C.ar    1  UNL1        0.1547
     34 C           1.2076    1.2137   30.1172 C.ar    1  UNL1        0.0521
     35 C           1.5529    1.9033   31.4038 C.ar    1  UNL1        0.1416
     36 F           2.1223    1.1165   32.5470 F       1  UNL1       -0.2041
     37 C           1.3287    3.3795   31.5472 C.ar    1  UNL1        0.0320
     38 C           0.7593    4.1661   30.4040 C.ar    1  UNL1        0.0333
     39 C           0.4140    3.4766   29.1174 C.ar    1  UNL1        0.1590
     40 F          -0.1554    4.2633   27.9743 F       1  UNL1       -0.2027
@<TRIPOS>BOND
     1    26    27    1
     2    27    20    1
     3    20    21   ar
     4    21    22   ar
     5    22    23   ar
     6    23    11    1
     7    11    12    2
     8    12    13    1
     9    13    14    2
    10    14    15    1
    11    15    16    2
    12    16    17    1
    13    17     9    1
    14     9    10    2
    15     9     1    1
    16     1     2   ar
    17     2     3    1
    18     2     4   ar
    19     4     5   ar
    20     5     6   ar
    21     6    28    1
    22    28    30    1
    23    30    31    2
    24    30    32    2
    25    30    33    1
    26    33    34   ar
    27    34    35   ar
    28    35    36    1
    29    35    37   ar
    30    37    38   ar
    31    38    39   ar
    32    39    40    1
    33     6     7   ar
    34     7     8    1
    35    17    18    2
    36    18    19    1
    37    23    24   ar
    38    24    25   ar
    39    25    20   ar
    40    19    11    1
    41    18    14    1
    42     7     1   ar
    43    39    33   ar
    44    28    29    1
@<TRIPOS>MOLECULE
*****
 40 44 0 0 0
SMALL
GASTEIGER

@<TRIPOS>ATOM
      1 C           0.4691    1.0487   27.6426 C.ar    1  UNL1        0.0951
      2 C          -0.7009    1.6931   26.9601 C.ar    1  UNL1        0.1454
      3 F          -1.9968    1.8650   27.6958 F       1  UNL1       -0.2040
      4 C          -0.5751    2.1656   25.5421 C.ar    1  UNL1        0.0312
      5 C           0.7208    1.9937   24.8064 C.ar    1  UNL1        0.0204
      6 C           1.8908    1.3493   25.4889 C.ar    1  UNL1        0.0924
      7 C           1.7650    0.8768   26.9070 C.ar    1  UNL1        0.1598
      8 F           2.9350    0.2325   27.5894 F       1  UNL1       -0.2026
      9 C           0.3432    0.5763   29.0607 C.2     1  UNL1        0.2036
     10 O          -0.4751   -0.6407   29.3758 O.2     1  UNL1       -0.2863
     11 C           4.3463   -0.5106   31.6121 C.2     1  UNL1        0.0322
     12 C           4.6863    0.5329   32.6345 C.2     1  UNL1        0.2321
     13 N           3.8216    1.7499   32.7801 N.2     1  UNL1       -0.0311
     14 C           2.6169    1.9233   31.9033 C.2     1  UNL1        0.3721
     15 N           1.5857    3.0093   31.8178 N.2     1  UNL1       -0.0307
     16 C           0.6085    2.6369   30.7425 C.2     1  UNL1        0.2390
     17 C           1.0357    1.3207   30.1635 C.2     1  UNL1        0.0896
     18 C           2.2770    0.8797   30.8809 C.2     1  UNL1        0.0774
     19 C           3.1417   -0.3372   30.7353 C.3     1  UNL1        0.0647
     20 C           6.9405   -4.1617   31.1752 C.ar    1  UNL1        0.3201
     21 N           6.2426   -3.8886   32.4746 N.ar    1  UNL1       -0.1927
     22 C           5.3779   -2.6716   32.6202 C.ar    1  UNL1        0.1050
     23 C           5.2111   -1.7277   31.4665 C.ar    1  UNL1        0.0386
     24 C           5.9089   -2.0007   30.1671 C.ar    1  UNL1        0.1050
     25 N           6.7736   -3.2177   30.0214 N.ar    1  UNL1       -0.1927
     26 C           7.8136   -6.1424   29.7386 C.3     1  UNL1        0.2559
     27 O           7.8051   -5.3787   31.0295 O.3     1  UNL1       -0.4426
     28 N           3.1867    1.1774   24.7533 N.pl3   1  UNL1       -0.2127
     29 H           4.0117    1.5802   25.1087 H       1  UNL1        0.1738
     30 S           3.2255    0.3917   23.4761 S.O2    1  UNL1        0.0759
     31 O           3.0119   -0.8757   24.2492 O.2     1  UNL1       -0.1499
     32 O           3.4391    1.6592   22.7028 O.2     1  UNL1       -0.1499
     33 C           3.2643   -0.3939   22.1988 C.ar    1  UNL1        0.1547
     34 C           4.4982   -1.1619   21.8279 C.ar    1  UNL1        0.0521
     35 C           4.5370   -1.9475   20.5507 C.ar    1  UNL1        0.1416
     36 F           5.7711   -2.7155   20.1798 F       1  UNL1       -0.2041
     37 C           3.3420   -1.9650   19.6443 C.ar    1  UNL1        0.0320
     38 C           2.1081   -1.1970   20.0152 C.ar    1  UNL1        0.0333
     39 C           2.0692   -0.4114   21.2925 C.ar    1  UNL1        0.1590
     40 F           0.8353    0.3566   21.6633 F       1  UNL1       -0.2027
@<TRIPOS>BOND
     1    26    27    1
     2    27    20    1
     3    20    21   ar
     4    21    22   ar
     5    22    23   ar
     6    23    11    1
     7    11    12    2
     8    12    13    1
     9    13    14    2
    10    14    15    1
    11    15    16    2
    12    16    17    1
    13    17     9    1
    14     9    10    2
    15     9     1    1
    16     1     2   ar
    17     2     3    1
    18     2     4   ar
    19     4     5   ar
    20     5     6   ar
    21     6    28    1
    22    28    30    1
    23    30    31    2
    24    30    32    2
    25    30    33    1
    26    33    34   ar
    27    34    35   ar
    28    35    36    1
    29    35    37   ar
    30    37    38   ar
    31    38    39   ar
    32    39    40    1
    33     6     7   ar
    34     7     8    1
    35    17    18    2
    36    18    19    1
    37    23    24   ar
    38    24    25   ar
    39    25    20   ar
    40    19    11    1
    41    18    14    1
    42     7     1   ar
    43    39    33   ar
    44    28    29    1
@<TRIPOS>MOLECULE
*****
 40 44 0 0 0
SMALL
GASTEIGER

@<TRIPOS>ATOM
      1 C           0.3545    2.9321   20.8076 C.ar    1  UNL1        0.0951
      2 C           1.2647    4.1190   20.6949 C.ar    1  UNL1        0.1454
      3 F           1.0179    5.3359   21.5366 F       1  UNL1       -0.2040
      4 C           2.4216    4.0891   19.7407 C.ar    1  UNL1        0.0312
      5 C           2.6683    2.8722   18.8991 C.ar    1  UNL1        0.0204
      6 C           1.7582    1.6853   19.0117 C.ar    1  UNL1        0.0924
      7 C           0.6012    1.7152   19.9660 C.ar    1  UNL1        0.1598
      8 F          -0.3089    0.5282   20.0785 F       1  UNL1       -0.2026
      9 C          -0.8025    2.9620   21.7618 C.2     1  UNL1        0.2036
     10 O          -2.2047    2.8347   21.2446 O.2     1  UNL1       -0.2863
     11 C           2.2159    0.5901   24.7584 C.2     1  UNL1        0.0322
     12 C           2.1350    1.0800   26.1738 C.2     1  UNL1        0.2321
     13 N           1.1915    2.1902   26.5304 N.2     1  UNL1       -0.0311
     14 C           0.3288    2.8104   25.4716 C.2     1  UNL1        0.3721
     15 N          -0.6881    3.9120   25.5235 N.2     1  UNL1       -0.0307
     16 C          -1.2356    4.1028   24.1401 C.2     1  UNL1        0.2390
     17 C          -0.5572    3.1192   23.2333 C.2     1  UNL1        0.0896
     18 C           0.4096    2.3205   24.0562 C.2     1  UNL1        0.0774
     19 C           1.3532    1.2103   23.6996 C.3     1  UNL1        0.0647
     20 C           5.0468   -2.7404   23.6885 C.ar    1  UNL1        0.3201
     21 N           4.1003   -2.2004   22.6577 N.ar    1  UNL1       -0.1927
     22 C           3.1567   -1.0902   23.0143 C.ar    1  UNL1        0.1050
     23 C           3.1596   -0.5201   24.4017 C.ar    1  UNL1        0.0386
     24 C           4.1060   -1.0601   25.4325 C.ar    1  UNL1        0.1050
     25 N           5.0496   -2.1702   25.0760 N.ar    1  UNL1       -0.1927
     26 C           6.8978   -4.4283   24.3772 C.3     1  UNL1        0.2559
     27 O           5.9904   -3.8505   23.3319 O.3     1  UNL1       -0.4426
     28 N           2.0049    0.4684   18.1701 N.pl3   1  UNL1       -0.2127
     29 H           1.4729    0.3170   17.3556 H       1  UNL1        0.1738
     30 S           3.0622   -0.5179   18.5695 S.O2    1  UNL1        0.0759
     31 O           2.2078   -0.9694   19.7166 O.2     1  UNL1       -0.1499
     32 O           3.9167   -0.0664   17.4223 O.2     1  UNL1       -0.1499
     33 C           4.1195   -1.5041   18.9688 C.ar    1  UNL1        0.1547
     34 C           3.9123   -2.9684   18.7182 C.ar    1  UNL1        0.0521
     35 C           4.9696   -3.9546   19.1175 C.ar    1  UNL1        0.1416
     36 F           4.7623   -5.4190   18.8669 F       1  UNL1       -0.2041
     37 C           6.2342   -3.4765   19.7674 C.ar    1  UNL1        0.0320
     38 C           6.4414   -2.0122   20.0179 C.ar    1  UNL1        0.0333
     39 C           5.3841   -1.0260   19.6186 C.ar    1  UNL1        0.1590
     40 F           5.5914    0.4383   19.8692 F       1  UNL1       -0.2027
@<TRIPOS>BOND
     1    26    27    1
     2    27    20    1
     3    20    21   ar
     4    21    22   ar
     5    22    23   ar
     6    23    11    1
     7    11    12    2
     8    12    13    1
     9    13    14    2
    10    14    15    1
    11    15    16    2
    12    16    17    1
    13    17     9    1
    14     9    10    2
    15     9     1    1
    16     1     2   ar
    17     2     3    1
    18     2     4   ar
    19     4     5   ar
    20     5     6   ar
    21     6    28    1
    22    28    30    1
    23    30    31    2
    24    30    32    2
    25    30    33    1
    26    33    34   ar
    27    34    35   ar
    28    35    36    1
    29    35    37   ar
    30    37    38   ar
    31    38    39   ar
    32    39    40    1
    33     6     7   ar
    34     7     8    1
    35    17    18    2
    36    18    19    1
    37    23    24   ar
    38    24    25   ar
    39    25    20   ar
    40    19    11    1
    41    18    14    1
    42     7     1   ar
    43    39    33   ar
    44    28    29    1
@<TRIPOS>MOLECULE
*****
 40 44 0 0 0
SMALL
GASTEIGER

@<TRIPOS>ATOM
      1 C           7.5006   -5.5353   25.7941 C.ar    1  UNL1        0.0951
      2 C           8.0244   -6.9163   25.5327 C.ar    1  UNL1        0.1454
      3 F           8.1223   -7.9063   26.6554 F       1  UNL1       -0.2040
      4 C           8.4503   -7.3074   24.1486 C.ar    1  UNL1        0.0312
      5 C           8.3524   -6.3175   23.0260 C.ar    1  UNL1        0.0204
      6 C           7.8286   -4.9364   23.2874 C.ar    1  UNL1        0.0924
      7 C           7.4027   -4.5453   24.6715 C.ar    1  UNL1        0.1598
      8 F           6.8789   -3.1643   24.9328 F       1  UNL1       -0.2026
      9 C           7.0747   -5.1442   27.1782 C.2     1  UNL1        0.2036
     10 O           5.9609   -5.8845   27.8574 O.2     1  UNL1       -0.2863
     11 C           5.2891   -1.0663   29.1526 C.2     1  UNL1        0.0322
     12 C           6.3517   -0.2012   29.7628 C.2     1  UNL1        0.2321
     13 N           7.7874   -0.6334   29.7190 N.2     1  UNL1       -0.0311
     14 C           8.1605   -1.9307   29.0650 C.2     1  UNL1        0.3721
     15 N           9.4821   -2.6131   28.8703 N.2     1  UNL1       -0.0307
     16 C           9.2362   -3.8999   28.1399 C.2     1  UNL1        0.2390
     17 C           7.7627   -4.0129   27.8830 C.2     1  UNL1        0.0896
     18 C           7.0979   -2.7959   28.4548 C.2     1  UNL1        0.0774
     19 C           5.6622   -2.3636   28.4986 C.3     1  UNL1        0.0647
     20 C           0.9819    0.2303   29.2841 C.ar    1  UNL1        0.3201
     21 N           1.6912    0.1171   27.9672 N.ar    1  UNL1       -0.1927
     22 C           3.1269   -0.3151   27.9234 C.ar    1  UNL1        0.1050
     23 C           3.8534   -0.6341   29.1964 C.ar    1  UNL1        0.0386
     24 C           3.1441   -0.5209   30.5133 C.ar    1  UNL1        0.1050
     25 N           1.7084   -0.0887   30.5571 N.ar    1  UNL1       -0.1927
     26 C          -1.5399   -0.3055   28.9628 C.3     1  UNL1        0.2559
     27 O          -0.4538    0.6625   29.3279 O.3     1  UNL1       -0.4426
     28 N           7.7307   -3.9465   22.1647 N.pl3   1  UNL1       -0.2127
     29 H           8.5060   -3.7881   21.5790 H       1  UNL1        0.1738
     30 S           6.4514   -3.1978   21.9345 S.O2    1  UNL1        0.0759
     31 O           5.7231   -4.4969   21.7564 O.2     1  UNL1       -0.1499
     32 O           7.1797   -1.8986   22.1125 O.2     1  UNL1       -0.1499
     33 C           5.1722   -2.4490   21.7042 C.ar    1  UNL1        0.1547
     34 C           4.4279   -1.8609   22.8661 C.ar    1  UNL1        0.0521
     35 C           3.1486   -1.1121   22.6359 C.ar    1  UNL1        0.1416
     36 F           2.4044   -0.5239   23.7979 F       1  UNL1       -0.2041
     37 C           2.6137   -0.9515   21.2438 C.ar    1  UNL1        0.0320
     38 C           3.3580   -1.5397   20.0818 C.ar    1  UNL1        0.0333
     39 C           4.6372   -2.2885   20.3121 C.ar    1  UNL1        0.1590
     40 F           5.3814   -2.8766   19.1501 F       1  UNL1       -0.2027
@<TRIPOS>BOND
     1    26    27    1
     2    27    20    1
     3    20    21   ar
     4    21    22   ar
     5    22    23   ar
     6    23    11    1
     7    11    12    2
     8    12    13    1
     9    13    14    2
    10    14    15    1
    11    15    16    2
    12    16    17    1
    13    17     9    1
    14     9    10    2
    15     9     1    1
    16     1     2   ar
    17     2     3    1
    18     2     4   ar
    19     4     5   ar
    20     5     6   ar
    21     6    28    1
    22    28    30    1
    23    30    31    2
    24    30    32    2
    25    30    33    1
    26    33    34   ar
    27    34    35   ar
    28    35    36    1
    29    35    37   ar
    30    37    38   ar
    31    38    39   ar
    32    39    40    1
    33     6     7   ar
    34     7     8    1
    35    17    18    2
    36    18    19    1
    37    23    24   ar
    38    24    25   ar
    39    25    20   ar
    40    19    11    1
    41    18    14    1
    42     7     1   ar
    43    39    33   ar
    44    28    29    1
