@<TRIPOS>MOLECULE
*****
 33 35 0 0 0
SMALL
GASTEIGER

@<TRIPOS>ATOM
      1 S          -8.9916  -19.7962   22.6369 S.O2    1  UNL1        0.0736
      2 O          -9.2412  -20.0580   24.0927 O.2     1  UNL1       -0.1499
      3 O          -8.7419  -19.5344   21.1812 O.2     1  UNL1       -0.1499
      4 C         -10.2576  -18.9951   22.5639 C.ar    1  UNL1        0.1251
      5 C         -10.5001  -18.0801   21.4003 C.ar    1  UNL1        0.0240
      6 C         -11.7662  -17.2791   21.3273 C.ar    1  UNL1        0.0727
      7 C         -12.7898  -17.3931   22.4177 C.ar    1  UNL1        0.0078
      8 C         -12.5473  -18.3081   23.5813 C.ar    1  UNL1        0.0727
      9 C         -11.2813  -19.1091   23.6543 C.ar    1  UNL1        0.0240
     10 C         -12.0086  -16.3640   20.1636 C.3     1  UNL1        0.4186
     11 F         -12.2511  -15.4490   19.0001 F       1  UNL1       -0.1659
     12 F         -10.9768  -17.1049   19.3659 F       1  UNL1       -0.1659
     13 F         -13.0405  -15.6231   20.9613 F       1  UNL1       -0.1659
     14 C         -13.5710  -18.4221   24.6718 C.3     1  UNL1        0.4186
     15 F         -14.5946  -18.5361   25.7623 F       1  UNL1       -0.1659
     16 F         -14.6297  -17.9315   23.7293 F       1  UNL1       -0.1659
     17 F         -12.5123  -18.9127   25.6143 F       1  UNL1       -0.1659
     18 N          -7.7255  -20.5972   22.7100 N.pl3   1  UNL1       -0.2150
     19 H          -7.7090  -21.4478   23.2054 H       1  UNL1        0.1737
     20 C          -4.0023  -19.1125   20.6647 C.ar    1  UNL1        0.0002
     21 C          -4.7328  -20.3040   20.1201 C.ar    1  UNL1        0.0013
     22 C          -5.9738  -20.7989   20.8018 C.ar    1  UNL1        0.0159
     23 C          -6.4844  -20.1023   22.0283 C.ar    1  UNL1        0.0648
     24 C          -5.7539  -18.9108   22.5729 C.ar    1  UNL1        0.0159
     25 C          -4.5128  -18.4159   21.8911 C.ar    1  UNL1        0.0013
     26 C          -0.2147  -18.1058   20.0397 C.ar    1  UNL1        0.0814
     27 C          -1.4557  -18.6007   20.7214 C.ar    1  UNL1        0.0191
     28 C          -2.7612  -18.6176   19.9829 C.ar    1  UNL1        0.0030
     29 C          -2.8256  -18.1397   18.5625 C.ar    1  UNL1        0.0207
     30 C          -1.5845  -17.6448   17.8808 C.ar    1  UNL1        0.0988
     31 N          -0.2791  -17.6279   18.6194 N.ar    1  UNL1       -0.2438
     32 C           2.1551  -17.1028   20.3977 C.2     1  UNL1        0.0016
     33 C           1.0908  -18.0888   20.7783 C.2     1  UNL1        0.0191
@<TRIPOS>BOND
     1    32    33    2
     2    33    26    1
     3    26    27   ar
     4    27    28   ar
     5    28    20    1
     6    20    21   ar
     7    21    22   ar
     8    22    23   ar
     9    23    18    1
    10    18     1    1
    11     1     2    2
    12     1     3    2
    13     1     4    1
    14     4     5   ar
    15     5     6   ar
    16     6    10    1
    17    10    11    1
    18    10    12    1
    19    10    13    1
    20     6     7   ar
    21     7     8   ar
    22     8    14    1
    23    14    15    1
    24    14    16    1
    25    14    17    1
    26     8     9   ar
    27    23    24   ar
    28    24    25   ar
    29    28    29   ar
    30    29    30   ar
    31    30    31   ar
    32    31    26   ar
    33    25    20   ar
    34     9     4   ar
    35    18    19    1
@<TRIPOS>MOLECULE
*****
 33 35 0 0 0
SMALL
GASTEIGER

@<TRIPOS>ATOM
      1 S          -1.1371    3.2148   21.2184 S.O2    1  UNL1        0.0736
      2 O           0.1735    3.7565   21.7071 O.2     1  UNL1       -0.1499
      3 O          -2.4478    2.6732   20.7297 O.2     1  UNL1       -0.1499
      4 C          -1.6837    3.2784   22.6139 C.ar    1  UNL1        0.1251
      5 C          -3.1428    3.5452   22.8364 C.ar    1  UNL1        0.0240
      6 C          -3.6894    3.6087   24.2319 C.ar    1  UNL1        0.0727
      7 C          -2.7767    3.4054   25.4047 C.ar    1  UNL1        0.0078
      8 C          -1.3176    3.1385   25.1822 C.ar    1  UNL1        0.0727
      9 C          -0.7710    3.0750   23.7867 C.ar    1  UNL1        0.0240
     10 C          -5.1486    3.8755   24.4544 C.3     1  UNL1        0.4186
     11 F          -6.6078    4.1424   24.6769 F       1  UNL1       -0.1659
     12 F          -5.3911    3.7819   22.9771 F       1  UNL1       -0.1659
     13 F          -4.9062    3.9691   25.9316 F       1  UNL1       -0.1659
     14 C          -0.4049    2.9352   26.3551 C.3     1  UNL1        0.4186
     15 F           0.5078    2.7319   27.5280 F       1  UNL1       -0.1659
     16 F          -1.5700    2.4799   27.1828 F       1  UNL1       -0.1659
     17 F           0.7603    3.3906   25.5275 F       1  UNL1       -0.1659
     18 N          -0.5906    3.1513   19.8230 N.pl3   1  UNL1       -0.2150
     19 H          -0.9689    3.7269   19.1195 H       1  UNL1        0.1737
     20 C           2.7781    0.3301   18.8522 C.ar    1  UNL1        0.0002
     21 C           1.5855   -0.1611   19.6178 C.ar    1  UNL1        0.0013
     22 C           0.4626    0.7792   19.9414 C.ar    1  UNL1        0.0159
     23 C           0.5323    2.2110   19.4994 C.ar    1  UNL1        0.0648
     24 C           1.7249    2.7022   18.7337 C.ar    1  UNL1        0.0159
     25 C           2.8479    1.7618   18.4101 C.ar    1  UNL1        0.0013
     26 C           4.8738   -3.0188   18.4740 C.ar    1  UNL1        0.0814
     27 C           3.7509   -2.0784   18.7975 C.ar    1  UNL1        0.0191
     28 C           3.9011   -0.6103   18.5286 C.ar    1  UNL1        0.0030
     29 C           5.1740   -0.0827   17.9360 C.ar    1  UNL1        0.0207
     30 C           6.2969   -1.0232   17.6124 C.ar    1  UNL1        0.0988
     31 N           6.1467   -2.4912   17.8814 N.ar    1  UNL1       -0.2438
     32 C           3.5433   -4.9901   19.5197 C.2     1  UNL1        0.0016
     33 C           4.7236   -4.4868   18.7430 C.2     1  UNL1        0.0191
@<TRIPOS>BOND
     1    32    33    2
     2    33    26    1
     3    26    27   ar
     4    27    28   ar
     5    28    20    1
     6    20    21   ar
     7    21    22   ar
     8    22    23   ar
     9    23    18    1
    10    18     1    1
    11     1     2    2
    12     1     3    2
    13     1     4    1
    14     4     5   ar
    15     5     6   ar
    16     6    10    1
    17    10    11    1
    18    10    12    1
    19    10    13    1
    20     6     7   ar
    21     7     8   ar
    22     8    14    1
    23    14    15    1
    24    14    16    1
    25    14    17    1
    26     8     9   ar
    27    23    24   ar
    28    24    25   ar
    29    28    29   ar
    30    29    30   ar
    31    30    31   ar
    32    31    26   ar
    33    25    20   ar
    34     9     4   ar
    35    18    19    1
@<TRIPOS>MOLECULE
*****
 33 35 0 0 0
SMALL
GASTEIGER

@<TRIPOS>ATOM
      1 S          -1.0658    3.3084   20.5498 S.O2    1  UNL1        0.0736
      2 O          -1.5231    3.4386   19.1271 O.2     1  UNL1       -0.1499
      3 O          -0.6085    3.1783   21.9724 O.2     1  UNL1       -0.1499
      4 C          -2.4891    3.3951   21.0152 C.ar    1  UNL1        0.1251
      5 C          -3.6040    3.4477   20.0132 C.ar    1  UNL1        0.0240
      6 C          -5.0273    3.5344   20.4786 C.ar    1  UNL1        0.0727
      7 C          -5.3357    3.5685   21.9461 C.ar    1  UNL1        0.0078
      8 C          -4.2208    3.5159   22.9482 C.ar    1  UNL1        0.0727
      9 C          -2.7975    3.4292   22.4828 C.ar    1  UNL1        0.0240
     10 C          -6.1422    3.5870   19.4765 C.3     1  UNL1        0.4186
     11 F          -7.2571    3.6396   18.4743 F       1  UNL1       -0.1659
     12 F          -7.0816    4.0595   20.5462 F       1  UNL1       -0.1659
     13 F          -5.2029    3.1145   18.4067 F       1  UNL1       -0.1659
     14 C          -4.5292    3.5500   24.4158 C.3     1  UNL1        0.4186
     15 F          -4.8376    3.5841   25.8833 F       1  UNL1       -0.1659
     16 F          -5.9602    3.8774   24.1075 F       1  UNL1       -0.1659
     17 F          -3.0983    3.2226   24.7242 F       1  UNL1       -0.1659
     18 N           0.3575    3.2218   20.0843 N.pl3   1  UNL1       -0.2150
     19 H           0.7930    4.0083   19.6830 H       1  UNL1        0.1737
     20 C           2.6373   -0.6332   20.5225 C.ar    1  UNL1        0.0002
     21 C           1.1766   -0.6602   20.1825 C.ar    1  UNL1        0.0013
     22 C           0.4167    0.6248   20.0364 C.ar    1  UNL1        0.0159
     23 C           1.1175    1.9368   20.2304 C.ar    1  UNL1        0.0648
     24 C           2.5782    1.9638   20.5704 C.ar    1  UNL1        0.0159
     25 C           3.3381    0.6787   20.7164 C.ar    1  UNL1        0.0013
     26 C           4.8782   -3.5068   22.0944 C.ar    1  UNL1        0.0814
     27 C           4.1183   -2.2218   21.9483 C.ar    1  UNL1        0.0191
     28 C           3.3972   -1.9183   20.6685 C.ar    1  UNL1        0.0030
     29 C           3.4359   -2.8997   19.5348 C.ar    1  UNL1        0.0207
     30 C           4.1958   -4.1846   19.6809 C.ar    1  UNL1        0.0988
     31 N           4.9169   -4.4882   20.9607 N.ar    1  UNL1       -0.2438
     32 C           6.9883   -4.3755   23.3365 C.2     1  UNL1        0.0016
     33 C           5.5994   -3.8103   23.3741 C.2     1  UNL1        0.0191
@<TRIPOS>BOND
     1    32    33    2
     2    33    26    1
     3    26    27   ar
     4    27    28   ar
     5    28    20    1
     6    20    21   ar
     7    21    22   ar
     8    22    23   ar
     9    23    18    1
    10    18     1    1
    11     1     2    2
    12     1     3    2
    13     1     4    1
    14     4     5   ar
    15     5     6   ar
    16     6    10    1
    17    10    11    1
    18    10    12    1
    19    10    13    1
    20     6     7   ar
    21     7     8   ar
    22     8    14    1
    23    14    15    1
    24    14    16    1
    25    14    17    1
    26     8     9   ar
    27    23    24   ar
    28    24    25   ar
    29    28    29   ar
    30    29    30   ar
    31    30    31   ar
    32    31    26   ar
    33    25    20   ar
    34     9     4   ar
    35    18    19    1
@<TRIPOS>MOLECULE
*****
 33 35 0 0 0
SMALL
GASTEIGER

@<TRIPOS>ATOM
      1 S          -1.1344    3.3795   20.6684 S.O2    1  UNL1        0.0736
      2 O          -1.5928    3.5092   19.2461 O.2     1  UNL1       -0.1499
      3 O          -0.6760    3.2498   22.0908 O.2     1  UNL1       -0.1499
      4 C          -2.5580    3.4583   21.1344 C.ar    1  UNL1        0.1251
      5 C          -2.8668    3.4771   22.6021 C.ar    1  UNL1        0.0240
      6 C          -4.2904    3.5559   23.0681 C.ar    1  UNL1        0.0727
      7 C          -5.4052    3.6159   22.0664 C.ar    1  UNL1        0.0078
      8 C          -5.0964    3.5970   20.5986 C.ar    1  UNL1        0.0727
      9 C          -3.6728    3.5182   20.1327 C.ar    1  UNL1        0.0240
     10 C          -4.5992    3.5748   24.5359 C.3     1  UNL1        0.4186
     11 F          -4.9080    3.5937   26.0036 F       1  UNL1       -0.1659
     12 F          -3.1832    3.1833   24.8388 F       1  UNL1       -0.1659
     13 F          -6.0151    3.9663   24.2330 F       1  UNL1       -0.1659
     14 C          -6.2113    3.6569   19.5968 C.3     1  UNL1        0.4186
     15 F          -7.3261    3.7169   18.5950 F       1  UNL1       -0.1659
     16 F          -7.1255    4.2138   20.6475 F       1  UNL1       -0.1659
     17 F          -5.2971    3.1001   18.5461 F       1  UNL1       -0.1659
     18 N           0.2892    3.3007   20.2025 N.pl3   1  UNL1       -0.2150
     19 H           0.7256    4.0945   19.8169 H       1  UNL1        0.1737
     20 C           2.5653   -0.5641   20.5669 C.ar    1  UNL1        0.0002
     21 C           1.0973   -0.5844   20.2593 C.ar    1  UNL1        0.0013
     22 C           0.3386    0.7038   20.1378 C.ar    1  UNL1        0.0159
     23 C           1.0479    2.0124   20.3239 C.ar    1  UNL1        0.0648
     24 C           2.5159    2.0327   20.6316 C.ar    1  UNL1        0.0159
     25 C           3.2746    0.7444   20.7530 C.ar    1  UNL1        0.0013
     26 C           4.8072   -3.4673   22.0820 C.ar    1  UNL1        0.0814
     27 C           4.0485   -2.1791   21.9605 C.ar    1  UNL1        0.0191
     28 C           3.3240   -1.8524   20.6883 C.ar    1  UNL1        0.0030
     29 C           3.3582   -2.8140   19.5377 C.ar    1  UNL1        0.0207
     30 C           4.1169   -4.1023   19.6592 C.ar    1  UNL1        0.0988
     31 N           4.8414   -4.4289   20.9314 N.ar    1  UNL1       -0.2438
     32 C           7.0046   -4.0761   23.3273 C.2     1  UNL1        0.0016
     33 C           5.5316   -3.7939   23.3542 C.2     1  UNL1        0.0191
@<TRIPOS>BOND
     1    32    33    2
     2    33    26    1
     3    26    27   ar
     4    27    28   ar
     5    28    20    1
     6    20    21   ar
     7    21    22   ar
     8    22    23   ar
     9    23    18    1
    10    18     1    1
    11     1     2    2
    12     1     3    2
    13     1     4    1
    14     4     5   ar
    15     5     6   ar
    16     6    10    1
    17    10    11    1
    18    10    12    1
    19    10    13    1
    20     6     7   ar
    21     7     8   ar
    22     8    14    1
    23    14    15    1
    24    14    16    1
    25    14    17    1
    26     8     9   ar
    27    23    24   ar
    28    24    25   ar
    29    28    29   ar
    30    29    30   ar
    31    30    31   ar
    32    31    26   ar
    33    25    20   ar
    34     9     4   ar
    35    18    19    1
@<TRIPOS>MOLECULE
*****
 33 35 0 0 0
SMALL
GASTEIGER

@<TRIPOS>ATOM
      1 S          -8.9467  -19.8207   22.6448 S.O2    1  UNL1        0.0736
      2 O          -9.3453  -20.3220   24.0012 O.2     1  UNL1       -0.1499
      3 O          -8.5481  -19.3194   21.2884 O.2     1  UNL1       -0.1499
      4 C         -10.2179  -19.0285   22.5640 C.ar    1  UNL1        0.1251
      5 C         -11.2413  -19.1393   23.6551 C.ar    1  UNL1        0.0240
      6 C         -12.5125  -18.3472   23.5743 C.ar    1  UNL1        0.0727
      7 C         -12.7603  -17.4442   22.4025 C.ar    1  UNL1        0.0078
      8 C         -11.7370  -17.3335   21.3114 C.ar    1  UNL1        0.0727
      9 C         -10.4658  -18.1256   21.3922 C.ar    1  UNL1        0.0240
     10 C         -13.5358  -18.4580   24.6655 C.3     1  UNL1        0.4186
     11 F         -14.5591  -18.5688   25.7566 F       1  UNL1       -0.1659
     12 F         -14.5958  -17.9750   23.7204 F       1  UNL1       -0.1659
     13 F         -12.4759  -18.9409   25.6105 F       1  UNL1       -0.1659
     14 C         -11.9848  -16.4305   20.1395 C.3     1  UNL1        0.4186
     15 F         -12.2327  -15.5276   18.9677 F       1  UNL1       -0.1659
     16 F         -13.0422  -15.7077   20.9201 F       1  UNL1       -0.1659
     17 F         -10.9274  -17.1533   19.3589 F       1  UNL1       -0.1659
     18 N          -7.6755  -20.6128   22.7256 N.pl3   1  UNL1       -0.2150
     19 H          -7.6534  -21.4581   23.2299 H       1  UNL1        0.1737
     20 C          -3.9628  -19.1257   20.6630 C.ar    1  UNL1        0.0002
     21 C          -4.4255  -18.4772   21.9339 C.ar    1  UNL1        0.0013
     22 C          -5.6631  -18.9729   22.6215 C.ar    1  UNL1        0.0159
     23 C          -6.4380  -20.1172   22.0381 C.ar    1  UNL1        0.0648
     24 C          -5.9752  -20.7657   20.7671 C.ar    1  UNL1        0.0159
     25 C          -4.7376  -20.2700   20.0796 C.ar    1  UNL1        0.0013
     26 C          -0.1712  -18.1545   20.0069 C.ar    1  UNL1        0.0814
     27 C          -1.4088  -18.6502   20.6943 C.ar    1  UNL1        0.0191
     28 C          -2.7252  -18.6300   19.9755 C.ar    1  UNL1        0.0030
     29 C          -2.8040  -18.1142   18.5692 C.ar    1  UNL1        0.0207
     30 C          -1.5664  -17.6185   17.8818 C.ar    1  UNL1        0.0988
     31 N          -0.2500  -17.6386   18.6006 N.ar    1  UNL1       -0.2438
     32 C           2.1662  -17.1107   20.4508 C.2     1  UNL1        0.0016
     33 C           1.1452  -18.1746   20.7257 C.2     1  UNL1        0.0191
@<TRIPOS>BOND
     1    32    33    2
     2    33    26    1
     3    26    27   ar
     4    27    28   ar
     5    28    20    1
     6    20    21   ar
     7    21    22   ar
     8    22    23   ar
     9    23    18    1
    10    18     1    1
    11     1     2    2
    12     1     3    2
    13     1     4    1
    14     4     5   ar
    15     5     6   ar
    16     6    10    1
    17    10    11    1
    18    10    12    1
    19    10    13    1
    20     6     7   ar
    21     7     8   ar
    22     8    14    1
    23    14    15    1
    24    14    16    1
    25    14    17    1
    26     8     9   ar
    27    23    24   ar
    28    24    25   ar
    29    28    29   ar
    30    29    30   ar
    31    30    31   ar
    32    31    26   ar
    33    25    20   ar
    34     9     4   ar
    35    18    19    1
@<TRIPOS>MOLECULE
*****
 33 35 0 0 0
SMALL
GASTEIGER

@<TRIPOS>ATOM
      1 S          -1.4440    3.2492   21.3232 S.O2    1  UNL1        0.0736
      2 O          -2.8067    2.8175   20.8685 O.2     1  UNL1       -0.1499
      3 O          -0.0813    3.6809   21.7779 O.2     1  UNL1       -0.1499
      4 C          -1.9382    3.3195   22.7377 C.ar    1  UNL1        0.1251
      5 C          -0.9861    3.1034   23.8764 C.ar    1  UNL1        0.0240
      6 C          -1.4803    3.1736   25.2909 C.ar    1  UNL1        0.0727
      7 C          -2.9267    3.4600   25.5667 C.ar    1  UNL1        0.0078
      8 C          -3.8788    3.6761   24.4280 C.ar    1  UNL1        0.0727
      9 C          -3.3845    3.6058   23.0135 C.ar    1  UNL1        0.0240
     10 C          -0.5281    2.9575   26.4297 C.3     1  UNL1        0.4186
     11 F           0.4240    2.7414   27.5684 F       1  UNL1       -0.1659
     12 F          -1.6289    2.3278   27.2307 F       1  UNL1       -0.1659
     13 F           0.5727    3.5872   25.6287 F       1  UNL1       -0.1659
     14 C          -5.3252    3.9624   24.7037 C.3     1  UNL1        0.4186
     15 F          -6.7715    4.2488   24.9795 F       1  UNL1       -0.1659
     16 F          -5.0149    4.1249   26.1622 F       1  UNL1       -0.1659
     17 F          -5.6354    3.8000   23.2452 F       1  UNL1       -0.1659
     18 N          -0.9498    3.1789   19.9087 N.pl3   1  UNL1       -0.2150
     19 H          -1.3814    3.7206   19.2090 H       1  UNL1        0.1737
     20 C           2.5058    0.4926   18.8634 C.ar    1  UNL1        0.0002
     21 C           2.4905    1.9148   18.3868 C.ar    1  UNL1        0.0013
     22 C           1.3387    2.8102   18.7353 C.ar    1  UNL1        0.0159
     23 C           0.2020    2.2835   19.5603 C.ar    1  UNL1        0.0648
     24 C           0.2173    0.8613   20.0369 C.ar    1  UNL1        0.0159
     25 C           1.3692   -0.0342   19.6884 C.ar    1  UNL1        0.0013
     26 C           4.7746   -2.7483   18.5489 C.ar    1  UNL1        0.0814
     27 C           3.6228   -1.8529   18.8974 C.ar    1  UNL1        0.0191
     28 C           3.6577   -0.4029   18.5150 C.ar    1  UNL1        0.0030
     29 C           4.8444    0.1517   17.7841 C.ar    1  UNL1        0.0207
     30 C           5.9962   -0.7438   17.4357 C.ar    1  UNL1        0.0988
     31 N           5.9613   -2.1938   17.8181 N.ar    1  UNL1       -0.2438
     32 C           3.4383   -4.8449   19.3031 C.2     1  UNL1        0.0016
     33 C           4.7397   -4.1984   18.9314 C.2     1  UNL1        0.0191
@<TRIPOS>BOND
     1    32    33    2
     2    33    26    1
     3    26    27   ar
     4    27    28   ar
     5    28    20    1
     6    20    21   ar
     7    21    22   ar
     8    22    23   ar
     9    23    18    1
    10    18     1    1
    11     1     2    2
    12     1     3    2
    13     1     4    1
    14     4     5   ar
    15     5     6   ar
    16     6    10    1
    17    10    11    1
    18    10    12    1
    19    10    13    1
    20     6     7   ar
    21     7     8   ar
    22     8    14    1
    23    14    15    1
    24    14    16    1
    25    14    17    1
    26     8     9   ar
    27    23    24   ar
    28    24    25   ar
    29    28    29   ar
    30    29    30   ar
    31    30    31   ar
    32    31    26   ar
    33    25    20   ar
    34     9     4   ar
    35    18    19    1
@<TRIPOS>MOLECULE
*****
 33 35 0 0 0
SMALL
GASTEIGER

@<TRIPOS>ATOM
      1 S          -1.7226    3.4006   21.1049 S.O2    1  UNL1        0.0736
      2 O          -2.9169    2.8361   20.3943 O.2     1  UNL1       -0.1499
      3 O          -0.5283    3.9651   21.8155 O.2     1  UNL1       -0.1499
      4 C          -2.5206    3.4944   22.3716 C.ar    1  UNL1        0.1251
      5 C          -4.0077    3.6805   22.3091 C.ar    1  UNL1        0.0240
      6 C          -4.8057    3.7744   23.5758 C.ar    1  UNL1        0.0727
      7 C          -4.1166    3.6821   24.9049 C.ar    1  UNL1        0.0078
      8 C          -2.6296    3.4959   24.9674 C.ar    1  UNL1        0.0727
      9 C          -1.8316    3.4021   23.7007 C.ar    1  UNL1        0.0240
     10 C          -6.2928    3.9605   23.5133 C.3     1  UNL1        0.4186
     11 F          -7.7799    4.1467   23.4507 F       1  UNL1       -0.1659
     12 F          -6.3181    4.2527   24.9843 F       1  UNL1       -0.1659
     13 F          -6.2675    3.6683   22.0422 F       1  UNL1       -0.1659
     14 C          -1.9404    3.4036   26.2965 C.3     1  UNL1        0.4186
     15 F          -1.2513    3.3112   27.6256 F       1  UNL1       -0.1659
     16 F          -1.1150    2.2586   25.7890 F       1  UNL1       -0.1659
     17 F          -2.7658    4.5486   26.8041 F       1  UNL1       -0.1659
     18 N          -0.9246    3.3067   19.8383 N.pl3   1  UNL1       -0.2150
     19 H          -1.0829    3.9479   19.1082 H       1  UNL1        0.1737
     20 C           2.1926    0.0945   19.3756 C.ar    1  UNL1        0.0002
     21 C           1.0351   -0.1123   20.3070 C.ar    1  UNL1        0.0013
     22 C          -0.0040    0.9585   20.4612 C.ar    1  UNL1        0.0159
     23 C           0.1144    2.2360   19.6841 C.ar    1  UNL1        0.0648
     24 C           1.2719    2.4428   18.7527 C.ar    1  UNL1        0.0159
     25 C           2.3110    1.3720   18.5985 C.ar    1  UNL1        0.0013
     26 C           4.5300   -3.0078   20.1897 C.ar    1  UNL1        0.0814
     27 C           3.4909   -1.9370   20.3438 C.ar    1  UNL1        0.0191
     28 C           3.2317   -0.9763   19.2214 C.ar    1  UNL1        0.0030
     29 C           4.0115   -1.0864   17.9448 C.ar    1  UNL1        0.0207
     30 C           5.0506   -2.1572   17.7907 C.ar    1  UNL1        0.0988
     31 N           5.3098   -3.1179   18.9131 N.ar    1  UNL1       -0.2438
     32 C           4.6610   -3.5116   22.7350 C.2     1  UNL1        0.0016
     33 C           4.7892   -3.9685   21.3121 C.2     1  UNL1        0.0191
@<TRIPOS>BOND
     1    32    33    2
     2    33    26    1
     3    26    27   ar
     4    27    28   ar
     5    28    20    1
     6    20    21   ar
     7    21    22   ar
     8    22    23   ar
     9    23    18    1
    10    18     1    1
    11     1     2    2
    12     1     3    2
    13     1     4    1
    14     4     5   ar
    15     5     6   ar
    16     6    10    1
    17    10    11    1
    18    10    12    1
    19    10    13    1
    20     6     7   ar
    21     7     8   ar
    22     8    14    1
    23    14    15    1
    24    14    16    1
    25    14    17    1
    26     8     9   ar
    27    23    24   ar
    28    24    25   ar
    29    28    29   ar
    30    29    30   ar
    31    30    31   ar
    32    31    26   ar
    33    25    20   ar
    34     9     4   ar
    35    18    19    1
@<TRIPOS>MOLECULE
*****
 33 35 0 0 0
SMALL
GASTEIGER

@<TRIPOS>ATOM
      1 S           4.4610   -0.8484   23.2348 S.O2    1  UNL1        0.0736
      2 O           3.1860   -1.3099   23.8762 O.2     1  UNL1       -0.1499
      3 O           5.7360   -0.3869   22.5935 O.2     1  UNL1       -0.1499
      4 C           3.9417   -1.2766   21.8943 C.ar    1  UNL1        0.1251
      5 C           3.0131   -0.3812   21.1288 C.ar    1  UNL1        0.0240
      6 C           2.4938   -0.8094   19.7883 C.ar    1  UNL1        0.0727
      7 C           2.9030   -2.1330   19.2133 C.ar    1  UNL1        0.0078
      8 C           3.8315   -3.0284   19.9789 C.ar    1  UNL1        0.0727
      9 C           4.3509   -2.6002   21.3194 C.ar    1  UNL1        0.0240
     10 C           1.5652    0.0860   19.0228 C.3     1  UNL1        0.4186
     11 F           0.6366    0.9814   18.2574 F       1  UNL1       -0.1659
     12 F           2.6890    0.4673   18.1055 F       1  UNL1       -0.1659
     13 F           0.4413   -0.2953   19.9401 F       1  UNL1       -0.1659
     14 C           4.2408   -4.3520   19.4039 C.3     1  UNL1        0.4186
     15 F           4.6501   -5.6756   18.8290 F       1  UNL1       -0.1659
     16 F           5.6513   -4.1113   19.8537 F       1  UNL1       -0.1659
     17 F           2.8302   -4.5928   18.9541 F       1  UNL1       -0.1659
     18 N           4.9803   -0.4202   24.5753 N.pl3   1  UNL1       -0.2150
     19 H           4.9916    0.5341   24.8169 H       1  UNL1        0.1737
     20 C           6.4866   -3.4977   27.4926 C.ar    1  UNL1        0.0002
     21 C           6.7217   -3.6796   26.0223 C.ar    1  UNL1        0.0013
     22 C           6.2196   -2.6538   25.0499 C.ar    1  UNL1        0.0159
     23 C           5.4824   -1.4460   25.5477 C.ar    1  UNL1        0.0648
     24 C           5.2473   -1.2641   27.0180 C.ar    1  UNL1        0.0159
     25 C           5.7494   -2.2899   27.9904 C.ar    1  UNL1        0.0013
     26 C           8.2720   -6.7312   28.9441 C.ar    1  UNL1        0.0814
     27 C           7.7699   -5.7053   27.9718 C.ar    1  UNL1        0.0191
     28 C           6.9887   -4.5236   28.4650 C.ar    1  UNL1        0.0030
     29 C           6.7097   -4.3676   29.9305 C.ar    1  UNL1        0.0207
     30 C           7.2118   -5.3935   30.9028 C.ar    1  UNL1        0.0988
     31 N           7.9929   -6.5753   30.4096 N.ar    1  UNL1       -0.2438
     32 C           8.3947   -8.9320   27.5689 C.2     1  UNL1        0.0016
     33 C           9.0531   -7.9130   28.4509 C.2     1  UNL1        0.0191
@<TRIPOS>BOND
     1    32    33    2
     2    33    26    1
     3    26    27   ar
     4    27    28   ar
     5    28    20    1
     6    20    21   ar
     7    21    22   ar
     8    22    23   ar
     9    23    18    1
    10    18     1    1
    11     1     2    2
    12     1     3    2
    13     1     4    1
    14     4     5   ar
    15     5     6   ar
    16     6    10    1
    17    10    11    1
    18    10    12    1
    19    10    13    1
    20     6     7   ar
    21     7     8   ar
    22     8    14    1
    23    14    15    1
    24    14    16    1
    25    14    17    1
    26     8     9   ar
    27    23    24   ar
    28    24    25   ar
    29    28    29   ar
    30    29    30   ar
    31    30    31   ar
    32    31    26   ar
    33    25    20   ar
    34     9     4   ar
    35    18    19    1
@<TRIPOS>MOLECULE
*****
 33 35 0 0 0
SMALL
GASTEIGER

@<TRIPOS>ATOM
      1 S           5.7385   -3.1866   22.0657 S.O2    1  UNL1        0.0736
      2 O           6.7990   -2.1414   21.8844 O.2     1  UNL1       -0.1499
      3 O           4.6780   -4.2319   22.2470 O.2     1  UNL1       -0.1499
      4 C           4.7418   -2.2927   21.3895 C.ar    1  UNL1        0.1251
      5 C           3.7454   -1.5262   22.2078 C.ar    1  UNL1        0.0240
      6 C           2.7487   -0.6322   21.5316 C.ar    1  UNL1        0.0727
      7 C           2.7483   -0.5047   20.0370 C.ar    1  UNL1        0.0078
      8 C           3.7446   -1.2712   19.2187 C.ar    1  UNL1        0.0727
      9 C           4.7414   -2.1652   19.8949 C.ar    1  UNL1        0.0240
     10 C           1.7523    0.1344   22.3500 C.3     1  UNL1        0.4186
     11 F           0.7559    0.9009   23.1683 F       1  UNL1       -0.1659
     12 F           2.3712   -0.4024   23.6064 F       1  UNL1       -0.1659
     13 F           1.1333    0.6711   21.0935 F       1  UNL1       -0.1659
     14 C           3.7443   -1.1437   17.7241 C.3     1  UNL1        0.4186
     15 F           3.7440   -1.0163   16.2295 F       1  UNL1       -0.1659
     16 F           4.7175   -2.2810   17.6269 F       1  UNL1       -0.1659
     17 F           2.7711   -0.0065   17.8212 F       1  UNL1       -0.1659
     18 N           6.7353   -4.0806   22.7419 N.pl3   1  UNL1       -0.2150
     19 H           7.3739   -4.6018   22.2036 H       1  UNL1        0.1737
     20 C           6.8067   -4.3805   27.2313 C.ar    1  UNL1        0.0002
     21 C           7.2665   -5.5377   26.3950 C.ar    1  UNL1        0.0013
     22 C           7.2427   -5.4377   24.8985 C.ar    1  UNL1        0.0159
     23 C           6.7591   -4.1806   24.2384 C.ar    1  UNL1        0.0648
     24 C           6.2993   -3.0234   25.0747 C.ar    1  UNL1        0.0159
     25 C           6.3231   -3.1234   26.5713 C.ar    1  UNL1        0.0013
     26 C           6.4793   -3.3935   31.0613 C.ar    1  UNL1        0.0814
     27 C           6.4555   -3.2936   29.5649 C.ar    1  UNL1        0.0191
     28 C           6.8305   -4.4805   28.7279 C.ar    1  UNL1        0.0030
     29 C           7.2294   -5.7673   29.3873 C.ar    1  UNL1        0.0207
     30 C           7.2532   -5.8673   30.8837 C.ar    1  UNL1        0.0988
     31 N           6.8781   -4.6804   31.7208 N.ar    1  UNL1       -0.2438
     32 C           5.0341   -2.3327   32.9418 C.2     1  UNL1        0.0016
     33 C           6.1042   -2.2066   31.8983 C.2     1  UNL1        0.0191
@<TRIPOS>BOND
     1    32    33    2
     2    33    26    1
     3    26    27   ar
     4    27    28   ar
     5    28    20    1
     6    20    21   ar
     7    21    22   ar
     8    22    23   ar
     9    23    18    1
    10    18     1    1
    11     1     2    2
    12     1     3    2
    13     1     4    1
    14     4     5   ar
    15     5     6   ar
    16     6    10    1
    17    10    11    1
    18    10    12    1
    19    10    13    1
    20     6     7   ar
    21     7     8   ar
    22     8    14    1
    23    14    15    1
    24    14    16    1
    25    14    17    1
    26     8     9   ar
    27    23    24   ar
    28    24    25   ar
    29    28    29   ar
    30    29    30   ar
    31    30    31   ar
    32    31    26   ar
    33    25    20   ar
    34     9     4   ar
    35    18    19    1
