@<TRIPOS>MOLECULE
*****
 29 31 0 0 0
SMALL
GASTEIGER

@<TRIPOS>ATOM
      1 N          -5.7045  -15.6618   24.8330 N.am    1  UNL1       -0.3004
      2 C          -7.0637  -15.2990   24.3123 C.2     1  UNL1        0.2252
      3 O          -7.2359  -14.9062   22.8750 O.2     1  UNL1       -0.2750
      4 H          -5.5914  -15.9196   25.7764 H       1  UNL1        0.1497
      5 C          -4.5176  -15.6317   23.9162 C.3     1  UNL1        0.1165
      6 C          -2.3880  -18.1975   21.7641 C.ar    1  UNL1        0.1752
      7 C          -2.7680  -16.9709   22.5395 C.ar    1  UNL1        0.0376
      8 C          -4.1376  -16.8582   23.1409 C.ar    1  UNL1        0.0037
      9 C          -5.1271  -17.9721   22.9669 C.ar    1  UNL1        0.0376
     10 C          -4.7470  -19.1986   22.1915 C.ar    1  UNL1        0.1752
     11 C          -3.3775  -19.3113   21.5901 C.ar    1  UNL1        0.2060
     12 C          -0.8081  -17.9939   19.7116 C.3     1  UNL1        0.2526
     13 O          -1.0184  -18.3101   21.1627 O.3     1  UNL1       -0.4683
     14 O          -5.7365  -20.3124   22.0175 O.3     1  UNL1       -0.4683
     15 C          -7.1996  -20.0548   22.2242 C.3     1  UNL1        0.2526
     16 O          -2.9974  -20.5378   20.8147 O.3     1  UNL1       -0.4654
     17 C          -3.5973  -20.7861   19.4626 C.3     1  UNL1        0.2528
     18 C          -8.2506  -15.3291   25.2291 C.3     1  UNL1        0.1154
     19 C          -8.7462  -16.6367   25.7715 C.3     1  UNL1        0.1377
     20 C          -8.2282  -16.1115   27.0776 C.3     1  UNL1        0.0335
     21 C          -9.1606  -16.8886   24.3521 C.3     1  UNL1        0.0613
     22 C          -9.8041  -18.2422   24.2902 C.3     1  UNL1        0.1290
     23 C         -10.4203  -19.6066   24.3827 C.3     1  UNL1        0.0305
     24 C         -10.9819  -20.2607   23.1552 C.3     1  UNL1        0.0025
     25 C         -10.9272  -19.5503   21.8352 C.3     1  UNL1        0.0002
     26 C         -10.3110  -18.1859   21.7427 C.3     1  UNL1        0.0025
     27 C          -9.7494  -17.5318   22.9702 C.3     1  UNL1        0.0305
     28 O          -9.7874  -18.8269   25.6715 O.3     1  UNL1       -0.2256
     29 O          -9.1336  -17.8347   26.5870 O.3     1  UNL1       -0.2251
@<TRIPOS>BOND
     1    12    13    1
     2    13     6    1
     3     6     7   ar
     4     7     8   ar
     5     8     5    1
     6     5     1    1
     7     1     2   am
     8     2     3    2
     9     2    18    1
    10    18    19    1
    11    19    20    1
    12    19    21    1
    13    21    22    1
    14    22    23    1
    15    23    24    1
    16    24    25    1
    17    25    26    1
    18    26    27    1
    19    22    28    1
    20    28    29    1
    21     8     9   ar
    22     9    10   ar
    23    10    14    1
    24    14    15    1
    25    10    11   ar
    26    11    16    1
    27    16    17    1
    28    11     6   ar
    29    29    19    1
    30    27    22    1
    31     1     4    1
@<TRIPOS>MOLECULE
*****
 29 31 0 0 0
SMALL
GASTEIGER

@<TRIPOS>ATOM
      1 N          -5.6901  -15.6193   24.8138 N.am    1  UNL1       -0.3004
      2 C          -7.0583  -15.2802   24.3006 C.2     1  UNL1        0.2252
      3 O          -7.2493  -14.9164   22.8581 O.2     1  UNL1       -0.2750
      4 H          -5.5647  -15.8581   25.7606 H       1  UNL1        0.1497
      5 C          -4.5131  -15.5946   23.8843 C.3     1  UNL1        0.1165
      6 C          -4.7445  -19.1789   22.1964 C.ar    1  UNL1        0.1752
      7 C          -5.1238  -17.9443   22.9592 C.ar    1  UNL1        0.0376
      8 C          -4.1338  -16.8291   23.1214 C.ar    1  UNL1        0.0037
      9 C          -2.7645  -16.9485   22.5208 C.ar    1  UNL1        0.0376
     10 C          -2.3853  -18.1832   21.7579 C.ar    1  UNL1        0.1752
     11 C          -3.3752  -19.2983   21.5957 C.ar    1  UNL1        0.2060
     12 C          -7.1990  -20.0304   22.2238 C.3     1  UNL1        0.2526
     13 O          -5.7346  -20.2941   22.0342 O.3     1  UNL1       -0.4683
     14 O          -1.0160  -18.3026   21.1573 O.3     1  UNL1       -0.4683
     15 C          -0.7995  -17.9677   19.7113 C.3     1  UNL1        0.2526
     16 O          -2.9960  -20.5330   20.8329 O.3     1  UNL1       -0.4654
     17 C          -3.6065  -20.8015   19.4894 C.3     1  UNL1        0.2528
     18 C          -8.2354  -15.3049   25.2301 C.3     1  UNL1        0.1154
     19 C          -8.7291  -16.6100   25.7804 C.3     1  UNL1        0.1377
     20 C          -8.2037  -16.0800   27.0816 C.3     1  UNL1        0.0335
     21 C          -9.1512  -16.8672   24.3642 C.3     1  UNL1        0.0613
     22 C          -9.7961  -18.2206   24.3112 C.3     1  UNL1        0.1290
     23 C         -10.4128  -19.5841   24.4123 C.3     1  UNL1        0.0305
     24 C         -10.9814  -20.2426   23.1904 C.3     1  UNL1        0.0025
     25 C         -10.9333  -19.5374   21.8674 C.3     1  UNL1        0.0002
     26 C         -10.3165  -18.1739   21.7662 C.3     1  UNL1        0.0025
     27 C          -9.7479  -17.5154   22.9881 C.3     1  UNL1        0.0305
     28 O          -9.7724  -18.7998   25.6946 O.3     1  UNL1       -0.2256
     29 O          -9.1130  -17.8044   26.6027 O.3     1  UNL1       -0.2251
@<TRIPOS>BOND
     1    12    13    1
     2    13     6    1
     3     6     7   ar
     4     7     8   ar
     5     8     5    1
     6     5     1    1
     7     1     2   am
     8     2     3    2
     9     2    18    1
    10    18    19    1
    11    19    20    1
    12    19    21    1
    13    21    22    1
    14    22    23    1
    15    23    24    1
    16    24    25    1
    17    25    26    1
    18    26    27    1
    19    22    28    1
    20    28    29    1
    21     8     9   ar
    22     9    10   ar
    23    10    14    1
    24    14    15    1
    25    10    11   ar
    26    11    16    1
    27    16    17    1
    28    11     6   ar
    29    29    19    1
    30    27    22    1
    31     1     4    1
@<TRIPOS>MOLECULE
*****
 29 31 0 0 0
SMALL
GASTEIGER

@<TRIPOS>ATOM
      1 N          -8.2948  -19.9096   21.5450 N.am    1  UNL1       -0.3004
      2 C          -9.4138  -18.9942   21.1449 C.2     1  UNL1        0.2252
      3 O          -9.3735  -18.2959   19.8181 O.2     1  UNL1       -0.2750
      4 H          -8.3212  -20.3680   22.4159 H       1  UNL1        0.1497
      5 C          -7.1355  -20.1266   20.6182 C.3     1  UNL1        0.1165
      6 C          -3.3995  -18.8651   20.1698 C.ar    1  UNL1        0.1752
      7 C          -4.7236  -19.5068   19.8778 C.ar    1  UNL1        0.0376
      8 C          -5.8115  -19.4849   20.9102 C.ar    1  UNL1        0.0037
      9 C          -5.5755  -18.8215   22.2346 C.ar    1  UNL1        0.0376
     10 C          -4.2514  -18.1798   22.5266 C.ar    1  UNL1        0.1752
     11 C          -3.1635  -18.2017   21.4943 C.ar    1  UNL1        0.2060
     12 C          -1.9912  -17.6455   18.3589 C.3     1  UNL1        0.2526
     13 O          -2.3116  -18.8870   19.1374 O.3     1  UNL1       -0.4683
     14 O          -4.0154  -17.5164   23.8510 O.3     1  UNL1       -0.4683
     15 C          -4.7820  -16.2803   24.2178 C.3     1  UNL1        0.2526
     16 O          -1.8394  -17.5600   21.7862 O.3     1  UNL1       -0.4654
     17 C          -1.6711  -16.0788   21.6206 C.3     1  UNL1        0.2528
     18 C         -10.5731  -18.7772   22.0718 C.3     1  UNL1        0.1154
     19 C         -10.4591  -19.1600   23.5176 C.3     1  UNL1        0.1377
     20 C         -11.1546  -20.4142   23.0778 C.3     1  UNL1        0.0335
     21 C          -9.7875  -17.8258   23.6552 C.3     1  UNL1        0.0613
     22 C          -9.4038  -17.6462   25.0942 C.3     1  UNL1        0.1290
     23 C          -9.0830  -17.6081   26.5589 C.3     1  UNL1        0.0305
     24 C          -8.3870  -16.4148   27.1434 C.3     1  UNL1        0.0025
     25 C          -8.0118  -15.2596   26.2632 C.3     1  UNL1        0.0002
     26 C          -8.3326  -15.2977   24.7984 C.3     1  UNL1        0.0025
     27 C          -9.0286  -16.4910   24.2139 C.3     1  UNL1        0.0305
     28 O          -9.8383  -18.8693   25.8459 O.3     1  UNL1       -0.2256
     29 O         -10.4905  -19.8050   24.8715 O.3     1  UNL1       -0.2251
@<TRIPOS>BOND
     1    12    13    1
     2    13     6    1
     3     6     7   ar
     4     7     8   ar
     5     8     5    1
     6     5     1    1
     7     1     2   am
     8     2     3    2
     9     2    18    1
    10    18    19    1
    11    19    20    1
    12    19    21    1
    13    21    22    1
    14    22    23    1
    15    23    24    1
    16    24    25    1
    17    25    26    1
    18    26    27    1
    19    22    28    1
    20    28    29    1
    21     8     9   ar
    22     9    10   ar
    23    10    14    1
    24    14    15    1
    25    10    11   ar
    26    11    16    1
    27    16    17    1
    28    11     6   ar
    29    29    19    1
    30    27    22    1
    31     1     4    1
@<TRIPOS>MOLECULE
*****
 29 31 0 0 0
SMALL
GASTEIGER

@<TRIPOS>ATOM
      1 N          -8.2915  -19.9115   21.5372 N.am    1  UNL1       -0.3004
      2 C          -9.4183  -19.0011   21.1476 C.2     1  UNL1        0.2252
      3 O          -9.3869  -18.2918   19.8264 O.2     1  UNL1       -0.2750
      4 H          -8.3122  -20.3770   22.4044 H       1  UNL1        0.1497
      5 C          -7.1334  -20.1124   20.6054 C.3     1  UNL1        0.1165
      6 C          -4.2626  -18.1533   22.5212 C.ar    1  UNL1        0.1752
      7 C          -5.5846  -18.7967   22.2241 C.ar    1  UNL1        0.0376
      8 C          -5.8114  -19.4690   20.9025 C.ar    1  UNL1        0.0037
      9 C          -4.7161  -19.4980   19.8780 C.ar    1  UNL1        0.0376
     10 C          -3.3940  -18.8545   20.1752 C.ar    1  UNL1        0.1752
     11 C          -3.1673  -18.1822   21.4967 C.ar    1  UNL1        0.2060
     12 C          -4.7859  -16.2279   24.1853 C.3     1  UNL1        0.2526
     13 O          -4.0359  -17.4809   23.8428 O.3     1  UNL1       -0.4683
     14 O          -2.2988  -18.8835   19.1508 O.3     1  UNL1       -0.4683
     15 C          -1.9884  -17.6539   18.3497 C.3     1  UNL1        0.2526
     16 O          -1.8453  -17.5388   21.7939 O.3     1  UNL1       -0.4654
     17 C          -1.6877  -16.0531   21.6615 C.3     1  UNL1        0.2528
     18 C         -10.5766  -18.8001   22.0795 C.3     1  UNL1        0.1154
     19 C         -10.4559  -19.1943   23.5216 C.3     1  UNL1        0.1377
     20 C         -11.1314  -20.4553   23.0705 C.3     1  UNL1        0.0335
     21 C          -9.8056  -17.8509   23.6713 C.3     1  UNL1        0.0613
     22 C          -9.4242  -17.6783   25.1118 C.3     1  UNL1        0.1290
     23 C          -9.1035  -17.6486   26.5767 C.3     1  UNL1        0.0305
     24 C          -8.4264  -16.4498   27.1720 C.3     1  UNL1        0.0025
     25 C          -8.0702  -15.2807   26.3023 C.3     1  UNL1        0.0002
     26 C          -8.3909  -15.3105   24.8374 C.3     1  UNL1        0.0025
     27 C          -9.0679  -16.5093   24.2421 C.3     1  UNL1        0.0305
     28 O          -9.8388  -18.9152   25.8524 O.3     1  UNL1       -0.2256
     29 O         -10.4764  -19.8521   24.8696 O.3     1  UNL1       -0.2251
@<TRIPOS>BOND
     1    12    13    1
     2    13     6    1
     3     6     7   ar
     4     7     8   ar
     5     8     5    1
     6     5     1    1
     7     1     2   am
     8     2     3    2
     9     2    18    1
    10    18    19    1
    11    19    20    1
    12    19    21    1
    13    21    22    1
    14    22    23    1
    15    23    24    1
    16    24    25    1
    17    25    26    1
    18    26    27    1
    19    22    28    1
    20    28    29    1
    21     8     9   ar
    22     9    10   ar
    23    10    14    1
    24    14    15    1
    25    10    11   ar
    26    11    16    1
    27    16    17    1
    28    11     6   ar
    29    29    19    1
    30    27    22    1
    31     1     4    1
@<TRIPOS>MOLECULE
*****
 29 31 0 0 0
SMALL
GASTEIGER

@<TRIPOS>ATOM
      1 N          -8.1992  -20.6639   19.3522 N.am    1  UNL1       -0.3004
      2 C          -7.1085  -19.8227   19.9464 C.2     1  UNL1        0.2252
      3 O          -7.3460  -18.3661   20.2138 O.2     1  UNL1       -0.2750
      4 H          -8.0433  -21.6200   19.1767 H       1  UNL1        0.1497
      5 C          -9.5274  -20.0482   19.0256 C.3     1  UNL1        0.1165
      6 C         -11.9351  -17.4753   20.8512 C.ar    1  UNL1        0.1752
      7 C         -11.1378  -18.1527   19.7763 C.ar    1  UNL1        0.0376
      8 C         -10.3247  -19.3708   20.1005 C.ar    1  UNL1        0.0037
      9 C         -10.3089  -19.9115   21.4995 C.ar    1  UNL1        0.0376
     10 C         -11.1063  -19.2340   22.5744 C.ar    1  UNL1        0.1752
     11 C         -11.9193  -18.0160   22.2503 C.ar    1  UNL1        0.2060
     12 C         -12.4649  -15.4770   19.2776 C.3     1  UNL1        0.2526
     13 O         -12.7482  -16.2571   20.5270 O.3     1  UNL1       -0.4683
     14 O         -11.0905  -19.7748   23.9735 O.3     1  UNL1       -0.4683
     15 C         -10.0749  -19.2766   24.9586 C.3     1  UNL1        0.2526
     16 O         -12.7166  -17.3385   23.3252 O.3     1  UNL1       -0.4654
     17 C         -13.9107  -18.0253   23.9189 C.3     1  UNL1        0.2528
     18 C          -5.7801  -20.4384   20.2730 C.3     1  UNL1        0.1154
     19 C          -4.9522  -19.8843   21.3943 C.3     1  UNL1        0.1377
     20 C          -6.0137  -20.4867   22.2662 C.3     1  UNL1        0.0335
     21 C          -4.0637  -19.3978   20.2880 C.3     1  UNL1        0.0613
     22 C          -2.9084  -18.6689   20.9078 C.3     1  UNL1        0.1290
     23 C          -1.8180  -17.9727   21.6668 C.3     1  UNL1        0.0305
     24 C          -0.6869  -17.3221   20.9271 C.3     1  UNL1        0.0025
     25 C          -0.6462  -17.3676   19.4284 C.3     1  UNL1        0.0002
     26 C          -1.7366  -18.0638   18.6693 C.3     1  UNL1        0.0025
     27 C          -2.8677  -18.7144   19.4090 C.3     1  UNL1        0.0305
     28 O          -3.0829  -18.7049   22.3972 O.3     1  UNL1       -0.2256
     29 O          -4.3461  -19.4561   22.6979 O.3     1  UNL1       -0.2251
@<TRIPOS>BOND
     1    12    13    1
     2    13     6    1
     3     6     7   ar
     4     7     8   ar
     5     8     5    1
     6     5     1    1
     7     1     2   am
     8     2     3    2
     9     2    18    1
    10    18    19    1
    11    19    20    1
    12    19    21    1
    13    21    22    1
    14    22    23    1
    15    23    24    1
    16    24    25    1
    17    25    26    1
    18    26    27    1
    19    22    28    1
    20    28    29    1
    21     8     9   ar
    22     9    10   ar
    23    10    14    1
    24    14    15    1
    25    10    11   ar
    26    11    16    1
    27    16    17    1
    28    11     6   ar
    29    29    19    1
    30    27    22    1
    31     1     4    1
@<TRIPOS>MOLECULE
*****
 29 31 0 0 0
SMALL
GASTEIGER

@<TRIPOS>ATOM
      1 N          -8.2258  -20.6251   19.3172 N.am    1  UNL1       -0.3004
      2 C          -7.1272  -19.8054   19.9266 C.2     1  UNL1        0.2252
      3 O          -7.3500  -18.3512   20.2186 O.2     1  UNL1       -0.2750
      4 H          -8.0795  -21.5796   19.1255 H       1  UNL1        0.1497
      5 C          -9.5473  -19.9903   18.9999 C.3     1  UNL1        0.1165
      6 C         -11.1127  -19.2257   22.5657 C.ar    1  UNL1        0.1752
      7 C         -10.3182  -19.8871   21.4788 C.ar    1  UNL1        0.0376
      8 C         -10.3418  -19.3289   20.0867 C.ar    1  UNL1        0.0037
      9 C         -11.1600  -18.1093   19.7815 C.ar    1  UNL1        0.0376
     10 C         -11.9545  -17.4479   20.8685 C.ar    1  UNL1        0.1752
     11 C         -11.9309  -18.0061   22.2604 C.ar    1  UNL1        0.2060
     12 C         -10.1081  -19.2548   24.9615 C.3     1  UNL1        0.2526
     13 O         -11.0890  -19.7840   23.9577 O.3     1  UNL1       -0.4683
     14 O         -12.7727  -16.2283   20.5632 O.3     1  UNL1       -0.4683
     15 C         -12.5562  -15.4818   19.2803 C.3     1  UNL1        0.2526
     16 O         -12.7254  -17.3447   23.3474 O.3     1  UNL1       -0.4654
     17 C         -13.9161  -18.0416   23.9361 C.3     1  UNL1        0.2528
     18 C          -5.8056  -20.4402   20.2439 C.3     1  UNL1        0.1154
     19 C          -4.9717  -19.9118   21.3731 C.3     1  UNL1        0.1377
     20 C          -6.0361  -20.5215   22.2364 C.3     1  UNL1        0.0335
     21 C          -4.0816  -19.4125   20.2738 C.3     1  UNL1        0.0613
     22 C          -2.9199  -18.7029   20.9041 C.3     1  UNL1        0.1290
     23 C          -1.8232  -18.0280   21.6732 C.3     1  UNL1        0.0305
     24 C          -0.6886  -17.3728   20.9429 C.3     1  UNL1        0.0025
     25 C          -0.6509  -17.3924   19.4435 C.3     1  UNL1        0.0002
     26 C          -1.7476  -18.0674   18.6744 C.3     1  UNL1        0.0025
     27 C          -2.8822  -18.7226   19.4047 C.3     1  UNL1        0.0305
     28 O          -3.0922  -18.7636   22.3930 O.3     1  UNL1       -0.2256
     29 O          -4.3602  -19.5107   22.6829 O.3     1  UNL1       -0.2251
@<TRIPOS>BOND
     1    12    13    1
     2    13     6    1
     3     6     7   ar
     4     7     8   ar
     5     8     5    1
     6     5     1    1
     7     1     2   am
     8     2     3    2
     9     2    18    1
    10    18    19    1
    11    19    20    1
    12    19    21    1
    13    21    22    1
    14    22    23    1
    15    23    24    1
    16    24    25    1
    17    25    26    1
    18    26    27    1
    19    22    28    1
    20    28    29    1
    21     8     9   ar
    22     9    10   ar
    23    10    14    1
    24    14    15    1
    25    10    11   ar
    26    11    16    1
    27    16    17    1
    28    11     6   ar
    29    29    19    1
    30    27    22    1
    31     1     4    1
@<TRIPOS>MOLECULE
*****
 29 31 0 0 0
SMALL
GASTEIGER

@<TRIPOS>ATOM
      1 N          -6.9872  -19.1699   19.9496 N.am    1  UNL1       -0.3004
      2 C          -6.0207  -19.6453   20.9937 C.2     1  UNL1        0.2252
      3 O          -6.4483  -20.6730   21.9991 O.2     1  UNL1       -0.2750
      4 H          -6.7066  -18.4954   19.2897 H       1  UNL1        0.1497
      5 C          -8.3813  -19.7223   19.9111 C.3     1  UNL1        0.1165
      6 C         -10.6316  -18.6760   23.0082 C.ar    1  UNL1        0.1752
      7 C          -9.5464  -19.3217   22.1985 C.ar    1  UNL1        0.0376
      8 C          -9.4664  -19.0766   20.7208 C.ar    1  UNL1        0.0037
      9 C         -10.4716  -18.1860   20.0528 C.ar    1  UNL1        0.0376
     10 C         -11.5568  -17.5403   20.8626 C.ar    1  UNL1        0.1752
     11 C         -11.6368  -17.7854   22.3402 C.ar    1  UNL1        0.2060
     12 C         -10.0618  -20.1351   25.0811 C.3     1  UNL1        0.2526
     13 O         -10.7115  -18.9211   24.4859 O.3     1  UNL1       -0.4683
     14 O         -12.5620  -16.6497   20.1945 O.3     1  UNL1       -0.4683
     15 C         -12.1087  -15.6157   19.2069 C.3     1  UNL1        0.2526
     16 O         -12.7219  -17.1397   23.1499 O.3     1  UNL1       -0.4654
     17 C         -13.7831  -17.9844   23.7906 C.3     1  UNL1        0.2528
     18 C          -4.6266  -19.0930   21.0322 C.3     1  UNL1        0.1154
     19 C          -4.0880  -18.5045   22.3024 C.3     1  UNL1        0.1377
     20 C          -2.8706  -19.3187   21.9783 C.3     1  UNL1        0.0335
     21 C          -5.4180  -17.8133   22.3609 C.3     1  UNL1        0.0613
     22 C          -5.4469  -16.9678   23.5997 C.3     1  UNL1        0.1290
     23 C          -5.3304  -16.1742   24.8672 C.3     1  UNL1        0.0305
     24 C          -6.4711  -15.3116   25.3194 C.3     1  UNL1        0.0025
     25 C          -7.7283  -15.2425   24.5041 C.3     1  UNL1        0.0002
     26 C          -7.8448  -16.0361   23.2366 C.3     1  UNL1        0.0025
     27 C          -6.7041  -16.8987   22.7844 C.3     1  UNL1        0.0305
     28 O          -4.1347  -17.1364   24.3067 O.3     1  UNL1       -0.2256
     29 O          -3.2948  -18.0862   23.5049 O.3     1  UNL1       -0.2251
@<TRIPOS>BOND
     1    12    13    1
     2    13     6    1
     3     6     7   ar
     4     7     8   ar
     5     8     5    1
     6     5     1    1
     7     1     2   am
     8     2     3    2
     9     2    18    1
    10    18    19    1
    11    19    20    1
    12    19    21    1
    13    21    22    1
    14    22    23    1
    15    23    24    1
    16    24    25    1
    17    25    26    1
    18    26    27    1
    19    22    28    1
    20    28    29    1
    21     8     9   ar
    22     9    10   ar
    23    10    14    1
    24    14    15    1
    25    10    11   ar
    26    11    16    1
    27    16    17    1
    28    11     6   ar
    29    29    19    1
    30    27    22    1
    31     1     4    1
@<TRIPOS>MOLECULE
*****
 29 31 0 0 0
SMALL
GASTEIGER

@<TRIPOS>ATOM
      1 N          -5.9206  -16.4694   23.5666 N.am    1  UNL1       -0.3004
      2 C          -4.6188  -15.8531   23.1473 C.2     1  UNL1        0.2252
      3 O          -4.5753  -14.4206   22.7049 O.2     1  UNL1       -0.2750
      4 H          -5.9492  -17.4096   23.8570 H       1  UNL1        0.1497
      5 C          -7.1788  -15.6530   23.5433 C.3     1  UNL1        0.1165
      6 C         -10.8221  -16.4879   22.2095 C.ar    1  UNL1        0.1752
      7 C          -9.4928  -15.8125   22.3728 C.ar    1  UNL1        0.0376
      8 C          -8.5081  -16.3284   23.3800 C.ar    1  UNL1        0.0037
      9 C          -8.8528  -17.5196   24.2238 C.ar    1  UNL1        0.0376
     10 C         -10.1822  -18.1950   24.0605 C.ar    1  UNL1        0.1752
     11 C         -11.1668  -17.6791   23.0534 C.ar    1  UNL1        0.2060
     12 C         -11.4751  -16.0129   19.7401 C.3     1  UNL1        0.2526
     13 O         -11.8067  -15.9719   21.2023 O.3     1  UNL1       -0.4683
     14 O         -10.5269  -19.3863   24.9043 O.3     1  UNL1       -0.4683
     15 C          -9.8145  -20.6887   24.6898 C.3     1  UNL1        0.2526
     16 O         -12.4962  -18.3545   22.8900 O.3     1  UNL1       -0.4654
     17 C         -13.6597  -17.9352   23.7387 C.3     1  UNL1        0.2528
     18 C          -3.3606  -16.6695   23.1706 C.3     1  UNL1        0.1154
     19 C          -2.8753  -17.3351   21.9171 C.3     1  UNL1        0.1377
     20 C          -1.7998  -16.2907   21.9664 C.3     1  UNL1        0.0335
     21 C          -4.0522  -18.2404   22.1298 C.3     1  UNL1        0.0613
     22 C          -4.0695  -19.2473   21.0181 C.3     1  UNL1        0.1290
     23 C          -3.9579  -20.1833   19.8513 C.3     1  UNL1        0.0305
     24 C          -4.9647  -21.2806   19.6711 C.3     1  UNL1        0.0025
     25 C          -6.0831  -21.4417   20.6577 C.3     1  UNL1        0.0002
     26 C          -6.1947  -20.5057   21.8244 C.3     1  UNL1        0.0025
     27 C          -5.1879  -19.4085   22.0046 C.3     1  UNL1        0.0305
     28 O          -2.9033  -18.9643   20.1182 O.3     1  UNL1       -0.2256
     29 O          -2.1651  -17.7825   20.6738 O.3     1  UNL1       -0.2251
@<TRIPOS>BOND
     1    12    13    1
     2    13     6    1
     3     6     7   ar
     4     7     8   ar
     5     8     5    1
     6     5     1    1
     7     1     2   am
     8     2     3    2
     9     2    18    1
    10    18    19    1
    11    19    20    1
    12    19    21    1
    13    21    22    1
    14    22    23    1
    15    23    24    1
    16    24    25    1
    17    25    26    1
    18    26    27    1
    19    22    28    1
    20    28    29    1
    21     8     9   ar
    22     9    10   ar
    23    10    14    1
    24    14    15    1
    25    10    11   ar
    26    11    16    1
    27    16    17    1
    28    11     6   ar
    29    29    19    1
    30    27    22    1
    31     1     4    1
@<TRIPOS>MOLECULE
*****
 29 31 0 0 0
SMALL
GASTEIGER

@<TRIPOS>ATOM
      1 N          -5.7050  -16.3701   23.6658 N.am    1  UNL1       -0.3004
      2 C          -4.4371  -15.7897   23.1128 C.2     1  UNL1        0.2252
      3 O          -4.4235  -14.3871   22.5815 O.2     1  UNL1       -0.2750
      4 H          -5.7138  -17.2907   24.0145 H       1  UNL1        0.1497
      5 C          -6.9593  -15.5477   23.6873 C.3     1  UNL1        0.1165
      6 C         -10.0925  -17.9537   24.0668 C.ar    1  UNL1        0.1752
      7 C          -8.7652  -17.3038   24.3235 C.ar    1  UNL1        0.0376
      8 C          -8.2866  -16.1976   23.4306 C.ar    1  UNL1        0.0037
      9 C          -9.1353  -15.7412   22.2811 C.ar    1  UNL1        0.0376
     10 C         -10.4627  -16.3911   22.0244 C.ar    1  UNL1        0.1752
     11 C         -10.9412  -17.4973   22.9173 C.ar    1  UNL1        0.2060
     12 C         -10.0374  -20.4505   24.7830 C.3     1  UNL1        0.2526
     13 O         -10.5711  -19.0599   24.9597 O.3     1  UNL1       -0.4683
     14 O         -11.3113  -15.9348   20.8749 O.3     1  UNL1       -0.4683
     15 C         -11.4474  -16.7964   19.6547 C.3     1  UNL1        0.2526
     16 O         -12.2686  -18.1472   22.6606 O.3     1  UNL1       -0.4654
     17 C         -13.4299  -17.8641   23.5668 C.3     1  UNL1        0.2528
     18 C          -3.1827  -16.6120   23.0913 C.3     1  UNL1        0.1154
     19 C          -2.7561  -17.2961   21.8265 C.3     1  UNL1        0.1377
     20 C          -1.6602  -16.2719   21.8280 C.3     1  UNL1        0.0335
     21 C          -3.9411  -18.1773   22.0894 C.3     1  UNL1        0.0613
     22 C          -4.0179  -19.1920   20.9873 C.3     1  UNL1        0.1290
     23 C          -3.9665  -20.1387   19.8249 C.3     1  UNL1        0.0305
     24 C          -4.9995  -21.2180   19.6905 C.3     1  UNL1        0.0025
     25 C          -6.0839  -21.3505   20.7184 C.3     1  UNL1        0.0002
     26 C          -6.1352  -20.4038   21.8808 C.3     1  UNL1        0.0025
     27 C          -5.1022  -19.3246   22.0152 C.3     1  UNL1        0.0305
     28 O          -2.8802  -18.9380   20.0433 O.3     1  UNL1       -0.2256
     29 O          -2.1003  -17.7662   20.5619 O.3     1  UNL1       -0.2251
@<TRIPOS>BOND
     1    12    13    1
     2    13     6    1
     3     6     7   ar
     4     7     8   ar
     5     8     5    1
     6     5     1    1
     7     1     2   am
     8     2     3    2
     9     2    18    1
    10    18    19    1
    11    19    20    1
    12    19    21    1
    13    21    22    1
    14    22    23    1
    15    23    24    1
    16    24    25    1
    17    25    26    1
    18    26    27    1
    19    22    28    1
    20    28    29    1
    21     8     9   ar
    22     9    10   ar
    23    10    14    1
    24    14    15    1
    25    10    11   ar
    26    11    16    1
    27    16    17    1
    28    11     6   ar
    29    29    19    1
    30    27    22    1
    31     1     4    1
