@<TRIPOS>MOLECULE
*****
 32 35 0 0 0
SMALL
GASTEIGER

@<TRIPOS>ATOM
      1 N           6.5952   -2.6396   24.7358 N.pl3   1  UNL1       -0.2567
      2 C           6.9853   -2.7315   23.2904 C.ar    1  UNL1        0.1408
      3 N           6.7403   -1.4371   22.5731 N.ar    1  UNL1       -0.2290
      4 C           7.0641   -1.3155   21.1136 C.ar    1  UNL1        0.0961
      5 C           7.6329   -2.4882   20.3712 C.ar    1  UNL1        0.0010
      6 C           7.8780   -3.7827   21.0885 C.ar    1  UNL1        0.0047
      7 C           7.5542   -3.9043   22.5480 C.ar    1  UNL1        0.0855
      8 C           7.8733   -5.2748   23.0677 C.2     1  UNL1        0.2556
      9 O           8.4379   -6.2362   22.0644 O.2     1  UNL1       -0.2695
     10 N           7.7023   -5.8109   24.4582 N.am    1  UNL1       -0.2508
     11 C           8.1187   -7.2375   24.6614 C.3     1  UNL1        0.1204
     12 C           7.1701   -5.1090   25.6724 C.ar    1  UNL1        0.0863
     13 C           7.1673   -6.0120   26.8701 C.ar    1  UNL1        0.0194
     14 C           6.6717   -5.5036   28.1914 C.ar    1  UNL1        0.0221
     15 C           6.1789   -4.0922   28.3149 C.ar    1  UNL1        0.1004
     16 N           6.1818   -3.1893   27.1172 N.ar    1  UNL1       -0.2275
     17 C           6.6774   -3.6977   25.7959 C.ar    1  UNL1        0.1502
     18 C           4.5681   -1.0932   25.2358 C.3     1  UNL1        0.0237
     19 C           6.0507   -1.3144   25.1799 C.3     1  UNL1        0.0984
     20 C           7.9567   -2.3665   18.9117 C.3     1  UNL1        0.0752
     21 C           6.9004   -1.9229   17.9435 C.3     1  UNL1        0.2101
     22 O           5.5439   -2.5627   17.9684 O.3     1  UNL1       -0.4754
     23 C           4.3446   -1.7622   18.3816 C.ar    1  UNL1        0.1345
     24 C           3.9105   -0.5838   17.5611 C.ar    1  UNL1        0.0366
     25 C           2.7111    0.2167   17.9743 C.ar    1  UNL1        0.0042
     26 C           1.9459   -0.1611   19.2079 C.ar    1  UNL1        0.0139
     27 C           2.3800   -1.3394   20.0283 C.ar    1  UNL1       -0.0001
     28 C           3.5794   -2.1400   19.6151 C.ar    1  UNL1        0.0121
     29 C           4.0135   -3.3183   20.4355 C.3     1  UNL1        0.0342
     30 C           0.7465    0.6395   19.6211 C.2     1  UNL1        0.0729
     31 O           0.4370    1.9360   18.9333 O.co2   1  UNL1       -0.5446
     32 O          -0.1432    0.1434   20.7220 O.co2   1  UNL1       -0.5446
@<TRIPOS>UNITY_ATOM_ATTR
31 1
charge -1
@<TRIPOS>BOND
     1    18    19    1
     2    19     1    1
     3     1     2    1
     4     2     3   ar
     5     3     4   ar
     6     4     5   ar
     7     5    20    1
     8    20    21    1
     9    21    22    1
    10    22    23    1
    11    23    24   ar
    12    24    25   ar
    13    25    26   ar
    14    26    30    1
    15    30    31   ar
    16    30    32   ar
    17    26    27   ar
    18    27    28   ar
    19    28    29    1
    20     5     6   ar
    21     6     7   ar
    22     7     8    1
    23     8     9    2
    24     8    10   am
    25    10    11    1
    26    10    12    1
    27    12    13   ar
    28    13    14   ar
    29    14    15   ar
    30    15    16   ar
    31    16    17   ar
    32    17     1    1
    33     7     2   ar
    34    17    12   ar
    35    28    23   ar
@<TRIPOS>MOLECULE
*****
 32 35 0 0 0
SMALL
GASTEIGER

@<TRIPOS>ATOM
      1 N           1.7256   -0.1632   20.8950 N.pl3   1  UNL1       -0.2567
      2 C           1.1804    0.7681   21.9368 C.ar    1  UNL1        0.1408
      3 N           0.1488    1.6919   21.3604 N.ar    1  UNL1       -0.2290
      4 C          -0.5236    2.7062   22.2374 C.ar    1  UNL1        0.0961
      5 C          -0.1643    2.7967   23.6908 C.ar    1  UNL1        0.0010
      6 C           0.8674    1.8730   24.2674 C.ar    1  UNL1        0.0047
      7 C           1.5398    0.8587   23.3904 C.ar    1  UNL1        0.0855
      8 C           2.5329    0.0403   24.1610 C.2     1  UNL1        0.2556
      9 O           2.6643    0.3775   25.6166 O.2     1  UNL1       -0.2695
     10 N           3.4121   -1.0707   23.6684 N.am    1  UNL1       -0.2508
     11 C           4.3064   -1.6976   24.6966 C.3     1  UNL1        0.1204
     12 C           3.5153   -1.6378   22.2835 C.ar    1  UNL1        0.0863
     13 C           4.5232   -2.7469   22.2192 C.ar    1  UNL1        0.0194
     14 C           4.7805   -3.4520   20.9205 C.ar    1  UNL1        0.0221
     15 C           4.0299   -3.0481   19.6862 C.ar    1  UNL1        0.1004
     16 N           3.0220   -1.9390   19.7506 N.ar    1  UNL1       -0.2275
     17 C           2.7647   -1.2339   21.0492 C.ar    1  UNL1        0.1502
     18 C           1.7882    0.9563   18.5512 C.3     1  UNL1        0.0237
     19 C           1.1564   -0.0025   19.5165 C.3     1  UNL1        0.0984
     20 C          -0.8366    3.8110   24.5678 C.3     1  UNL1        0.0752
     21 C          -1.8835    3.3768   25.5503 C.3     1  UNL1        0.2101
     22 O          -1.5940    3.4170   27.0216 O.3     1  UNL1       -0.4754
     23 C          -0.6413    2.4284   27.6259 C.ar    1  UNL1        0.1345
     24 C          -1.0936    1.0259   27.9058 C.ar    1  UNL1        0.0366
     25 C          -0.1410    0.0372   28.5101 C.ar    1  UNL1        0.0042
     26 C           1.2638    0.4511   28.8344 C.ar    1  UNL1        0.0139
     27 C           1.7160    1.8536   28.5544 C.ar    1  UNL1       -0.0001
     28 C           0.7635    2.8423   27.9501 C.ar    1  UNL1        0.0121
     29 C           1.2157    4.2448   27.6701 C.3     1  UNL1        0.0342
     30 C           2.2165   -0.5376   29.4387 C.2     1  UNL1        0.0729
     31 O           3.1600   -1.3036   28.5596 O.co2   1  UNL1       -0.5446
     32 O           2.2255   -0.7601   30.9220 O.co2   1  UNL1       -0.5446
@<TRIPOS>UNITY_ATOM_ATTR
31 1
charge -1
@<TRIPOS>BOND
     1    18    19    1
     2    19     1    1
     3     1     2    1
     4     2     3   ar
     5     3     4   ar
     6     4     5   ar
     7     5    20    1
     8    20    21    1
     9    21    22    1
    10    22    23    1
    11    23    24   ar
    12    24    25   ar
    13    25    26   ar
    14    26    30    1
    15    30    31   ar
    16    30    32   ar
    17    26    27   ar
    18    27    28   ar
    19    28    29    1
    20     5     6   ar
    21     6     7   ar
    22     7     8    1
    23     8     9    2
    24     8    10   am
    25    10    11    1
    26    10    12    1
    27    12    13   ar
    28    13    14   ar
    29    14    15   ar
    30    15    16   ar
    31    16    17   ar
    32    17     1    1
    33     7     2   ar
    34    17    12   ar
    35    28    23   ar
@<TRIPOS>MOLECULE
*****
 32 35 0 0 0
SMALL
GASTEIGER

@<TRIPOS>ATOM
      1 N           8.3012   -6.2401   27.6071 N.pl3   1  UNL1       -0.2567
      2 C           8.1589   -5.7329   26.2026 C.ar    1  UNL1        0.1408
      3 N           8.8014   -6.6626   25.2164 N.ar    1  UNL1       -0.2290
      4 C           8.7719   -6.3396   23.7519 C.ar    1  UNL1        0.0961
      5 C           8.0999   -5.0868   23.2737 C.ar    1  UNL1        0.0010
      6 C           7.4574   -4.1569   24.2599 C.ar    1  UNL1        0.0047
      7 C           7.4869   -4.4800   25.7244 C.ar    1  UNL1        0.0855
      8 C           6.7913   -3.4249   26.5324 C.2     1  UNL1        0.2556
      9 O           6.2149   -2.2814   25.7513 O.2     1  UNL1       -0.2695
     10 N           6.5958   -3.3622   28.0183 N.am    1  UNL1       -0.2508
     11 C           5.8497   -2.1642   28.5266 C.3     1  UNL1        0.1204
     12 C           7.0476   -4.3390   29.0632 C.ar    1  UNL1        0.0863
     13 C           6.6445   -3.8960   30.4384 C.ar    1  UNL1        0.0194
     14 C           7.0004   -4.7338   31.6306 C.ar    1  UNL1        0.0221
     15 C           7.7594   -6.0146   31.4476 C.ar    1  UNL1        0.1004
     16 N           8.1625   -6.4576   30.0724 N.ar    1  UNL1       -0.2275
     17 C           7.8066   -5.6198   28.8802 C.ar    1  UNL1        0.1502
     18 C           8.3024   -8.8382   27.5951 C.3     1  UNL1        0.0237
     19 C           9.0351   -7.5395   27.7585 C.3     1  UNL1        0.0984
     20 C           8.0704   -4.7637   21.8092 C.3     1  UNL1        0.0752
     21 C           7.0103   -3.8539   21.2630 C.3     1  UNL1        0.2101
     22 O           5.5615   -4.2029   21.4340 O.3     1  UNL1       -0.4754
     23 C           4.5010   -3.2224   21.0290 C.ar    1  UNL1        0.1345
     24 C           4.1145   -2.1096   21.9576 C.ar    1  UNL1        0.0366
     25 C           3.0540   -1.1291   21.5526 C.ar    1  UNL1        0.0042
     26 C           2.3801   -1.2614   20.2190 C.ar    1  UNL1        0.0139
     27 C           2.7667   -2.3741   19.2905 C.ar    1  UNL1       -0.0001
     28 C           3.8271   -3.3547   19.6954 C.ar    1  UNL1        0.0121
     29 C           4.2138   -4.4675   18.7669 C.3     1  UNL1        0.0342
     30 C           1.3196   -0.2808   19.8140 C.2     1  UNL1        0.0729
     31 O           0.0746   -0.1394   20.6387 O.co2   1  UNL1       -0.5446
     32 O           1.5041    0.5582   18.5845 O.co2   1  UNL1       -0.5446
@<TRIPOS>UNITY_ATOM_ATTR
31 1
charge -1
@<TRIPOS>BOND
     1    18    19    1
     2    19     1    1
     3     1     2    1
     4     2     3   ar
     5     3     4   ar
     6     4     5   ar
     7     5    20    1
     8    20    21    1
     9    21    22    1
    10    22    23    1
    11    23    24   ar
    12    24    25   ar
    13    25    26   ar
    14    26    30    1
    15    30    31   ar
    16    30    32   ar
    17    26    27   ar
    18    27    28   ar
    19    28    29    1
    20     5     6   ar
    21     6     7   ar
    22     7     8    1
    23     8     9    2
    24     8    10   am
    25    10    11    1
    26    10    12    1
    27    12    13   ar
    28    13    14   ar
    29    14    15   ar
    30    15    16   ar
    31    16    17   ar
    32    17     1    1
    33     7     2   ar
    34    17    12   ar
    35    28    23   ar
@<TRIPOS>MOLECULE
*****
 32 35 0 0 0
SMALL
GASTEIGER

@<TRIPOS>ATOM
      1 N           8.0780   -4.8553   24.5093 N.pl3   1  UNL1       -0.2567
      2 C           7.7855   -3.9251   23.3695 C.ar    1  UNL1        0.1408
      3 N           8.4851   -4.3581   22.1153 N.ar    1  UNL1       -0.2290
      4 C           8.3249   -3.5620   20.8541 C.ar    1  UNL1        0.0961
      5 C           7.4651   -2.3330   20.8471 C.ar    1  UNL1        0.0010
      6 C           6.7654   -1.9000   22.1013 C.ar    1  UNL1        0.0047
      7 C           6.9256   -2.6960   23.3625 C.ar    1  UNL1        0.0855
      8 C           6.1460   -2.0936   24.4936 C.2     1  UNL1        0.2556
      9 O           5.3770   -0.8487   24.1636 O.2     1  UNL1       -0.2695
     10 N           6.0337   -2.5715   25.9110 N.am    1  UNL1       -0.2508
     11 C           5.1673   -1.7413   26.8110 C.3     1  UNL1        0.1204
     12 C           6.6733   -3.7698   26.5474 C.ar    1  UNL1        0.0863
     13 C           6.2985   -3.8870   27.9951 C.ar    1  UNL1        0.0194
     14 C           6.8335   -5.0206   28.8189 C.ar    1  UNL1        0.0221
     15 C           7.7433   -6.0370   28.1951 C.ar    1  UNL1        0.1004
     16 N           8.1181   -5.9198   26.7474 N.ar    1  UNL1       -0.2275
     17 C           7.5831   -4.7862   25.9236 C.ar    1  UNL1        0.1502
     18 C           8.4052   -7.3371   23.8135 C.3     1  UNL1        0.0237
     19 C           8.9856   -6.0069   24.1929 C.3     1  UNL1        0.0984
     20 C           7.3048   -1.5369   19.5859 C.3     1  UNL1        0.0752
     21 C           7.1186   -2.2397   18.2739 C.3     1  UNL1        0.2101
     22 O           5.7514   -2.6892   17.8513 O.3     1  UNL1       -0.4754
     23 C           4.5432   -1.8981   18.2566 C.ar    1  UNL1        0.1345
     24 C           4.1782   -0.6502   17.5085 C.ar    1  UNL1        0.0366
     25 C           2.9699    0.1409   17.9139 C.ar    1  UNL1        0.0042
     26 C           2.1267   -0.3159   19.0673 C.ar    1  UNL1        0.0139
     27 C           2.4917   -1.5637   19.8153 C.ar    1  UNL1       -0.0001
     28 C           3.6999   -2.3549   19.4100 C.ar    1  UNL1        0.0121
     29 C           4.0650   -3.6028   20.1580 C.3     1  UNL1        0.0342
     30 C           0.9184    0.4752   19.4726 C.2     1  UNL1        0.0729
     31 O           0.1189    0.0614   20.6724 O.co2   1  UNL1       -0.5446
     32 O           0.5098    1.6801   18.6783 O.co2   1  UNL1       -0.5446
@<TRIPOS>UNITY_ATOM_ATTR
31 1
charge -1
@<TRIPOS>BOND
     1    18    19    1
     2    19     1    1
     3     1     2    1
     4     2     3   ar
     5     3     4   ar
     6     4     5   ar
     7     5    20    1
     8    20    21    1
     9    21    22    1
    10    22    23    1
    11    23    24   ar
    12    24    25   ar
    13    25    26   ar
    14    26    30    1
    15    30    31   ar
    16    30    32   ar
    17    26    27   ar
    18    27    28   ar
    19    28    29    1
    20     5     6   ar
    21     6     7   ar
    22     7     8    1
    23     8     9    2
    24     8    10   am
    25    10    11    1
    26    10    12    1
    27    12    13   ar
    28    13    14   ar
    29    14    15   ar
    30    15    16   ar
    31    16    17   ar
    32    17     1    1
    33     7     2   ar
    34    17    12   ar
    35    28    23   ar
@<TRIPOS>MOLECULE
*****
 32 35 0 0 0
SMALL
GASTEIGER

@<TRIPOS>ATOM
      1 N           5.4723   -3.0267   21.0574 N.pl3   1  UNL1       -0.2567
      2 C           4.4557   -2.0690   21.6047 C.ar    1  UNL1        0.1408
      3 N           3.6297   -1.4617   20.5098 N.ar    1  UNL1       -0.2290
      4 C           2.5517   -0.4735   20.8437 C.ar    1  UNL1        0.0961
      5 C           2.2998   -0.0926   22.2724 C.ar    1  UNL1        0.0010
      6 C           3.1259   -0.6999   23.3674 C.ar    1  UNL1        0.0047
      7 C           4.2038   -1.6881   23.0335 C.ar    1  UNL1        0.0855
      8 C           4.9062   -2.1707   24.2679 C.2     1  UNL1        0.2556
      9 O           4.4160   -1.5944   25.5631 O.2     1  UNL1       -0.2695
     10 N           6.0340   -3.1535   24.3783 N.am    1  UNL1       -0.2508
     11 C           6.5224   -3.4301   25.7693 C.3     1  UNL1        0.1204
     12 C           6.7379   -3.8965   23.2817 C.ar    1  UNL1        0.0863
     13 C           7.8153   -4.7866   23.8266 C.ar    1  UNL1        0.0194
     14 C           8.6426   -5.6202   22.8936 C.ar    1  UNL1        0.0221
     15 C           8.3926   -5.5637   21.4157 C.ar    1  UNL1        0.1004
     16 N           7.3153   -4.6736   20.8707 N.ar    1  UNL1       -0.2275
     17 C           6.4879   -3.8400   21.8037 C.ar    1  UNL1        0.1502
     18 C           4.6184   -4.2481   18.9292 C.3     1  UNL1        0.0237
     19 C           5.4732   -3.1931   19.5667 C.3     1  UNL1        0.0984
     20 C           1.2219    0.8956   22.6063 C.3     1  UNL1        0.0752
     21 C           1.5623    2.3458   22.7828 C.3     1  UNL1        0.2101
     22 O           1.1924    3.0539   24.0523 O.3     1  UNL1       -0.4754
     23 C           0.9690    2.2692   25.3111 C.ar    1  UNL1        0.1345
     24 C           2.1247    1.5956   25.9899 C.ar    1  UNL1        0.0366
     25 C           1.9013    0.8109   27.2487 C.ar    1  UNL1        0.0042
     26 C           0.5224    0.6998   27.8285 C.ar    1  UNL1        0.0139
     27 C          -0.6332    1.3733   27.1496 C.ar    1  UNL1       -0.0001
     28 C          -0.4099    2.1580   25.8909 C.ar    1  UNL1        0.0121
     29 C          -1.5655    2.8316   25.2119 C.3     1  UNL1        0.0342
     30 C           0.2990   -0.0849   29.0873 C.2     1  UNL1        0.0729
     31 O           1.4424   -0.3423   30.0234 O.co2   1  UNL1       -0.5446
     32 O          -1.0676   -0.6122   29.4098 O.co2   1  UNL1       -0.5446
@<TRIPOS>UNITY_ATOM_ATTR
31 1
charge -1
@<TRIPOS>BOND
     1    18    19    1
     2    19     1    1
     3     1     2    1
     4     2     3   ar
     5     3     4   ar
     6     4     5   ar
     7     5    20    1
     8    20    21    1
     9    21    22    1
    10    22    23    1
    11    23    24   ar
    12    24    25   ar
    13    25    26   ar
    14    26    30    1
    15    30    31   ar
    16    30    32   ar
    17    26    27   ar
    18    27    28   ar
    19    28    29    1
    20     5     6   ar
    21     6     7   ar
    22     7     8    1
    23     8     9    2
    24     8    10   am
    25    10    11    1
    26    10    12    1
    27    12    13   ar
    28    13    14   ar
    29    14    15   ar
    30    15    16   ar
    31    16    17   ar
    32    17     1    1
    33     7     2   ar
    34    17    12   ar
    35    28    23   ar
@<TRIPOS>MOLECULE
*****
 32 35 0 0 0
SMALL
GASTEIGER

@<TRIPOS>ATOM
      1 N           6.0245   -1.6920   28.4909 N.pl3   1  UNL1       -0.2567
      2 C           6.4186   -2.5183   27.3027 C.ar    1  UNL1        0.1408
      3 N           6.2881   -1.7407   26.0267 N.ar    1  UNL1       -0.2290
      4 C           6.6339   -2.3850   24.7170 C.ar    1  UNL1        0.0961
      5 C           7.1100   -3.8070   24.6833 C.ar    1  UNL1        0.0010
      6 C           7.2405   -4.5847   25.9594 C.ar    1  UNL1        0.0047
      7 C           6.8948   -3.9403   27.2691 C.ar    1  UNL1        0.0855
      8 C           7.0945   -4.8872   28.4152 C.2     1  UNL1        0.2556
      9 O           7.5864   -6.2564   28.0502 O.2     1  UNL1       -0.2695
     10 N           6.8674   -4.6458   29.8781 N.am    1  UNL1       -0.2508
     11 C           7.1622   -5.8055   30.7826 C.3     1  UNL1        0.1204
     12 C           6.3844   -3.3980   30.5563 C.ar    1  UNL1        0.0863
     13 C           6.2961   -3.5811   32.0424 C.ar    1  UNL1        0.0194
     14 C           5.8326   -2.4495   32.9112 C.ar    1  UNL1        0.0221
     15 C           5.4575   -1.1349   32.2938 C.ar    1  UNL1        0.1004
     16 N           5.5458   -0.9519   30.8077 N.ar    1  UNL1       -0.2275
     17 C           6.0093   -2.0834   29.9389 C.ar    1  UNL1        0.1502
     18 C           6.5987    0.8192   28.1518 C.3     1  UNL1        0.0237
     19 C           5.5879   -0.2885   28.1916 C.3     1  UNL1        0.0984
     20 C           7.4558   -4.4513   23.3736 C.3     1  UNL1        0.0752
     21 C           6.8105   -3.9705   22.1078 C.3     1  UNL1        0.2101
     22 O           5.4014   -4.3710   21.7853 O.3     1  UNL1       -0.4754
     23 C           4.4218   -3.3433   21.3010 C.ar    1  UNL1        0.1345
     24 C           3.9561   -2.2572   22.2248 C.ar    1  UNL1        0.0366
     25 C           2.9765   -1.2296   21.7405 C.ar    1  UNL1        0.0042
     26 C           2.4627   -1.2881   20.3325 C.ar    1  UNL1        0.0139
     27 C           2.9285   -2.3742   19.4087 C.ar    1  UNL1       -0.0001
     28 C           3.9080   -3.4019   19.8929 C.ar    1  UNL1        0.0121
     29 C           4.3738   -4.4881   18.9692 C.3     1  UNL1        0.0342
     30 C           1.4832   -0.2605   19.8482 C.2     1  UNL1        0.0729
     31 O           0.2084   -0.0252   20.6029 O.co2   1  UNL1       -0.5446
     32 O           1.7784    0.5317   18.6092 O.co2   1  UNL1       -0.5446
@<TRIPOS>UNITY_ATOM_ATTR
31 1
charge -1
@<TRIPOS>BOND
     1    18    19    1
     2    19     1    1
     3     1     2    1
     4     2     3   ar
     5     3     4   ar
     6     4     5   ar
     7     5    20    1
     8    20    21    1
     9    21    22    1
    10    22    23    1
    11    23    24   ar
    12    24    25   ar
    13    25    26   ar
    14    26    30    1
    15    30    31   ar
    16    30    32   ar
    17    26    27   ar
    18    27    28   ar
    19    28    29    1
    20     5     6   ar
    21     6     7   ar
    22     7     8    1
    23     8     9    2
    24     8    10   am
    25    10    11    1
    26    10    12    1
    27    12    13   ar
    28    13    14   ar
    29    14    15   ar
    30    15    16   ar
    31    16    17   ar
    32    17     1    1
    33     7     2   ar
    34    17    12   ar
    35    28    23   ar
@<TRIPOS>MOLECULE
*****
 32 35 0 0 0
SMALL
GASTEIGER

@<TRIPOS>ATOM
      1 N          -1.3339    3.4446   23.8785 N.pl3   1  UNL1       -0.2567
      2 C          -0.7170    3.3313   22.5159 C.ar    1  UNL1        0.1408
      3 N           0.7642    3.1111   22.6015 N.ar    1  UNL1       -0.2290
      4 C           1.5752    2.9704   21.3475 C.ar    1  UNL1        0.0961
      5 C           0.9050    3.0499   20.0080 C.ar    1  UNL1        0.0010
      6 C          -0.5763    3.2701   19.9224 C.ar    1  UNL1        0.0047
      7 C          -1.3873    3.4108   21.1764 C.ar    1  UNL1        0.0855
      8 C          -2.8400    3.6232   20.8685 C.2     1  UNL1        0.2556
      9 O          -3.1989    3.6543   19.4125 O.2     1  UNL1       -0.2695
     10 N          -3.9811    3.8086   21.8243 N.am    1  UNL1       -0.2508
     11 C          -5.3303    4.0007   21.1976 C.3     1  UNL1        0.1204
     12 C          -3.9515    3.8274   23.3239 C.ar    1  UNL1        0.0863
     13 C          -5.3213    4.0411   23.8964 C.ar    1  UNL1        0.0194
     14 C          -5.5130    4.0928   25.3832 C.ar    1  UNL1        0.0221
     15 C          -4.3349    3.9308   26.2974 C.ar    1  UNL1        0.1004
     16 N          -2.9651    3.7171   25.7249 N.ar    1  UNL1       -0.2275
     17 C          -2.7734    3.6654   24.2381 C.ar    1  UNL1        0.1502
     18 C          -0.1450    1.9820   25.6667 C.3     1  UNL1        0.0237
     19 C          -0.3860    3.3208   25.0344 C.3     1  UNL1        0.0984
     20 C           1.7160    2.9092   18.7540 C.3     1  UNL1        0.0752
     21 C           2.8375    1.9150   18.6937 C.3     1  UNL1        0.2101
     22 O           2.6956    0.6737   17.8636 O.3     1  UNL1       -0.4754
     23 C           3.3345   -0.6067   18.3137 C.ar    1  UNL1        0.1345
     24 C           4.5461   -1.1310   17.6016 C.ar    1  UNL1        0.0366
     25 C           5.1850   -2.4114   18.0517 C.ar    1  UNL1        0.0042
     26 C           4.6123   -3.1673   19.2138 C.ar    1  UNL1        0.0139
     27 C           3.4007   -2.6429   19.9258 C.ar    1  UNL1       -0.0001
     28 C           2.7618   -1.3626   19.4758 C.ar    1  UNL1        0.0121
     29 C           1.5501   -0.8382   20.1878 C.3     1  UNL1        0.0342
     30 C           5.2512   -4.4477   19.6639 C.2     1  UNL1        0.0729
     31 O           4.6546   -5.7646   19.2640 O.co2   1  UNL1       -0.5446
     32 O           6.4865   -4.4111   20.5138 O.co2   1  UNL1       -0.5446
@<TRIPOS>UNITY_ATOM_ATTR
31 1
charge -1
@<TRIPOS>BOND
     1    18    19    1
     2    19     1    1
     3     1     2    1
     4     2     3   ar
     5     3     4   ar
     6     4     5   ar
     7     5    20    1
     8    20    21    1
     9    21    22    1
    10    22    23    1
    11    23    24   ar
    12    24    25   ar
    13    25    26   ar
    14    26    30    1
    15    30    31   ar
    16    30    32   ar
    17    26    27   ar
    18    27    28   ar
    19    28    29    1
    20     5     6   ar
    21     6     7   ar
    22     7     8    1
    23     8     9    2
    24     8    10   am
    25    10    11    1
    26    10    12    1
    27    12    13   ar
    28    13    14   ar
    29    14    15   ar
    30    15    16   ar
    31    16    17   ar
    32    17     1    1
    33     7     2   ar
    34    17    12   ar
    35    28    23   ar
@<TRIPOS>MOLECULE
*****
 32 35 0 0 0
SMALL
GASTEIGER

@<TRIPOS>ATOM
      1 N           6.3124   -2.8610   27.2869 N.pl3   1  UNL1       -0.2567
      2 C           6.5841   -3.3148   25.8832 C.ar    1  UNL1        0.1408
      3 N           6.1755   -2.2751   24.8822 N.ar    1  UNL1       -0.2290
      4 C           6.3629   -2.5309   23.4161 C.ar    1  UNL1        0.0961
      5 C           6.9589   -3.8264   22.9510 C.ar    1  UNL1        0.0010
      6 C           7.3675   -4.8662   23.9521 C.ar    1  UNL1        0.0047
      7 C           7.1801   -4.6104   25.4181 C.ar    1  UNL1        0.0855
      8 C           7.6516   -5.7720   26.2417 C.2     1  UNL1        0.2556
      9 O           8.2043   -6.9343   25.4714 O.2     1  UNL1       -0.2695
     10 N           7.6435   -5.9249   27.7339 N.am    1  UNL1       -0.2508
     11 C           8.1891   -7.2200   28.2584 C.3     1  UNL1        0.1204
     12 C           7.1619   -4.9541   28.7710 C.ar    1  UNL1        0.0863
     13 C           7.3338   -5.5023   30.1566 C.ar    1  UNL1        0.0194
     14 C           6.9133   -4.6868   31.3433 C.ar    1  UNL1        0.0221
     15 C           6.3209   -3.3232   31.1443 C.ar    1  UNL1        0.1004
     16 N           6.1490   -2.7750   29.7587 N.ar    1  UNL1       -0.2275
     17 C           6.5695   -3.5905   28.5721 C.ar    1  UNL1        0.1502
     18 C           4.2112   -1.3387   27.4217 C.3     1  UNL1        0.0237
     19 C           5.7028   -1.4972   27.4234 C.3     1  UNL1        0.0984
     20 C           7.1463   -4.0822   21.4849 C.3     1  UNL1        0.0752
     21 C           6.0509   -3.7422   20.5183 C.3     1  UNL1        0.2101
     22 O           6.0048   -2.3835   19.8846 O.3     1  UNL1       -0.4754
     23 C           4.6985   -1.6560   19.7641 C.ar    1  UNL1        0.1345
     24 C           3.6716   -1.7737   20.8510 C.ar    1  UNL1        0.0366
     25 C           2.3653   -1.0462   20.7305 C.ar    1  UNL1        0.0042
     26 C           2.0860   -0.2012   19.5231 C.ar    1  UNL1        0.0139
     27 C           3.1130   -0.0836   18.4362 C.ar    1  UNL1       -0.0001
     28 C           4.4193   -0.8110   18.5566 C.ar    1  UNL1        0.0121
     29 C           5.4463   -0.6934   17.4697 C.3     1  UNL1        0.0342
     30 C           0.7797    0.5262   19.4026 C.2     1  UNL1        0.0729
     31 O           0.4873    1.3452   18.1804 O.co2   1  UNL1       -0.5446
     32 O          -0.2341    0.4347   20.5043 O.co2   1  UNL1       -0.5446
@<TRIPOS>UNITY_ATOM_ATTR
31 1
charge -1
@<TRIPOS>BOND
     1    18    19    1
     2    19     1    1
     3     1     2    1
     4     2     3   ar
     5     3     4   ar
     6     4     5   ar
     7     5    20    1
     8    20    21    1
     9    21    22    1
    10    22    23    1
    11    23    24   ar
    12    24    25   ar
    13    25    26   ar
    14    26    30    1
    15    30    31   ar
    16    30    32   ar
    17    26    27   ar
    18    27    28   ar
    19    28    29    1
    20     5     6   ar
    21     6     7   ar
    22     7     8    1
    23     8     9    2
    24     8    10   am
    25    10    11    1
    26    10    12    1
    27    12    13   ar
    28    13    14   ar
    29    14    15   ar
    30    15    16   ar
    31    16    17   ar
    32    17     1    1
    33     7     2   ar
    34    17    12   ar
    35    28    23   ar
@<TRIPOS>MOLECULE
*****
 32 35 0 0 0
SMALL
GASTEIGER

@<TRIPOS>ATOM
      1 N           3.9497   -0.9601   25.2536 N.pl3   1  UNL1       -0.2567
      2 C           3.1219   -0.4186   24.1260 C.ar    1  UNL1        0.1408
      3 N           2.2063    0.6736   24.5936 N.ar    1  UNL1       -0.2290
      4 C           1.2896    1.3522   23.6194 C.ar    1  UNL1        0.0961
      5 C           1.2885    0.9385   22.1776 C.ar    1  UNL1        0.0010
      6 C           2.2041   -0.1537   21.7100 C.ar    1  UNL1        0.0047
      7 C           3.1209   -0.8323   22.6842 C.ar    1  UNL1        0.0855
      8 C           3.9473   -1.8895   22.0139 C.2     1  UNL1        0.2556
      9 O           3.7108   -2.0653   20.5431 O.2     1  UNL1       -0.2695
     10 N           4.9789   -2.7942   22.6199 N.am    1  UNL1       -0.2508
     11 C           5.6376   -3.7551   21.6750 C.3     1  UNL1        0.1204
     12 C           5.4389   -2.8652   24.0459 C.ar    1  UNL1        0.0863
     13 C           6.4938   -3.9156   24.2298 C.ar    1  UNL1        0.0194
     14 C           7.0906   -4.1497   25.5859 C.ar    1  UNL1        0.0221
     15 C           6.6326   -3.3335   26.7580 C.ar    1  UNL1        0.1004
     16 N           5.5777   -2.2830   26.5741 N.ar    1  UNL1       -0.2275
     17 C           4.9809   -2.0489   25.2180 C.ar    1  UNL1        0.1502
     18 C           4.5283    0.8584   27.0168 C.3     1  UNL1        0.0237
     19 C           3.7154   -0.3293   26.5943 C.3     1  UNL1        0.0984
     20 C           0.3718    1.6171   21.2033 C.3     1  UNL1        0.0752
     21 C           0.2181    1.0729   19.8141 C.3     1  UNL1        0.2101
     22 O           0.9950    1.6766   18.6818 O.3     1  UNL1       -0.4754
     23 C           2.3645    1.1606   18.3528 C.ar    1  UNL1        0.1345
     24 C           2.5200   -0.1321   17.6081 C.ar    1  UNL1        0.0366
     25 C           3.8895   -0.6481   17.2790 C.ar    1  UNL1        0.0042
     26 C           5.1035    0.1287   17.6948 C.ar    1  UNL1        0.0139
     27 C           4.9480    1.4213   18.4396 C.ar    1  UNL1       -0.0001
     28 C           3.5785    1.9374   18.7686 C.ar    1  UNL1        0.0121
     29 C           3.4230    3.2301   19.5134 C.3     1  UNL1        0.0342
     30 C           6.4730   -0.3873   17.3658 C.2     1  UNL1        0.0729
     31 O           7.5790    0.5734   17.0436 O.co2   1  UNL1       -0.5446
     32 O           6.7365   -1.8639   17.3590 O.co2   1  UNL1       -0.5446
@<TRIPOS>UNITY_ATOM_ATTR
31 1
charge -1
@<TRIPOS>BOND
     1    18    19    1
     2    19     1    1
     3     1     2    1
     4     2     3   ar
     5     3     4   ar
     6     4     5   ar
     7     5    20    1
     8    20    21    1
     9    21    22    1
    10    22    23    1
    11    23    24   ar
    12    24    25   ar
    13    25    26   ar
    14    26    30    1
    15    30    31   ar
    16    30    32   ar
    17    26    27   ar
    18    27    28   ar
    19    28    29    1
    20     5     6   ar
    21     6     7   ar
    22     7     8    1
    23     8     9    2
    24     8    10   am
    25    10    11    1
    26    10    12    1
    27    12    13   ar
    28    13    14   ar
    29    14    15   ar
    30    15    16   ar
    31    16    17   ar
    32    17     1    1
    33     7     2   ar
    34    17    12   ar
    35    28    23   ar
