@<TRIPOS>MOLECULE
*****
 30 33 0 0 0
SMALL
GASTEIGER

@<TRIPOS>ATOM
      1 C          -4.5117  -18.2197   22.5335 C.ar    1  UNL1        0.1427
      2 C          -5.9318  -18.4322   22.1001 C.ar    1  UNL1        0.0371
      3 C          -6.2241  -19.0447   20.7624 C.ar    1  UNL1        0.0045
      4 C          -5.0961  -19.4448   19.8582 C.ar    1  UNL1        0.0004
      5 C          -3.6760  -19.2323   20.2916 C.ar    1  UNL1        0.0076
      6 C          -3.3837  -18.6198   21.6293 C.ar    1  UNL1        0.0870
      7 C          -7.6443  -19.2572   20.3290 C.ar    1  UNL1        0.0193
      8 C          -7.9393  -20.0373   19.0822 C.ar    1  UNL1        0.0988
      9 N          -9.3594  -20.2498   18.6488 N.ar    1  UNL1       -0.2423
     10 C         -10.4848  -19.6821   19.4621 C.ar    1  UNL1        0.0989
     11 C         -10.1899  -18.9020   20.7088 C.ar    1  UNL1        0.0222
     12 C          -8.7696  -18.6895   21.1423 C.ar    1  UNL1        0.0032
     13 C         -11.3151  -18.3343   21.5221 C.ar    1  UNL1        0.0411
     14 C         -11.9827  -17.0096   21.2999 C.ar    1  UNL1        0.1217
     15 N         -13.0506  -16.8482   22.3409 N.ar    1  UNL1       -0.1676
     16 N         -13.0429  -18.0733   23.2065 N.ar    1  UNL1       -0.2463
     17 C         -11.9703  -18.9918   22.7005 C.ar    1  UNL1        0.0968
     18 C         -13.9488  -18.3342   24.3733 C.3     1  UNL1        0.1641
     19 C         -13.7536  -18.5009   25.8512 C.3     1  UNL1        0.1690
     20 O         -15.2299  -18.7030   26.0234 O.3     1  UNL1       -0.3495
     21 C         -15.4251  -18.5362   24.5455 C.3     1  UNL1        0.1690
     22 C          -1.9635  -18.4073   22.0627 C.2     1  UNL1        0.2457
     23 N          -1.6617  -18.0225   23.4808 N.am    1  UNL1       -0.3252
     24 O          -0.8451  -18.5796   21.0782 O.2     1  UNL1       -0.2703
     25 H          -2.3958  -17.9094   24.1270 H       1  UNL1        0.1453
     26 H          -0.7296  -17.8831   23.7653 H       1  UNL1        0.1453
     27 O          -4.2194  -17.6071   23.8712 O.3     1  UNL1       -0.4790
     28 C          -4.7690  -15.1660   23.1721 C.3     1  UNL1        0.0472
     29 C          -4.7612  -16.2498   24.2090 C.3     1  UNL1        0.1661
     30 C          -5.2953  -15.9763   25.5838 C.3     1  UNL1        0.0472
@<TRIPOS>BOND
     1    28    29    1
     2    29    30    1
     3    29    27    1
     4    27     1    1
     5     1     2   ar
     6     2     3   ar
     7     3     7    1
     8     7     8   ar
     9     8     9   ar
    10     9    10   ar
    11    10    11   ar
    12    11    13    1
    13    13    14   ar
    14    14    15   ar
    15    15    16   ar
    16    16    18    1
    17    18    19    1
    18    19    20    1
    19    20    21    1
    20    16    17   ar
    21    11    12   ar
    22     3     4   ar
    23     4     5   ar
    24     5     6   ar
    25     6    22    1
    26    22    23   am
    27    22    24    2
    28     6     1   ar
    29    12     7   ar
    30    17    13   ar
    31    21    18    1
    32    23    25    1
    33    23    26    1
@<TRIPOS>MOLECULE
*****
 30 33 0 0 0
SMALL
GASTEIGER

@<TRIPOS>ATOM
      1 C           3.0541   -1.2450   20.4452 C.ar    1  UNL1        0.1427
      2 C           4.1677   -2.1867   20.7960 C.ar    1  UNL1        0.0371
      3 C           4.5994   -2.3387   22.2245 C.ar    1  UNL1        0.0045
      4 C           3.9176   -1.5489   23.3021 C.ar    1  UNL1        0.0004
      5 C           2.8040   -0.6072   22.9513 C.ar    1  UNL1        0.0076
      6 C           2.3723   -0.4553   21.5228 C.ar    1  UNL1        0.0870
      7 C           5.7131   -3.2804   22.5752 C.ar    1  UNL1        0.0193
      8 C           6.6711   -3.7369   21.5152 C.ar    1  UNL1        0.0988
      9 N           7.7847   -4.6786   21.8659 N.ar    1  UNL1       -0.2423
     10 C           7.9403   -5.1639   23.2768 C.ar    1  UNL1        0.0989
     11 C           6.9822   -4.7074   24.3368 C.ar    1  UNL1        0.0222
     12 C           5.8686   -3.7656   23.9860 C.ar    1  UNL1        0.0032
     13 C           7.1377   -5.1926   25.7476 C.ar    1  UNL1        0.0411
     14 C           7.6478   -6.5400   26.1654 C.ar    1  UNL1        0.1217
     15 N           7.6358   -6.5958   27.6643 N.ar    1  UNL1       -0.1676
     16 N           7.1183   -5.2828   28.1729 N.ar    1  UNL1       -0.2463
     17 C           6.8105   -4.4157   26.9883 C.ar    1  UNL1        0.0968
     18 C           6.9399   -4.9037   29.6132 C.3     1  UNL1        0.1641
     19 C           6.6388   -3.6295   30.3451 C.3     1  UNL1        0.1690
     20 O           6.6877   -4.3675   31.6501 O.3     1  UNL1       -0.3495
     21 C           6.9888   -5.6417   30.9181 C.3     1  UNL1        0.1690
     22 C           1.2587    0.4865   21.1720 C.2     1  UNL1        0.2457
     23 N           0.0117   -0.0356   20.5221 N.am    1  UNL1       -0.3252
     24 O           1.3921    1.9503   21.4711 O.2     1  UNL1       -0.2703
     25 H          -0.0759   -0.9963   20.3257 H       1  UNL1        0.1453
     26 H          -0.7192    0.5825   20.2918 H       1  UNL1        0.1453
     27 O           2.6224   -1.0930   19.0167 O.3     1  UNL1       -0.4790
     28 C           3.8662   -0.8285   16.7511 C.3     1  UNL1        0.0472
     29 C           3.4371   -0.2607   18.0715 C.3     1  UNL1        0.1661
     30 C           3.8226    1.1396   18.4466 C.3     1  UNL1        0.0472
@<TRIPOS>BOND
     1    28    29    1
     2    29    30    1
     3    29    27    1
     4    27     1    1
     5     1     2   ar
     6     2     3   ar
     7     3     7    1
     8     7     8   ar
     9     8     9   ar
    10     9    10   ar
    11    10    11   ar
    12    11    13    1
    13    13    14   ar
    14    14    15   ar
    15    15    16   ar
    16    16    18    1
    17    18    19    1
    18    19    20    1
    19    20    21    1
    20    16    17   ar
    21    11    12   ar
    22     3     4   ar
    23     4     5   ar
    24     5     6   ar
    25     6    22    1
    26    22    23   am
    27    22    24    2
    28     6     1   ar
    29    12     7   ar
    30    17    13   ar
    31    21    18    1
    32    23    25    1
    33    23    26    1
@<TRIPOS>MOLECULE
*****
 30 33 0 0 0
SMALL
GASTEIGER

@<TRIPOS>ATOM
      1 C           3.4970   -2.0748   20.1846 C.ar    1  UNL1        0.1427
      2 C           2.5645   -1.0538   20.7661 C.ar    1  UNL1        0.0371
      3 C           2.1905    0.1605   19.9690 C.ar    1  UNL1        0.0045
      4 C           2.7489    0.3539   18.5903 C.ar    1  UNL1        0.0004
      5 C           3.6813   -0.6670   18.0088 C.ar    1  UNL1        0.0076
      6 C           4.0554   -1.8813   18.8060 C.ar    1  UNL1        0.0870
      7 C           1.2579    1.1815   20.5506 C.ar    1  UNL1        0.0193
      8 C           0.6179    2.2056   19.6609 C.ar    1  UNL1        0.0988
      9 N          -0.3146    3.2265   20.2424 N.ar    1  UNL1       -0.2423
     10 C          -0.6070    3.2233   21.7136 C.ar    1  UNL1        0.0989
     11 C           0.0330    2.1992   22.6033 C.ar    1  UNL1        0.0222
     12 C           0.9655    1.1783   22.0217 C.ar    1  UNL1        0.0032
     13 C          -0.2594    2.1960   24.0745 C.ar    1  UNL1        0.0411
     14 C          -1.0136    3.2528   24.8258 C.ar    1  UNL1        0.1217
     15 N          -1.0693    2.8454   26.2684 N.ar    1  UNL1       -0.1676
     16 N          -0.3496    1.5368   26.4085 N.ar    1  UNL1       -0.2463
     17 C           0.1510    1.1355   25.0527 C.ar    1  UNL1        0.0968
     18 C          -0.1631    0.7650   27.6812 C.3     1  UNL1        0.1641
     19 C          -1.0644   -0.0205   28.5871 C.3     1  UNL1        0.1690
     20 O           0.1007   -0.3264   29.4810 O.3     1  UNL1       -0.3495
     21 C           1.0020    0.4591   28.5751 C.3     1  UNL1        0.1690
     22 C           4.9879   -2.9023   18.2244 C.2     1  UNL1        0.2457
     23 N           4.6663   -4.3630   18.3386 N.am    1  UNL1       -0.3252
     24 O           6.2419   -2.4625   17.5287 O.2     1  UNL1       -0.2703
     25 H           3.8433   -4.6516   18.7953 H       1  UNL1        0.1453
     26 H           5.2783   -5.0330   17.9569 H       1  UNL1        0.1453
     27 O           3.8710   -3.2891   20.9818 O.3     1  UNL1       -0.4790
     28 C           4.6843   -2.7388   23.3871 C.3     1  UNL1        0.0472
     29 C           4.9756   -3.2111   21.9936 C.3     1  UNL1        0.1661
     30 C           6.3716   -3.6056   21.6118 C.3     1  UNL1        0.0472
@<TRIPOS>BOND
     1    28    29    1
     2    29    30    1
     3    29    27    1
     4    27     1    1
     5     1     2   ar
     6     2     3   ar
     7     3     7    1
     8     7     8   ar
     9     8     9   ar
    10     9    10   ar
    11    10    11   ar
    12    11    13    1
    13    13    14   ar
    14    14    15   ar
    15    15    16   ar
    16    16    18    1
    17    18    19    1
    18    19    20    1
    19    20    21    1
    20    16    17   ar
    21    11    12   ar
    22     3     4   ar
    23     4     5   ar
    24     5     6   ar
    25     6    22    1
    26    22    23   am
    27    22    24    2
    28     6     1   ar
    29    12     7   ar
    30    17    13   ar
    31    21    18    1
    32    23    25    1
    33    23    26    1
@<TRIPOS>MOLECULE
*****
 30 33 0 0 0
SMALL
GASTEIGER

@<TRIPOS>ATOM
      1 C           3.4012   -1.8312   20.2709 C.ar    1  UNL1        0.1427
      2 C           3.0158   -1.0140   21.4683 C.ar    1  UNL1        0.0371
      3 C           3.4631   -1.4326   22.8375 C.ar    1  UNL1        0.0045
      4 C           4.2957   -2.6683   23.0094 C.ar    1  UNL1        0.0004
      5 C           4.6812   -3.4855   21.8120 C.ar    1  UNL1        0.0076
      6 C           4.2339   -3.0669   20.4428 C.ar    1  UNL1        0.0870
      7 C           3.0776   -0.6154   24.0349 C.ar    1  UNL1        0.0193
      8 C           3.7878   -0.8169   25.3406 C.ar    1  UNL1        0.0988
      9 N           3.4024    0.0002   26.5380 N.ar    1  UNL1       -0.2423
     10 C           2.3067    1.0189   26.4296 C.ar    1  UNL1        0.0989
     11 C           1.5964    1.2205   25.1239 C.ar    1  UNL1        0.0222
     12 C           1.9819    0.4032   23.9265 C.ar    1  UNL1        0.0032
     13 C           0.5007    2.2391   25.0155 C.ar    1  UNL1        0.0411
     14 C           0.6260    3.6084   24.4159 C.ar    1  UNL1        0.1217
     15 N          -0.7099    4.2829   24.5175 N.ar    1  UNL1       -0.1676
     16 N          -1.6608    3.3305   25.1799 N.ar    1  UNL1       -0.2463
     17 C          -0.9126    2.0674   25.4876 C.ar    1  UNL1        0.0968
     18 C          -3.1062    3.5948   25.4815 C.3     1  UNL1        0.1641
     19 C          -4.3735    3.6002   24.6790 C.3     1  UNL1        0.1690
     20 O          -5.1503    3.9686   25.9081 O.3     1  UNL1       -0.3495
     21 C          -3.8831    3.9632   26.7106 C.3     1  UNL1        0.1690
     22 C           4.6194   -3.8841   19.2454 C.2     1  UNL1        0.2457
     23 N           5.0198   -3.2033   17.9702 N.am    1  UNL1       -0.3252
     24 O           4.6045   -5.3819   19.3233 O.2     1  UNL1       -0.2703
     25 H           5.0296   -2.2202   17.9190 H       1  UNL1        0.1453
     26 H           5.2728   -3.7396   17.1843 H       1  UNL1        0.1453
     27 O           2.9540   -1.4126   18.9017 O.3     1  UNL1       -0.4790
     28 C           3.9527    0.9155   18.3251 C.3     1  UNL1        0.0472
     29 C           2.7622    0.0415   18.5872 C.3     1  UNL1        0.1661
     30 C           1.3798    0.6216   18.5349 C.3     1  UNL1        0.0472
@<TRIPOS>BOND
     1    28    29    1
     2    29    30    1
     3    29    27    1
     4    27     1    1
     5     1     2   ar
     6     2     3   ar
     7     3     7    1
     8     7     8   ar
     9     8     9   ar
    10     9    10   ar
    11    10    11   ar
    12    11    13    1
    13    13    14   ar
    14    14    15   ar
    15    15    16   ar
    16    16    18    1
    17    18    19    1
    18    19    20    1
    19    20    21    1
    20    16    17   ar
    21    11    12   ar
    22     3     4   ar
    23     4     5   ar
    24     5     6   ar
    25     6    22    1
    26    22    23   am
    27    22    24    2
    28     6     1   ar
    29    12     7   ar
    30    17    13   ar
    31    21    18    1
    32    23    25    1
    33    23    26    1
@<TRIPOS>MOLECULE
*****
 30 33 0 0 0
SMALL
GASTEIGER

@<TRIPOS>ATOM
      1 C           3.3978   -1.8822   20.3273 C.ar    1  UNL1        0.1427
      2 C           3.0436   -1.1247   21.5726 C.ar    1  UNL1        0.0371
      3 C           3.5885   -1.5651   22.8989 C.ar    1  UNL1        0.0045
      4 C           4.4876   -2.7631   22.9799 C.ar    1  UNL1        0.0004
      5 C           4.8417   -3.5206   21.7347 C.ar    1  UNL1        0.0076
      6 C           4.2968   -3.0801   20.4084 C.ar    1  UNL1        0.0870
      7 C           3.2343   -0.8076   24.1442 C.ar    1  UNL1        0.0193
      8 C           2.2685    0.3381   24.0759 C.ar    1  UNL1        0.0988
      9 N           1.9143    1.0957   25.3212 N.ar    1  UNL1       -0.2423
     10 C           2.5259    0.7075   26.6347 C.ar    1  UNL1        0.0989
     11 C           3.4917   -0.4382   26.7030 C.ar    1  UNL1        0.0222
     12 C           3.8459   -1.1957   25.4577 C.ar    1  UNL1        0.0032
     13 C           4.1032   -0.8263   28.0165 C.ar    1  UNL1        0.0411
     14 C           5.4536   -1.4500   28.2103 C.ar    1  UNL1        0.1217
     15 N           5.6568   -1.6681   29.6804 N.ar    1  UNL1       -0.1676
     16 N           4.4319   -1.1791   30.3951 N.ar    1  UNL1       -0.2463
     17 C           3.4718   -0.6589   29.3668 C.ar    1  UNL1        0.0968
     18 C           4.2068   -1.2057   31.8779 C.3     1  UNL1        0.1641
     19 C           4.4432   -2.2077   32.9688 C.3     1  UNL1        0.1690
     20 O           3.8884   -1.2433   33.9749 O.3     1  UNL1       -0.3495
     21 C           3.6519   -0.2414   32.8839 C.3     1  UNL1        0.1690
     22 C           4.6510   -3.8377   19.1631 C.2     1  UNL1        0.2457
     23 N           4.9819   -3.0955   17.9022 N.am    1  UNL1       -0.3252
     24 O           4.6744   -5.3374   19.1786 O.2     1  UNL1       -0.2703
     25 H           4.9665   -2.1111   17.8921 H       1  UNL1        0.1453
     26 H           5.2143   -3.5926   17.0849 H       1  UNL1        0.1453
     27 O           2.8529   -1.4417   19.0010 O.3     1  UNL1       -0.4790
     28 C           1.4348    0.6872   18.5467 C.3     1  UNL1        0.0472
     29 C           2.7721    0.0193   18.6712 C.3     1  UNL1        0.1661
     30 C           4.0286    0.8125   18.4659 C.3     1  UNL1        0.0472
@<TRIPOS>BOND
     1    28    29    1
     2    29    30    1
     3    29    27    1
     4    27     1    1
     5     1     2   ar
     6     2     3   ar
     7     3     7    1
     8     7     8   ar
     9     8     9   ar
    10     9    10   ar
    11    10    11   ar
    12    11    13    1
    13    13    14   ar
    14    14    15   ar
    15    15    16   ar
    16    16    18    1
    17    18    19    1
    18    19    20    1
    19    20    21    1
    20    16    17   ar
    21    11    12   ar
    22     3     4   ar
    23     4     5   ar
    24     5     6   ar
    25     6    22    1
    26    22    23   am
    27    22    24    2
    28     6     1   ar
    29    12     7   ar
    30    17    13   ar
    31    21    18    1
    32    23    25    1
    33    23    26    1
@<TRIPOS>MOLECULE
*****
 30 33 0 0 0
SMALL
GASTEIGER

@<TRIPOS>ATOM
      1 C           4.6763   -3.0227   21.3377 C.ar    1  UNL1        0.1427
      2 C           4.3039   -2.3489   22.6250 C.ar    1  UNL1        0.0371
      3 C           3.3508   -1.1906   22.6169 C.ar    1  UNL1        0.0045
      4 C           2.7701   -0.7063   21.3215 C.ar    1  UNL1        0.0004
      5 C           3.1424   -1.3802   20.0342 C.ar    1  UNL1        0.0076
      6 C           4.0956   -2.5384   20.0423 C.ar    1  UNL1        0.0870
      7 C           2.9785   -0.5168   23.9043 C.ar    1  UNL1        0.0193
      8 C           1.9587    0.5833   23.9074 C.ar    1  UNL1        0.0988
      9 N           1.5864    1.2572   25.1947 N.ar    1  UNL1       -0.2423
     10 C           2.2338    0.8310   26.4790 C.ar    1  UNL1        0.0989
     11 C           3.2535   -0.2691   26.4759 C.ar    1  UNL1        0.0222
     12 C           3.6258   -0.9430   25.1885 C.ar    1  UNL1        0.0032
     13 C           3.9008   -0.6953   27.7601 C.ar    1  UNL1        0.0411
     14 C           5.2382   -1.3611   27.8948 C.ar    1  UNL1        0.1217
     15 N           5.4884   -1.6078   29.3531 N.ar    1  UNL1       -0.1676
     16 N           4.3056   -1.0945   30.1196 N.ar    1  UNL1       -0.2463
     17 C           3.3245   -0.5305   29.1351 C.ar    1  UNL1        0.0968
     18 C           4.1342   -1.1375   31.6092 C.3     1  UNL1        0.1641
     19 C           3.5286   -0.2248   32.6340 C.3     1  UNL1        0.1690
     20 O           3.8917   -1.1985   33.7157 O.3     1  UNL1       -0.3495
     21 C           4.4972   -2.1112   32.6909 C.3     1  UNL1        0.1690
     22 C           4.4679   -3.2123   18.7549 C.2     1  UNL1        0.2457
     23 N           4.2632   -4.6896   18.5952 N.am    1  UNL1       -0.3252
     24 O           5.0449   -2.4088   17.6273 O.2     1  UNL1       -0.2703
     25 H           3.8845   -5.2170   19.3352 H       1  UNL1        0.1453
     26 H           4.5076   -5.1319   17.7502 H       1  UNL1        0.1453
     27 O           5.6294   -4.1810   21.3458 O.3     1  UNL1       -0.4790
     28 C           7.8082   -3.1635   20.3621 C.3     1  UNL1        0.0472
     29 C           7.1063   -3.9363   21.4392 C.3     1  UNL1        0.1661
     30 C           7.8815   -4.4644   22.6099 C.3     1  UNL1        0.0472
@<TRIPOS>BOND
     1    28    29    1
     2    29    30    1
     3    29    27    1
     4    27     1    1
     5     1     2   ar
     6     2     3   ar
     7     3     7    1
     8     7     8   ar
     9     8     9   ar
    10     9    10   ar
    11    10    11   ar
    12    11    13    1
    13    13    14   ar
    14    14    15   ar
    15    15    16   ar
    16    16    18    1
    17    18    19    1
    18    19    20    1
    19    20    21    1
    20    16    17   ar
    21    11    12   ar
    22     3     4   ar
    23     4     5   ar
    24     5     6   ar
    25     6    22    1
    26    22    23   am
    27    22    24    2
    28     6     1   ar
    29    12     7   ar
    30    17    13   ar
    31    21    18    1
    32    23    25    1
    33    23    26    1
@<TRIPOS>MOLECULE
*****
 30 33 0 0 0
SMALL
GASTEIGER

@<TRIPOS>ATOM
      1 C           4.7746   -3.0116   21.2651 C.ar    1  UNL1        0.1427
      2 C           4.2841   -2.2606   22.4674 C.ar    1  UNL1        0.0371
      3 C           3.2485   -1.1869   22.3099 C.ar    1  UNL1        0.0045
      4 C           2.7034   -0.8642   20.9503 C.ar    1  UNL1        0.0004
      5 C           3.1940   -1.6152   19.7481 C.ar    1  UNL1        0.0076
      6 C           4.2295   -2.6888   19.9055 C.ar    1  UNL1        0.0870
      7 C           2.7579   -0.4360   23.5123 C.ar    1  UNL1        0.0193
      8 C           3.4427   -0.6093   24.8356 C.ar    1  UNL1        0.0988
      9 N           2.9522    0.1416   26.0378 N.ar    1  UNL1       -0.2423
     10 C           1.7770    1.0659   25.9169 C.ar    1  UNL1        0.0989
     11 C           1.0922    1.2392   24.5936 C.ar    1  UNL1        0.0222
     12 C           1.5827    0.4882   23.3913 C.ar    1  UNL1        0.0032
     13 C          -0.0830    2.1634   24.4726 C.ar    1  UNL1        0.0411
     14 C          -0.4138    3.0183   23.2853 C.ar    1  UNL1        0.1217
     15 N          -1.6690    3.7782   23.5965 N.ar    1  UNL1       -0.1676
     16 N          -2.1140    3.3929   24.9763 N.ar    1  UNL1       -0.2463
     17 C          -1.1338    2.3949   25.5177 C.ar    1  UNL1        0.0968
     18 C          -3.3264    3.9142   25.6894 C.3     1  UNL1        0.1641
     19 C          -4.8042    3.8774   25.4350 C.3     1  UNL1        0.1690
     20 O          -5.0408    4.6514   26.6979 O.3     1  UNL1       -0.3495
     21 C          -3.5630    4.6882   26.9523 C.3     1  UNL1        0.1690
     22 C           4.7201   -3.4398   18.7032 C.2     1  UNL1        0.2457
     23 N           4.4384   -4.9070   18.5689 N.am    1  UNL1       -0.3252
     24 O           5.4922   -2.7236   17.6351 O.2     1  UNL1       -0.2703
     25 H           3.9316   -5.3771   19.2700 H       1  UNL1        0.1453
     26 H           4.7603   -5.3999   17.7799 H       1  UNL1        0.1453
     27 O           5.8102   -4.0853   21.4226 O.3     1  UNL1       -0.4790
     28 C           8.2806   -4.8664   21.2306 C.3     1  UNL1        0.0472
     29 C           7.2591   -3.7684   21.1985 C.3     1  UNL1        0.1661
     30 C           7.6865   -2.3536   20.9422 C.3     1  UNL1        0.0472
@<TRIPOS>BOND
     1    28    29    1
     2    29    30    1
     3    29    27    1
     4    27     1    1
     5     1     2   ar
     6     2     3   ar
     7     3     7    1
     8     7     8   ar
     9     8     9   ar
    10     9    10   ar
    11    10    11   ar
    12    11    13    1
    13    13    14   ar
    14    14    15   ar
    15    15    16   ar
    16    16    18    1
    17    18    19    1
    18    19    20    1
    19    20    21    1
    20    16    17   ar
    21    11    12   ar
    22     3     4   ar
    23     4     5   ar
    24     5     6   ar
    25     6    22    1
    26    22    23   am
    27    22    24    2
    28     6     1   ar
    29    12     7   ar
    30    17    13   ar
    31    21    18    1
    32    23    25    1
    33    23    26    1
@<TRIPOS>MOLECULE
*****
 30 33 0 0 0
SMALL
GASTEIGER

@<TRIPOS>ATOM
      1 C           3.2545   -0.0353   18.2361 C.ar    1  UNL1        0.1427
      2 C           2.2568    1.0843   18.2688 C.ar    1  UNL1        0.0371
      3 C           1.1604    1.0821   19.2925 C.ar    1  UNL1        0.0045
      4 C           1.0618   -0.0396   20.2835 C.ar    1  UNL1        0.0004
      5 C           2.0595   -1.1591   20.2507 C.ar    1  UNL1        0.0076
      6 C           3.1558   -1.1570   19.2270 C.ar    1  UNL1        0.0870
      7 C           0.1627    2.2018   19.3253 C.ar    1  UNL1        0.0193
      8 C           0.1824    3.2553   18.2577 C.ar    1  UNL1        0.0988
      9 N          -0.8153    4.3749   18.2904 N.ar    1  UNL1       -0.2423
     10 C          -1.8327    4.4410   19.3907 C.ar    1  UNL1        0.0989
     11 C          -1.8524    3.3875   20.4582 C.ar    1  UNL1        0.0222
     12 C          -0.8547    2.2678   20.4255 C.ar    1  UNL1        0.0032
     13 C          -2.8698    3.4535   21.5584 C.ar    1  UNL1        0.0411
     14 C          -4.3408    3.1969   21.4157 C.ar    1  UNL1        0.1217
     15 N          -4.9749    3.3726   22.7636 N.ar    1  UNL1       -0.1676
     16 N          -3.8958    3.7378   23.7395 N.ar    1  UNL1       -0.2463
     17 C          -2.5948    3.7878   22.9946 C.ar    1  UNL1        0.0968
     18 C          -4.0846    4.0059   25.2032 C.3     1  UNL1        0.1641
     19 C          -5.1339    4.6884   26.0298 C.3     1  UNL1        0.1690
     20 O          -4.3516    4.3851   27.2732 O.3     1  UNL1       -0.3495
     21 C          -3.3024    3.7026   26.4466 C.3     1  UNL1        0.1690
     22 C           4.1536   -2.2766   19.1943 C.2     1  UNL1        0.2457
     23 N           4.5669   -2.8747   17.8823 N.am    1  UNL1       -0.3252
     24 O           4.7379   -2.7981   20.4736 O.2     1  UNL1       -0.2703
     25 H           4.1834   -2.5325   17.0426 H       1  UNL1        0.1453
     26 H           5.2218   -3.6096   17.8608 H       1  UNL1        0.1453
     27 O           4.3509   -0.0332   17.2124 O.3     1  UNL1       -0.4790
     28 C           5.9354    1.2043   18.8579 C.3     1  UNL1        0.0472
     29 C           5.6179    0.7266   17.4719 C.3     1  UNL1        0.1661
     30 C           6.5675    1.0087   16.3455 C.3     1  UNL1        0.0472
@<TRIPOS>BOND
     1    28    29    1
     2    29    30    1
     3    29    27    1
     4    27     1    1
     5     1     2   ar
     6     2     3   ar
     7     3     7    1
     8     7     8   ar
     9     8     9   ar
    10     9    10   ar
    11    10    11   ar
    12    11    13    1
    13    13    14   ar
    14    14    15   ar
    15    15    16   ar
    16    16    18    1
    17    18    19    1
    18    19    20    1
    19    20    21    1
    20    16    17   ar
    21    11    12   ar
    22     3     4   ar
    23     4     5   ar
    24     5     6   ar
    25     6    22    1
    26    22    23   am
    27    22    24    2
    28     6     1   ar
    29    12     7   ar
    30    17    13   ar
    31    21    18    1
    32    23    25    1
    33    23    26    1
@<TRIPOS>MOLECULE
*****
 30 33 0 0 0
SMALL
GASTEIGER

@<TRIPOS>ATOM
      1 C           4.8257   -3.1543   21.3454 C.ar    1  UNL1        0.1427
      2 C           4.5062   -2.5252   22.6691 C.ar    1  UNL1        0.0371
      3 C           3.5328   -1.3863   22.7428 C.ar    1  UNL1        0.0045
      4 C           2.8789   -0.8765   21.4928 C.ar    1  UNL1        0.0004
      5 C           3.1984   -1.5056   20.1691 C.ar    1  UNL1        0.0076
      6 C           4.1718   -2.6445   20.0954 C.ar    1  UNL1        0.0870
      7 C           3.2133   -0.7572   24.0665 C.ar    1  UNL1        0.0193
      8 C           2.1757    0.3226   24.1528 C.ar    1  UNL1        0.0988
      9 N           1.8562    0.9516   25.4764 N.ar    1  UNL1       -0.2423
     10 C           2.5743    0.5009   26.7139 C.ar    1  UNL1        0.0989
     11 C           3.6119   -0.5788   26.6276 C.ar    1  UNL1        0.0222
     12 C           3.9314   -1.2079   25.3039 C.ar    1  UNL1        0.0032
     13 C           4.3300   -1.0295   27.8650 C.ar    1  UNL1        0.0411
     14 C           4.1913   -0.4297   29.2328 C.ar    1  UNL1        0.1217
     15 N           5.0884   -1.1886   30.1651 N.ar    1  UNL1       -0.1676
     16 N           5.7817   -2.2576   29.3733 N.ar    1  UNL1       -0.2463
     17 C           5.3129   -2.1593   27.9519 C.ar    1  UNL1        0.0968
     18 C           6.7701   -3.2506   29.9091 C.3     1  UNL1        0.1641
     19 C           7.0729   -3.8210   31.2629 C.3     1  UNL1        0.1690
     20 O           8.1680   -4.6549   30.6667 O.3     1  UNL1       -0.3495
     21 C           7.8651   -4.0845   29.3128 C.3     1  UNL1        0.1690
     22 C           4.4912   -3.2736   18.7717 C.2     1  UNL1        0.2457
     23 N           4.2708   -4.7431   18.5670 N.am    1  UNL1       -0.3252
     24 O           5.0312   -2.4332   17.6527 O.2     1  UNL1       -0.2703
     25 H           3.9164   -5.2947   19.3014 H       1  UNL1        0.1453
     26 H           4.4804   -5.1560   17.6982 H       1  UNL1        0.1453
     27 O           5.7991   -4.2932   21.2717 O.3     1  UNL1       -0.4790
     28 C           8.1287   -4.6779   22.3556 C.3     1  UNL1        0.0472
     29 C           7.2740   -4.0230   21.3113 C.3     1  UNL1        0.1661
     30 C           7.8942   -3.0978   20.3066 C.3     1  UNL1        0.0472
@<TRIPOS>BOND
     1    28    29    1
     2    29    30    1
     3    29    27    1
     4    27     1    1
     5     1     2   ar
     6     2     3   ar
     7     3     7    1
     8     7     8   ar
     9     8     9   ar
    10     9    10   ar
    11    10    11   ar
    12    11    13    1
    13    13    14   ar
    14    14    15   ar
    15    15    16   ar
    16    16    18    1
    17    18    19    1
    18    19    20    1
    19    20    21    1
    20    16    17   ar
    21    11    12   ar
    22     3     4   ar
    23     4     5   ar
    24     5     6   ar
    25     6    22    1
    26    22    23   am
    27    22    24    2
    28     6     1   ar
    29    12     7   ar
    30    17    13   ar
    31    21    18    1
    32    23    25    1
    33    23    26    1
