@<TRIPOS>MOLECULE
*****
 31 34 0 0 0
SMALL
GASTEIGER

@<TRIPOS>ATOM
      1 C          -8.5070  -19.8583   23.1175 C.3     1  UNL1        0.0285
      2 C          -9.1469  -19.1337   21.9704 C.2     1  UNL1       -0.0155
      3 C         -10.4448  -18.3834   22.0154 C.2     1  UNL1       -0.0059
      4 C         -10.7011  -17.8183   20.6497 C.2     1  UNL1        0.0895
      5 N          -9.5615  -18.2195   19.7607 N.2     1  UNL1       -0.2578
      6 C          -8.6009  -19.0325   20.5769 C.3     1  UNL1        0.1970
      7 C          -7.3194  -19.6379   20.0859 C.2     1  UNL1        0.2490
      8 O          -7.3536  -20.8152   19.1571 O.2     1  UNL1       -0.2726
      9 N          -6.0037  -19.0660   20.5238 N.am    1  UNL1       -0.2990
     10 H          -5.9812  -18.2933   21.1334 H       1  UNL1        0.1498
     11 C          -4.7221  -19.6715   20.0327 C.3     1  UNL1        0.1114
     12 C          -4.5304  -21.1586   20.0757 C.3     1  UNL1        0.0278
     13 C          -3.6323  -18.7898   19.4987 C.ar    1  UNL1        0.0722
     14 C          -2.1579  -19.0276   19.6385 C.ar    1  UNL1        0.1147
     15 N          -1.4401  -17.9003   18.9573 N.ar    1  UNL1       -0.2228
     16 C          -2.4709  -16.9659   18.3966 C.ar    1  UNL1        0.1748
     17 N          -3.8258  -17.5156   18.7312 N.ar    1  UNL1       -0.3369
     18 H          -4.6903  -17.1112   18.4895 H       1  UNL1        0.1672
     19 C         -11.3310  -18.2257   23.2154 C.3     1  UNL1        0.0401
     20 C         -12.5996  -18.8229   22.6826 C.3     1  UNL1        0.0088
     21 C         -12.5509  -18.2944   24.0856 C.3     1  UNL1        0.0088
     22 C         -10.3700  -17.5736   24.1648 C.ar    1  UNL1        0.0001
     23 C          -9.7908  -16.2287   23.8399 C.ar    1  UNL1       -0.0010
     24 C          -8.8299  -15.5767   24.7893 C.ar    1  UNL1        0.0228
     25 C          -8.4482  -16.2696   26.0637 C.ar    1  UNL1        0.1526
     26 N          -9.0274  -17.6145   26.3887 N.ar    1  UNL1       -0.2402
     27 C          -9.9883  -18.2665   25.4393 C.ar    1  UNL1        0.0947
     28 C          -7.4873  -15.6175   27.0132 C.3     1  UNL1        0.4348
     29 F          -6.5263  -14.9655   27.9626 F       1  UNL1       -0.1644
     30 F          -8.6242  -15.2783   27.9310 F       1  UNL1       -0.1644
     31 F          -6.3504  -15.9568   26.0955 F       1  UNL1       -0.1644
@<TRIPOS>BOND
     1     1     2    1
     2     2     3    2
     3     3    19    1
     4    19    22    1
     5    22    23   ar
     6    23    24   ar
     7    24    25   ar
     8    25    28    1
     9    28    29    1
    10    28    30    1
    11    28    31    1
    12    25    26   ar
    13    26    27   ar
    14    19    20    1
    15    20    21    1
    16     3     4    1
    17     4     5    2
    18     5     6    1
    19     6     7    1
    20     7     8    2
    21     7     9   am
    22     9    11    1
    23    11    12    1
    24    11    13    1
    25    13    14   ar
    26    14    15   ar
    27    15    16   ar
    28    16    17   ar
    29     6     2    1
    30    17    13   ar
    31    21    19    1
    32    27    22   ar
    33     9    10    1
    34    17    18    1
@<TRIPOS>MOLECULE
*****
 31 34 0 0 0
SMALL
GASTEIGER

@<TRIPOS>ATOM
      1 C          -8.3318  -17.0709   21.6134 C.3     1  UNL1        0.0285
      2 C          -8.2967  -18.4594   22.1801 C.2     1  UNL1       -0.0155
      3 C          -9.2703  -19.0342   23.1657 C.2     1  UNL1       -0.0059
      4 C          -8.8570  -20.4468   23.4553 C.2     1  UNL1        0.0895
      5 N          -7.6280  -20.7449   22.6486 N.2     1  UNL1       -0.2578
      6 C          -7.2817  -19.5166   21.8604 C.3     1  UNL1        0.1970
      7 C          -6.1237  -19.3710   20.9181 C.2     1  UNL1        0.2490
      8 O          -6.3538  -18.8909   19.5158 O.2     1  UNL1       -0.2726
      9 N          -4.7358  -19.7055   21.3782 N.am    1  UNL1       -0.2990
     10 H          -4.5849  -20.0206   22.2986 H       1  UNL1        0.1498
     11 C          -3.5778  -19.5599   20.4359 C.3     1  UNL1        0.1114
     12 C          -3.3652  -20.5699   19.3474 C.3     1  UNL1        0.0278
     13 C          -2.6326  -18.4044   20.5821 C.ar    1  UNL1        0.0722
     14 C          -1.3206  -18.2435   19.8731 C.ar    1  UNL1        0.1147
     15 N          -0.7106  -16.9466   20.3158 N.ar    1  UNL1       -0.2228
     16 C          -1.6457  -16.3060   21.2984 C.ar    1  UNL1        0.1748
     17 N          -2.8336  -17.2070   21.4630 N.ar    1  UNL1       -0.3369
     18 H          -3.6090  -17.0416   22.0466 H       1  UNL1        0.1672
     19 C         -10.4500  -18.3218   23.7578 C.3     1  UNL1        0.0401
     20 C         -11.5614  -18.9792   22.9946 C.3     1  UNL1        0.0088
     21 C         -11.8734  -17.9235   24.0136 C.3     1  UNL1        0.0088
     22 C          -9.7482  -17.4169   24.7267 C.ar    1  UNL1        0.0001
     23 C          -9.3472  -17.9309   26.0776 C.ar    1  UNL1       -0.0010
     24 C          -8.6455  -17.0260   27.0464 C.ar    1  UNL1        0.0228
     25 C          -8.3447  -15.6070   26.6644 C.ar    1  UNL1        0.1526
     26 N          -8.7457  -15.0929   25.3135 N.ar    1  UNL1       -0.2402
     27 C          -9.4474  -15.9978   24.3447 C.ar    1  UNL1        0.0947
     28 C          -7.6429  -14.7021   27.6333 C.3     1  UNL1        0.4348
     29 F          -6.9412  -13.7972   28.6021 F       1  UNL1       -0.1644
     30 F          -6.3177  -15.2114   27.1492 F       1  UNL1       -0.1644
     31 F          -8.9681  -14.1928   28.1173 F       1  UNL1       -0.1644
@<TRIPOS>BOND
     1     1     2    1
     2     2     3    2
     3     3    19    1
     4    19    22    1
     5    22    23   ar
     6    23    24   ar
     7    24    25   ar
     8    25    28    1
     9    28    29    1
    10    28    30    1
    11    28    31    1
    12    25    26   ar
    13    26    27   ar
    14    19    20    1
    15    20    21    1
    16     3     4    1
    17     4     5    2
    18     5     6    1
    19     6     7    1
    20     7     8    2
    21     7     9   am
    22     9    11    1
    23    11    12    1
    24    11    13    1
    25    13    14   ar
    26    14    15   ar
    27    15    16   ar
    28    16    17   ar
    29     6     2    1
    30    17    13   ar
    31    21    19    1
    32    27    22   ar
    33     9    10    1
    34    17    18    1
@<TRIPOS>MOLECULE
*****
 31 34 0 0 0
SMALL
GASTEIGER

@<TRIPOS>ATOM
      1 C          -8.1727  -19.6611   19.7739 C.3     1  UNL1        0.0285
      2 C          -7.3060  -19.0742   20.8484 C.2     1  UNL1       -0.0155
      3 C          -5.8650  -19.4067   21.0986 C.2     1  UNL1       -0.0059
      4 C          -5.3967  -18.5897   22.2662 C.2     1  UNL1        0.0895
      5 N          -6.5485  -17.7523   22.7376 N.2     1  UNL1       -0.2578
      6 C          -7.7285  -18.0517   21.8614 C.3     1  UNL1        0.1970
      7 C          -9.0917  -17.4366   21.9776 C.2     1  UNL1        0.2490
      8 O          -9.2311  -15.9673   22.2451 O.2     1  UNL1       -0.2726
      9 N         -10.3153  -18.2909   21.8264 N.am    1  UNL1       -0.2990
     10 H         -10.2237  -19.2553   21.6508 H       1  UNL1        0.1498
     11 C         -11.6784  -17.6758   21.9426 C.3     1  UNL1        0.1114
     12 C         -12.1740  -16.7437   20.8769 C.3     1  UNL1        0.0278
     13 C         -12.5460  -17.9928   23.1246 C.ar    1  UNL1        0.0722
     14 C         -12.0844  -18.5831   24.4239 C.ar    1  UNL1        0.1147
     15 N         -13.2805  -18.7303   25.3170 N.ar    1  UNL1       -0.2228
     16 C         -14.4814  -18.2309   24.5695 C.ar    1  UNL1        0.1748
     17 N         -14.0274  -17.7750   23.2145 N.ar    1  UNL1       -0.3369
     18 H         -14.6010  -17.3990   22.5082 H       1  UNL1        0.1672
     19 C          -5.0374  -20.3845   20.3183 C.3     1  UNL1        0.0401
     20 C          -6.0448  -21.4778   20.1190 C.3     1  UNL1        0.0088
     21 C          -4.6593  -21.6241   19.5628 C.3     1  UNL1        0.0088
     22 C          -3.7424  -19.6307   20.2466 C.ar    1  UNL1        0.0001
     23 C          -3.5547  -18.5589   19.2142 C.ar    1  UNL1       -0.0010
     24 C          -2.2598  -17.8052   19.1425 C.ar    1  UNL1        0.0228
     25 C          -1.1527  -18.1232   20.1033 C.ar    1  UNL1        0.1526
     26 N          -1.3405  -19.1950   21.1358 N.ar    1  UNL1       -0.2402
     27 C          -2.6353  -19.9488   21.2074 C.ar    1  UNL1        0.0947
     28 C           0.1422  -17.3694   20.0317 C.3     1  UNL1        0.4348
     29 F           1.4370  -16.6157   19.9600 F       1  UNL1       -0.1644
     30 F          -0.5871  -16.0896   20.3148 F       1  UNL1       -0.1644
     31 F           0.8715  -18.6492   19.7486 F       1  UNL1       -0.1644
@<TRIPOS>BOND
     1     1     2    1
     2     2     3    2
     3     3    19    1
     4    19    22    1
     5    22    23   ar
     6    23    24   ar
     7    24    25   ar
     8    25    28    1
     9    28    29    1
    10    28    30    1
    11    28    31    1
    12    25    26   ar
    13    26    27   ar
    14    19    20    1
    15    20    21    1
    16     3     4    1
    17     4     5    2
    18     5     6    1
    19     6     7    1
    20     7     8    2
    21     7     9   am
    22     9    11    1
    23    11    12    1
    24    11    13    1
    25    13    14   ar
    26    14    15   ar
    27    15    16   ar
    28    16    17   ar
    29     6     2    1
    30    17    13   ar
    31    21    19    1
    32    27    22   ar
    33     9    10    1
    34    17    18    1
@<TRIPOS>MOLECULE
*****
 31 34 0 0 0
SMALL
GASTEIGER

@<TRIPOS>ATOM
      1 C          -7.8068  -19.5825   19.6963 C.3     1  UNL1        0.0285
      2 C          -6.9874  -19.0634   20.8405 C.2     1  UNL1       -0.0155
      3 C          -5.5796  -19.4632   21.1695 C.2     1  UNL1       -0.0059
      4 C          -5.1542  -18.7002   22.3890 C.2     1  UNL1        0.0895
      5 N          -6.2990  -17.8289   22.8135 N.2     1  UNL1       -0.2578
      6 C          -7.4320  -18.0534   21.8565 C.3     1  UNL1        0.1970
      7 C          -8.7740  -17.3851   21.9067 C.2     1  UNL1        0.2490
      8 O          -8.8769  -15.8967   21.7523 O.2     1  UNL1       -0.2726
      9 N         -10.0130  -18.2054   22.1113 N.am    1  UNL1       -0.2990
     10 H          -9.9455  -19.1823   22.2126 H       1  UNL1        0.1498
     11 C         -11.3551  -17.5372   22.1615 C.3     1  UNL1        0.1114
     12 C         -12.2310  -17.7034   23.3678 C.3     1  UNL1        0.0278
     13 C         -11.8211  -16.7027   21.0053 C.ar    1  UNL1        0.0722
     14 C         -13.1773  -16.0790   20.8583 C.ar    1  UNL1        0.1147
     15 N         -13.2070  -15.3364   19.5554 N.ar    1  UNL1       -0.2228
     16 C         -11.8692  -15.5012   18.8972 C.ar    1  UNL1        0.1748
     17 N         -11.0126  -16.3456   19.7933 N.ar    1  UNL1       -0.3369
     18 H         -10.0830  -16.6177   19.6170 H       1  UNL1        0.1672
     19 C          -4.7440  -20.4522   20.4123 C.3     1  UNL1        0.0401
     20 C          -5.7409  -21.5602   20.2433 C.3     1  UNL1        0.0088
     21 C          -4.3553  -21.7067   19.6876 C.3     1  UNL1        0.0088
     22 C          -3.4569  -19.6876   20.3183 C.ar    1  UNL1        0.0001
     23 C          -3.2116  -18.7720   19.1557 C.ar    1  UNL1       -0.0010
     24 C          -1.9245  -18.0075   19.0618 C.ar    1  UNL1        0.0228
     25 C          -0.8827  -18.1585   20.1304 C.ar    1  UNL1        0.1526
     26 N          -1.1280  -19.0741   21.2929 N.ar    1  UNL1       -0.2402
     27 C          -2.4151  -19.8386   21.3868 C.ar    1  UNL1        0.0947
     28 C           0.4044  -17.3939   20.0364 C.3     1  UNL1        0.4348
     29 F           1.6915  -16.6294   19.9424 F       1  UNL1       -0.1644
     30 F          -0.3525  -16.1047   20.1585 F       1  UNL1       -0.1644
     31 F           1.1613  -18.6831   19.9142 F       1  UNL1       -0.1644
@<TRIPOS>BOND
     1     1     2    1
     2     2     3    2
     3     3    19    1
     4    19    22    1
     5    22    23   ar
     6    23    24   ar
     7    24    25   ar
     8    25    28    1
     9    28    29    1
    10    28    30    1
    11    28    31    1
    12    25    26   ar
    13    26    27   ar
    14    19    20    1
    15    20    21    1
    16     3     4    1
    17     4     5    2
    18     5     6    1
    19     6     7    1
    20     7     8    2
    21     7     9   am
    22     9    11    1
    23    11    12    1
    24    11    13    1
    25    13    14   ar
    26    14    15   ar
    27    15    16   ar
    28    16    17   ar
    29     6     2    1
    30    17    13   ar
    31    21    19    1
    32    27    22   ar
    33     9    10    1
    34    17    18    1
@<TRIPOS>MOLECULE
*****
 31 34 0 0 0
SMALL
GASTEIGER

@<TRIPOS>ATOM
      1 C           5.5794    1.4068   32.9799 C.3     1  UNL1        0.0285
      2 C           5.0568    0.0083   33.1260 C.2     1  UNL1       -0.0155
      3 C           4.8265   -0.9678   32.0107 C.2     1  UNL1       -0.0059
      4 C           4.3000   -2.2389   32.6086 C.2     1  UNL1        0.0895
      5 N           4.2050   -2.0481   34.0934 N.2     1  UNL1       -0.2578
      6 C           4.6727   -0.6593   34.4132 C.3     1  UNL1        0.1970
      7 C           4.7439   -0.0458   35.7802 C.2     1  UNL1        0.2490
      8 O           5.7303   -0.5640   36.7843 O.2     1  UNL1       -0.2726
      9 N           3.8286    1.0859   36.1428 N.am    1  UNL1       -0.2990
     10 H           3.1812    1.4259   35.4837 H       1  UNL1        0.1498
     11 C           3.8997    1.6994   37.5098 C.3     1  UNL1        0.1114
     12 C           5.0822    2.5384   37.8947 C.3     1  UNL1        0.0278
     13 C           2.7885    1.4739   38.4919 C.ar    1  UNL1        0.0722
     14 C           2.0268    2.5403   39.2215 C.ar    1  UNL1        0.1147
     15 N           1.0115    1.8678   40.0972 N.ar    1  UNL1       -0.2228
     16 C           1.1458    0.3857   39.9088 C.ar    1  UNL1        0.1748
     17 N           2.2441    0.1422   38.9166 N.ar    1  UNL1       -0.3369
     18 H           2.5533   -0.7371   38.5998 H       1  UNL1        0.1672
     19 C           5.0783   -0.7171   30.5534 C.3     1  UNL1        0.0401
     20 C           6.5580   -0.9570   30.4997 C.3     1  UNL1        0.0088
     21 C           5.8136   -0.5800   29.2532 C.3     1  UNL1        0.0088
     22 C           3.6860   -0.3902   30.1011 C.ar    1  UNL1        0.0001
     23 C           3.2510   -0.7309   28.7066 C.ar    1  UNL1       -0.0010
     24 C           1.8587   -0.4040   28.2543 C.ar    1  UNL1        0.0228
     25 C           0.9014    0.2637   29.1965 C.ar    1  UNL1        0.1526
     26 N           1.3364    0.6045   30.5910 N.ar    1  UNL1       -0.2402
     27 C           2.7287    0.2776   31.0433 C.ar    1  UNL1        0.0947
     28 C          -0.4909    0.5907   28.7441 C.3     1  UNL1        0.4348
     29 F          -1.8832    0.9177   28.2918 F       1  UNL1       -0.1644
     30 F          -0.8753   -0.8524   28.8839 F       1  UNL1       -0.1644
     31 F          -0.1066    2.0338   28.6043 F       1  UNL1       -0.1644
@<TRIPOS>BOND
     1     1     2    1
     2     2     3    2
     3     3    19    1
     4    19    22    1
     5    22    23   ar
     6    23    24   ar
     7    24    25   ar
     8    25    28    1
     9    28    29    1
    10    28    30    1
    11    28    31    1
    12    25    26   ar
    13    26    27   ar
    14    19    20    1
    15    20    21    1
    16     3     4    1
    17     4     5    2
    18     5     6    1
    19     6     7    1
    20     7     8    2
    21     7     9   am
    22     9    11    1
    23    11    12    1
    24    11    13    1
    25    13    14   ar
    26    14    15   ar
    27    15    16   ar
    28    16    17   ar
    29     6     2    1
    30    17    13   ar
    31    21    19    1
    32    27    22   ar
    33     9    10    1
    34    17    18    1
@<TRIPOS>MOLECULE
*****
 31 34 0 0 0
SMALL
GASTEIGER

@<TRIPOS>ATOM
      1 C           3.6000    2.4689   31.5546 C.3     1  UNL1        0.0285
      2 C           3.7342    1.0781   32.1005 C.2     1  UNL1       -0.0155
      3 C           4.4863    0.6853   33.3373 C.2     1  UNL1       -0.0059
      4 C           4.3566   -0.7995   33.5066 C.2     1  UNL1        0.0895
      5 N           3.5243   -1.3242   32.3744 N.2     1  UNL1       -0.2578
      6 C           3.1396   -0.1638   31.5053 C.3     1  UNL1        0.1970
      7 C           2.3066   -0.2330   30.2597 C.2     1  UNL1        0.2490
      8 O           2.7535   -1.0794   29.1048 O.2     1  UNL1       -0.2726
      9 N           1.0269    0.5442   30.1693 N.am    1  UNL1       -0.2990
     10 H           0.7337    1.0997   30.9273 H       1  UNL1        0.1498
     11 C           0.1939    0.4749   28.9237 C.3     1  UNL1        0.1114
     12 C          -1.1276   -0.2347   28.9437 C.3     1  UNL1        0.0278
     13 C           0.6823    1.1153   27.6582 C.ar    1  UNL1        0.0722
     14 C           0.2472    2.4453   27.1183 C.ar    1  UNL1        0.1147
     15 N           0.9877    2.6900   25.8369 N.ar    1  UNL1       -0.2228
     16 C           1.8804    1.5111   25.5850 C.ar    1  UNL1        0.1748
     17 N           1.6917    0.5379   26.7106 N.ar    1  UNL1       -0.3369
     18 H           2.1498   -0.3279   26.8101 H       1  UNL1        0.1672
     19 C           5.2364    1.6140   34.2455 C.3     1  UNL1        0.0401
     20 C           6.4223    1.9228   33.3805 C.3     1  UNL1        0.0088
     21 C           6.3079    2.5379   34.7439 C.3     1  UNL1        0.0088
     22 C           4.3109    1.6276   35.4260 C.ar    1  UNL1        0.0001
     23 C           4.6667    0.8636   36.6668 C.ar    1  UNL1       -0.0010
     24 C           3.7412    0.8773   37.8472 C.ar    1  UNL1        0.0228
     25 C           2.4600    1.6550   37.7867 C.ar    1  UNL1        0.1526
     26 N           2.1043    2.4190   36.5459 N.ar    1  UNL1       -0.2402
     27 C           3.0297    2.4053   35.3656 C.ar    1  UNL1        0.0947
     28 C           1.5346    1.6686   38.9672 C.3     1  UNL1        0.4348
     29 F           0.6091    1.6823   40.1476 F       1  UNL1       -0.1644
     30 F           2.1103    0.3645   39.4337 F       1  UNL1       -0.1644
     31 F           0.9588    2.9728   38.5007 F       1  UNL1       -0.1644
@<TRIPOS>BOND
     1     1     2    1
     2     2     3    2
     3     3    19    1
     4    19    22    1
     5    22    23   ar
     6    23    24   ar
     7    24    25   ar
     8    25    28    1
     9    28    29    1
    10    28    30    1
    11    28    31    1
    12    25    26   ar
    13    26    27   ar
    14    19    20    1
    15    20    21    1
    16     3     4    1
    17     4     5    2
    18     5     6    1
    19     6     7    1
    20     7     8    2
    21     7     9   am
    22     9    11    1
    23    11    12    1
    24    11    13    1
    25    13    14   ar
    26    14    15   ar
    27    15    16   ar
    28    16    17   ar
    29     6     2    1
    30    17    13   ar
    31    21    19    1
    32    27    22   ar
    33     9    10    1
    34    17    18    1
@<TRIPOS>MOLECULE
*****
 31 34 0 0 0
SMALL
GASTEIGER

@<TRIPOS>ATOM
      1 C          -6.4688  -18.7692   22.5294 C.3     1  UNL1        0.0285
      2 C          -6.4498  -17.3523   23.0217 C.2     1  UNL1       -0.0155
      3 C          -5.3079  -16.6778   23.7224 C.2     1  UNL1       -0.0059
      4 C          -5.7218  -15.2699   24.0335 C.2     1  UNL1        0.0895
      5 N          -7.1194  -15.0745   23.5250 N.2     1  UNL1       -0.2578
      6 C          -7.5693  -16.3615   22.8997 C.3     1  UNL1        0.1970
      7 C          -8.9044  -16.6134   22.2640 C.2     1  UNL1        0.2490
      8 O          -9.6402  -17.8899   22.5456 O.2     1  UNL1       -0.2726
      9 N          -9.5036  -15.5889   21.3469 N.am    1  UNL1       -0.2990
     10 H          -9.0207  -14.7512   21.1621 H       1  UNL1        0.1498
     11 C         -10.8388  -15.8409   20.7112 C.3     1  UNL1        0.1114
     12 C         -11.1079  -15.3598   19.3161 C.3     1  UNL1        0.0278
     13 C         -11.9046  -16.5739   21.4705 C.ar    1  UNL1        0.0722
     14 C         -12.5228  -16.1375   22.7657 C.ar    1  UNL1        0.1147
     15 N         -13.5396  -17.1660   23.1636 N.ar    1  UNL1       -0.2228
     16 C         -13.5499  -18.2380   22.1144 C.ar    1  UNL1        0.1748
     17 N         -12.5393  -17.8721   21.0680 N.ar    1  UNL1       -0.3369
     18 H         -12.3295  -18.3925   20.2591 H       1  UNL1        0.1672
     19 C          -3.9846  -17.3014   24.0538 C.3     1  UNL1        0.0401
     20 C          -4.1194  -17.4227   25.5428 C.3     1  UNL1        0.0088
     21 C          -2.8676  -17.8919   24.8623 C.3     1  UNL1        0.0088
     22 C          -3.3902  -17.3966   22.6798 C.ar    1  UNL1        0.0001
     23 C          -3.2933  -18.7276   21.9951 C.ar    1  UNL1       -0.0010
     24 C          -2.6990  -18.8227   20.6212 C.ar    1  UNL1        0.0228
     25 C          -2.2015  -17.5868   19.9320 C.ar    1  UNL1        0.1526
     26 N          -2.2983  -16.2558   20.6167 N.ar    1  UNL1       -0.2402
     27 C          -2.8927  -16.1606   21.9906 C.ar    1  UNL1        0.0947
     28 C          -1.6071  -17.6820   18.5581 C.3     1  UNL1        0.4348
     29 F          -1.0128  -17.7772   17.1842 F       1  UNL1       -0.1644
     30 F          -0.3943  -18.3548   19.1293 F       1  UNL1       -0.1644
     31 F          -2.8199  -17.0091   17.9868 F       1  UNL1       -0.1644
@<TRIPOS>BOND
     1     1     2    1
     2     2     3    2
     3     3    19    1
     4    19    22    1
     5    22    23   ar
     6    23    24   ar
     7    24    25   ar
     8    25    28    1
     9    28    29    1
    10    28    30    1
    11    28    31    1
    12    25    26   ar
    13    26    27   ar
    14    19    20    1
    15    20    21    1
    16     3     4    1
    17     4     5    2
    18     5     6    1
    19     6     7    1
    20     7     8    2
    21     7     9   am
    22     9    11    1
    23    11    12    1
    24    11    13    1
    25    13    14   ar
    26    14    15   ar
    27    15    16   ar
    28    16    17   ar
    29     6     2    1
    30    17    13   ar
    31    21    19    1
    32    27    22   ar
    33     9    10    1
    34    17    18    1
@<TRIPOS>MOLECULE
*****
 31 34 0 0 0
SMALL
GASTEIGER

@<TRIPOS>ATOM
      1 C           4.0967   -2.5126   22.6921 C.3     1  UNL1        0.0285
      2 C           5.3870   -3.1066   22.2100 C.2     1  UNL1       -0.0155
      3 C           5.6477   -3.6531   20.8378 C.2     1  UNL1       -0.0059
      4 C           7.0650   -4.1427   20.7954 C.2     1  UNL1        0.0895
      5 N           7.6801   -3.8987   22.1415 N.2     1  UNL1       -0.2578
      6 C           6.6431   -3.2584   23.0159 C.3     1  UNL1        0.1970
      7 C           6.8294   -2.8428   24.4451 C.2     1  UNL1        0.2490
      8 O           7.6498   -1.6306   24.7728 O.2     1  UNL1       -0.2726
      9 N           6.1952   -3.6395   25.5465 N.am    1  UNL1       -0.2990
     10 H           5.6567   -4.4351   25.3313 H       1  UNL1        0.1498
     11 C           6.3815   -3.2239   26.9757 C.3     1  UNL1        0.1114
     12 C           7.5544   -3.7352   27.7586 C.3     1  UNL1        0.0278
     13 C           5.3949   -2.2970   27.6219 C.ar    1  UNL1        0.0722
     14 C           5.5847   -1.5754   28.9232 C.ar    1  UNL1        0.1147
     15 N           4.3524   -0.7615   29.1858 N.ar    1  UNL1       -0.2228
     16 C           3.4010   -0.9801   28.0468 C.ar    1  UNL1        0.1748
     17 N           4.0453   -1.9292   27.0803 N.ar    1  UNL1       -0.3369
     18 H           3.6516   -2.2536   26.2383 H       1  UNL1        0.1672
     19 C           4.6640   -3.7016   19.7064 C.3     1  UNL1        0.0401
     20 C           3.9668   -4.9915   20.0225 C.3     1  UNL1        0.0088
     21 C           3.5568   -4.1921   18.8212 C.3     1  UNL1        0.0088
     22 C           5.0197   -2.4284   18.9974 C.ar    1  UNL1        0.0001
     23 C           4.2207   -1.1834   19.2453 C.ar    1  UNL1       -0.0010
     24 C           4.5764    0.0896   18.5363 C.ar    1  UNL1        0.0228
     25 C           5.7312    0.1177   17.5793 C.ar    1  UNL1        0.1526
     26 N           6.5303   -1.1273   17.3314 N.ar    1  UNL1       -0.2402
     27 C           6.1745   -2.4003   18.0405 C.ar    1  UNL1        0.0947
     28 C           6.0869    1.3908   16.8703 C.3     1  UNL1        0.4348
     29 F           6.4426    2.6639   16.1613 F       1  UNL1       -0.1644
     30 F           4.9813    2.1020   17.5926 F       1  UNL1       -0.1644
     31 F           7.1926    0.6796   16.1481 F       1  UNL1       -0.1644
@<TRIPOS>BOND
     1     1     2    1
     2     2     3    2
     3     3    19    1
     4    19    22    1
     5    22    23   ar
     6    23    24   ar
     7    24    25   ar
     8    25    28    1
     9    28    29    1
    10    28    30    1
    11    28    31    1
    12    25    26   ar
    13    26    27   ar
    14    19    20    1
    15    20    21    1
    16     3     4    1
    17     4     5    2
    18     5     6    1
    19     6     7    1
    20     7     8    2
    21     7     9   am
    22     9    11    1
    23    11    12    1
    24    11    13    1
    25    13    14   ar
    26    14    15   ar
    27    15    16   ar
    28    16    17   ar
    29     6     2    1
    30    17    13   ar
    31    21    19    1
    32    27    22   ar
    33     9    10    1
    34    17    18    1
@<TRIPOS>MOLECULE
*****
 31 34 0 0 0
SMALL
GASTEIGER

@<TRIPOS>ATOM
      1 C           6.2163   -0.9581   20.9492 C.3     1  UNL1        0.0285
      2 C           5.3249   -2.1450   20.7324 C.2     1  UNL1       -0.0155
      3 C           4.2506   -2.2625   19.6924 C.2     1  UNL1       -0.0059
      4 C           3.6131   -3.6128   19.8350 C.2     1  UNL1        0.0895
      5 N           4.2936   -4.3298   20.9632 N.2     1  UNL1       -0.2578
      6 C           5.3516   -3.4227   21.5178 C.3     1  UNL1        0.1970
      7 C           6.2743   -3.7379   22.6578 C.2     1  UNL1        0.2490
      8 O           7.7116   -4.0720   22.3889 O.2     1  UNL1       -0.2726
      9 N           5.7595   -3.7188   24.0665 N.am    1  UNL1       -0.2990
     10 H           4.8161   -3.4995   24.2430 H       1  UNL1        0.1498
     11 C           6.6821   -4.0340   25.2065 C.3     1  UNL1        0.1114
     12 C           7.2067   -2.9286   26.0743 C.3     1  UNL1        0.0278
     13 C           7.0801   -5.4544   25.4786 C.ar    1  UNL1        0.0722
     14 C           6.7423   -6.2446   26.7080 C.ar    1  UNL1        0.1147
     15 N           7.3392   -7.6126   26.5581 N.ar    1  UNL1       -0.2228
     16 C           8.0458   -7.6678   25.2361 C.ar    1  UNL1        0.1748
     17 N           7.8857   -6.3340   24.5689 N.ar    1  UNL1       -0.3369
     18 H           8.2461   -6.0803   23.6885 H       1  UNL1        0.1672
     19 C           3.8788   -1.2138   18.6864 C.3     1  UNL1        0.0401
     20 C           4.7046   -1.6679   17.5194 C.3     1  UNL1        0.0088
     21 C           3.8386   -0.4493   17.3964 C.3     1  UNL1        0.0088
     22 C           2.9238   -0.3956   19.5040 C.ar    1  UNL1        0.0001
     23 C           1.5569   -0.9283   19.8166 C.ar    1  UNL1       -0.0010
     24 C           0.6020   -0.1101   20.6342 C.ar    1  UNL1        0.0228
     25 C           1.0140    1.2410   21.1392 C.ar    1  UNL1        0.1526
     26 N           2.3808    1.7737   20.8266 N.ar    1  UNL1       -0.2402
     27 C           3.3357    0.9555   20.0090 C.ar    1  UNL1        0.0947
     28 C           0.0590    2.0593   21.9569 C.3     1  UNL1        0.4348
     29 F          -0.8960    2.8775   22.7745 F       1  UNL1       -0.1644
     30 F          -0.2014    2.9403   20.7712 F       1  UNL1       -0.1644
     31 F           0.3193    1.1782   23.1426 F       1  UNL1       -0.1644
@<TRIPOS>BOND
     1     1     2    1
     2     2     3    2
     3     3    19    1
     4    19    22    1
     5    22    23   ar
     6    23    24   ar
     7    24    25   ar
     8    25    28    1
     9    28    29    1
    10    28    30    1
    11    28    31    1
    12    25    26   ar
    13    26    27   ar
    14    19    20    1
    15    20    21    1
    16     3     4    1
    17     4     5    2
    18     5     6    1
    19     6     7    1
    20     7     8    2
    21     7     9   am
    22     9    11    1
    23    11    12    1
    24    11    13    1
    25    13    14   ar
    26    14    15   ar
    27    15    16   ar
    28    16    17   ar
    29     6     2    1
    30    17    13   ar
    31    21    19    1
    32    27    22   ar
    33     9    10    1
    34    17    18    1
