@<TRIPOS>MOLECULE
*****
 28 30 0 0 0
SMALL
GASTEIGER

@<TRIPOS>ATOM
      1 C          -9.7065  -17.3743   23.3476 C.3     1  UNL1        0.1719
      2 C         -10.1543  -17.8356   21.9923 C.ar    1  UNL1        0.0097
      3 C         -10.9967  -16.9382   21.1351 C.ar    1  UNL1       -0.0016
      4 C         -11.4445  -17.3996   19.7799 C.ar    1  UNL1       -0.0002
      5 C         -11.0498  -18.7584   19.2820 C.ar    1  UNL1       -0.0000
      6 C         -10.2074  -19.6558   20.1392 C.ar    1  UNL1       -0.0002
      7 C          -9.7597  -19.1944   21.4944 C.ar    1  UNL1       -0.0016
      8 C          -9.2587  -16.9129   24.7028 C.ar    1  UNL1        0.0097
      9 C          -9.1953  -17.8855   25.8431 C.ar    1  UNL1       -0.0016
     10 C          -8.7475  -17.4242   27.1983 C.ar    1  UNL1       -0.0002
     11 C          -8.3632  -15.9903   27.4133 C.ar    1  UNL1       -0.0000
     12 C          -8.4267  -15.0177   26.2732 C.ar    1  UNL1       -0.0002
     13 C          -8.8744  -15.4790   24.9179 C.ar    1  UNL1       -0.0016
     14 C         -11.8185  -18.6648   24.1377 C.3     1  UNL1        0.1750
     15 O         -11.1311  -17.3706   23.8171 O.3     1  UNL1       -0.3438
     16 C          -8.2819  -17.3779   22.8782 C.3     1  UNL1        0.2372
     17 C          -7.7288  -16.1883   22.1509 C.2     1  UNL1        0.0931
     18 O          -6.7470  -15.2821   22.8328 O.co2   1  UNL1       -0.5454
     19 O          -7.8359  -15.8865   21.4208 O.co2   1  UNL1       -0.5454
     20 O          -7.4103  -18.5712   23.1360 O.3     1  UNL1       -0.4415
     21 C          -6.0764  -18.6859   22.4594 C.ar    1  UNL1        0.3196
     22 N          -5.8605  -19.7239   21.3983 N.ar    1  UNL1       -0.1986
     23 C          -4.5267  -19.8387   20.7217 C.ar    1  UNL1        0.0652
     24 C          -4.3108  -20.8767   19.6607 C.3     1  UNL1        0.0523
     25 C          -3.4088  -18.9153   21.1061 C.ar    1  UNL1        0.0297
     26 C          -3.6247  -17.8772   22.1672 C.ar    1  UNL1        0.0652
     27 C          -2.5069  -16.9539   22.5516 C.3     1  UNL1        0.0523
     28 N          -4.9586  -17.7625   22.8438 N.ar    1  UNL1       -0.1986
@<TRIPOS>UNITY_ATOM_ATTR
18 1
charge -1
@<TRIPOS>BOND
     1    14    15    1
     2    15     1    1
     3     1     2    1
     4     2     3   ar
     5     3     4   ar
     6     4     5   ar
     7     5     6   ar
     8     6     7   ar
     9     1     8    1
    10     8     9   ar
    11     9    10   ar
    12    10    11   ar
    13    11    12   ar
    14    12    13   ar
    15     1    16    1
    16    16    20    1
    17    20    21    1
    18    21    22   ar
    19    22    23   ar
    20    23    24    1
    21    23    25   ar
    22    25    26   ar
    23    26    27    1
    24    26    28   ar
    25    16    17    1
    26    17    18   ar
    27    17    19   ar
    28     7     2   ar
    29    13     8   ar
    30    28    21   ar
@<TRIPOS>MOLECULE
*****
 28 30 0 0 0
SMALL
GASTEIGER

@<TRIPOS>ATOM
      1 C          -9.7014  -17.3815   23.3509 C.3     1  UNL1        0.1719
      2 C         -10.1438  -17.8546   21.9979 C.ar    1  UNL1        0.0097
      3 C          -9.7372  -19.2129   21.5084 C.ar    1  UNL1       -0.0016
      4 C         -10.1796  -19.6859   20.1555 C.ar    1  UNL1       -0.0002
      5 C         -11.0284  -18.8006   19.2920 C.ar    1  UNL1       -0.0000
      6 C         -11.4349  -17.4422   19.7814 C.ar    1  UNL1       -0.0002
      7 C         -10.9926  -16.9692   21.1344 C.ar    1  UNL1       -0.0016
      8 C          -9.2592  -16.9085   24.7039 C.ar    1  UNL1        0.0097
      9 C          -8.8799  -15.4718   24.9092 C.ar    1  UNL1       -0.0016
     10 C          -8.4377  -14.9987   26.2621 C.ar    1  UNL1       -0.0002
     11 C          -8.3747  -15.9623   27.4099 C.ar    1  UNL1       -0.0000
     12 C          -8.7540  -17.3990   27.2048 C.ar    1  UNL1       -0.0002
     13 C          -9.1962  -17.8721   25.8517 C.ar    1  UNL1       -0.0016
     14 C         -11.8025  -18.6770   24.1617 C.3     1  UNL1        0.1750
     15 O         -11.1271  -17.3826   23.8173 O.3     1  UNL1       -0.3438
     16 C          -8.2758  -17.3804   22.8846 C.3     1  UNL1        0.2372
     17 C          -7.7279  -16.1927   22.1502 C.2     1  UNL1        0.0931
     18 O          -6.7531  -15.2761   22.8280 O.co2   1  UNL1       -0.5454
     19 O          -7.8349  -15.8968   21.4177 O.co2   1  UNL1       -0.5454
     20 O          -7.3981  -18.5669   23.1526 O.3     1  UNL1       -0.4415
     21 C          -6.0666  -18.6839   22.4716 C.ar    1  UNL1        0.3196
     22 N          -4.9461  -17.7622   22.8522 N.ar    1  UNL1       -0.1986
     23 C          -3.6147  -17.8791   22.1713 C.ar    1  UNL1        0.0652
     24 C          -2.4941  -16.9574   22.5519 C.3     1  UNL1        0.0523
     25 C          -3.4038  -18.9178   21.1098 C.ar    1  UNL1        0.0297
     26 C          -4.5243  -19.8395   20.7293 C.ar    1  UNL1        0.0652
     27 C          -4.3135  -20.8782   19.6678 C.3     1  UNL1        0.0523
     28 N          -5.8558  -19.7225   21.4102 N.ar    1  UNL1       -0.1986
@<TRIPOS>UNITY_ATOM_ATTR
18 1
charge -1
@<TRIPOS>BOND
     1    14    15    1
     2    15     1    1
     3     1     2    1
     4     2     3   ar
     5     3     4   ar
     6     4     5   ar
     7     5     6   ar
     8     6     7   ar
     9     1     8    1
    10     8     9   ar
    11     9    10   ar
    12    10    11   ar
    13    11    12   ar
    14    12    13   ar
    15     1    16    1
    16    16    20    1
    17    20    21    1
    18    21    22   ar
    19    22    23   ar
    20    23    24    1
    21    23    25   ar
    22    25    26   ar
    23    26    27    1
    24    26    28   ar
    25    16    17    1
    26    17    18   ar
    27    17    19   ar
    28     7     2   ar
    29    13     8   ar
    30    28    21   ar
@<TRIPOS>MOLECULE
*****
 28 30 0 0 0
SMALL
GASTEIGER

@<TRIPOS>ATOM
      1 C          -9.7022  -17.3784   23.3519 C.3     1  UNL1        0.1719
      2 C          -9.2590  -16.9048   24.7045 C.ar    1  UNL1        0.0097
      3 C          -9.1980  -17.8673   25.8533 C.ar    1  UNL1       -0.0016
      4 C          -8.7549  -17.3937   27.2058 C.ar    1  UNL1       -0.0002
      5 C          -8.3728  -15.9576   27.4095 C.ar    1  UNL1       -0.0000
      6 C          -8.4338  -14.9950   26.2606 C.ar    1  UNL1       -0.0002
      7 C          -8.8769  -15.4687   24.9082 C.ar    1  UNL1       -0.0016
      8 C         -10.1453  -17.8520   21.9994 C.ar    1  UNL1        0.0097
      9 C          -9.7397  -19.2109   21.5105 C.ar    1  UNL1       -0.0016
     10 C         -10.1829  -19.6845   20.1580 C.ar    1  UNL1       -0.0002
     11 C         -11.0316  -18.7992   19.2943 C.ar    1  UNL1       -0.0000
     12 C         -11.4372  -17.4404   19.7832 C.ar    1  UNL1       -0.0002
     13 C         -10.9941  -16.9667   21.1357 C.ar    1  UNL1       -0.0016
     14 C         -11.8041  -18.6751   24.1584 C.3     1  UNL1        0.1750
     15 O         -11.1274  -17.3800   23.8194 O.3     1  UNL1       -0.3438
     16 C          -8.2769  -17.3768   22.8843 C.3     1  UNL1        0.2372
     17 C          -7.7311  -16.1905   22.1461 C.2     1  UNL1        0.0931
     18 O          -6.7567  -15.2709   22.8204 O.co2   1  UNL1       -0.5454
     19 O          -7.8392  -15.8967   21.4130 O.co2   1  UNL1       -0.5454
     20 O          -7.3975  -18.5614   23.1550 O.3     1  UNL1       -0.4415
     21 C          -6.0658  -18.6780   22.4742 C.ar    1  UNL1        0.3196
     22 N          -5.8531  -19.7196   21.4161 N.ar    1  UNL1       -0.1986
     23 C          -4.5216  -19.8363   20.7354 C.ar    1  UNL1        0.0652
     24 C          -4.3089  -20.8779   19.6772 C.3     1  UNL1        0.0523
     25 C          -3.4027  -18.9112   21.1128 C.ar    1  UNL1        0.0297
     26 C          -3.6154  -17.8696   22.1710 C.ar    1  UNL1        0.0652
     27 C          -2.4966  -16.9445   22.5485 C.3     1  UNL1        0.0523
     28 N          -4.9470  -17.7530   22.8517 N.ar    1  UNL1       -0.1986
@<TRIPOS>UNITY_ATOM_ATTR
18 1
charge -1
@<TRIPOS>BOND
     1    14    15    1
     2    15     1    1
     3     1     2    1
     4     2     3   ar
     5     3     4   ar
     6     4     5   ar
     7     5     6   ar
     8     6     7   ar
     9     1     8    1
    10     8     9   ar
    11     9    10   ar
    12    10    11   ar
    13    11    12   ar
    14    12    13   ar
    15     1    16    1
    16    16    20    1
    17    20    21    1
    18    21    22   ar
    19    22    23   ar
    20    23    24    1
    21    23    25   ar
    22    25    26   ar
    23    26    27    1
    24    26    28   ar
    25    16    17    1
    26    17    18   ar
    27    17    19   ar
    28     7     2   ar
    29    13     8   ar
    30    28    21   ar
@<TRIPOS>MOLECULE
*****
 28 30 0 0 0
SMALL
GASTEIGER

@<TRIPOS>ATOM
      1 C          -9.7040  -17.3755   23.3514 C.3     1  UNL1        0.1719
      2 C          -9.2597  -16.9045   24.7046 C.ar    1  UNL1        0.0097
      3 C          -8.8776  -15.4688   24.9109 C.ar    1  UNL1       -0.0016
      4 C          -8.4334  -14.9980   26.2640 C.ar    1  UNL1       -0.0002
      5 C          -8.3713  -15.9629   27.4108 C.ar    1  UNL1       -0.0000
      6 C          -8.7535  -17.3986   27.2045 C.ar    1  UNL1       -0.0002
      7 C          -9.1977  -17.8694   25.8514 C.ar    1  UNL1       -0.0016
      8 C         -10.1482  -17.8463   21.9983 C.ar    1  UNL1        0.0097
      9 C         -10.9950  -16.9581   21.1358 C.ar    1  UNL1       -0.0016
     10 C         -11.4393  -17.4289   19.7827 C.ar    1  UNL1       -0.0002
     11 C         -11.0368  -18.7881   19.2921 C.ar    1  UNL1       -0.0000
     12 C         -10.1900  -19.6764   20.1546 C.ar    1  UNL1       -0.0002
     13 C          -9.7457  -19.2055   21.5077 C.ar    1  UNL1       -0.0016
     14 C         -11.8110  -18.6681   24.1513 C.3     1  UNL1        0.1750
     15 O         -11.1292  -17.3739   23.8188 O.3     1  UNL1       -0.3438
     16 C          -8.2787  -17.3770   22.8840 C.3     1  UNL1        0.2372
     17 C          -7.7284  -16.1895   22.1510 C.2     1  UNL1        0.0931
     18 O          -6.7500  -15.2769   22.8291 O.co2   1  UNL1       -0.5454
     19 O          -7.8357  -15.8919   21.4193 O.co2   1  UNL1       -0.5454
     20 O          -7.4036  -18.5660   23.1495 O.3     1  UNL1       -0.4415
     21 C          -6.0701  -18.6820   22.4723 C.ar    1  UNL1        0.3196
     22 N          -4.9518  -17.7584   22.8550 N.ar    1  UNL1       -0.1986
     23 C          -3.6184  -17.8743   22.1779 C.ar    1  UNL1        0.0652
     24 C          -2.5001  -16.9508   22.5606 C.3     1  UNL1        0.0523
     25 C          -3.4032  -18.9139   21.1181 C.ar    1  UNL1        0.0297
     26 C          -4.5215  -19.8374   20.7354 C.ar    1  UNL1        0.0652
     27 C          -4.3064  -20.8769   19.6757 C.3     1  UNL1        0.0523
     28 N          -5.8550  -19.7215   21.4126 N.ar    1  UNL1       -0.1986
@<TRIPOS>UNITY_ATOM_ATTR
18 1
charge -1
@<TRIPOS>BOND
     1    14    15    1
     2    15     1    1
     3     1     2    1
     4     2     3   ar
     5     3     4   ar
     6     4     5   ar
     7     5     6   ar
     8     6     7   ar
     9     1     8    1
    10     8     9   ar
    11     9    10   ar
    12    10    11   ar
    13    11    12   ar
    14    12    13   ar
    15     1    16    1
    16    16    20    1
    17    20    21    1
    18    21    22   ar
    19    22    23   ar
    20    23    24    1
    21    23    25   ar
    22    25    26   ar
    23    26    27    1
    24    26    28   ar
    25    16    17    1
    26    17    18   ar
    27    17    19   ar
    28     7     2   ar
    29    13     8   ar
    30    28    21   ar
@<TRIPOS>MOLECULE
*****
 28 30 0 0 0
SMALL
GASTEIGER

@<TRIPOS>ATOM
      1 C         -10.1530  -18.6197   22.6175 C.3     1  UNL1        0.1719
      2 C          -8.8125  -18.7816   21.9640 C.ar    1  UNL1        0.0097
      3 C          -8.7229  -19.2539   20.5432 C.ar    1  UNL1       -0.0016
      4 C          -7.3824  -19.4158   19.8899 C.ar    1  UNL1       -0.0002
      5 C          -6.1316  -19.1053   20.6573 C.ar    1  UNL1       -0.0000
      6 C          -6.2212  -18.6329   22.0782 C.ar    1  UNL1       -0.0002
      7 C          -7.5617  -18.4711   22.7315 C.ar    1  UNL1       -0.0016
      8 C         -11.4934  -18.4579   23.2709 C.ar    1  UNL1        0.0097
      9 C         -11.6760  -18.8344   24.7114 C.ar    1  UNL1       -0.0016
     10 C         -13.0164  -18.6726   25.3648 C.ar    1  UNL1       -0.0002
     11 C         -14.1744  -18.1343   24.5778 C.ar    1  UNL1       -0.0000
     12 C         -13.9919  -17.7578   23.1373 C.ar    1  UNL1       -0.0002
     13 C         -12.6514  -17.9196   22.4839 C.ar    1  UNL1       -0.0016
     14 C          -9.5968  -20.8366   23.8528 C.3     1  UNL1        0.1750
     15 O         -10.2777  -20.1102   22.7308 O.3     1  UNL1       -0.3438
     16 C         -10.0283  -17.1292   22.5041 C.3     1  UNL1        0.2372
     17 C          -9.9649  -16.4825   21.1521 C.2     1  UNL1        0.0931
     18 O         -10.7756  -17.0353   20.0176 O.co2   1  UNL1       -0.5454
     19 O          -9.5697  -15.8571   20.8554 O.co2   1  UNL1       -0.5454
     20 O          -9.9670  -16.2854   23.7428 O.3     1  UNL1       -0.4415
     21 C          -8.6415  -15.9673   24.3687 C.ar    1  UNL1        0.3196
     22 N          -7.4561  -15.6632   23.5013 N.ar    1  UNL1       -0.1986
     23 C          -6.1306  -15.3451   24.1272 C.ar    1  UNL1        0.0652
     24 C          -4.9453  -15.0411   23.2597 C.3     1  UNL1        0.0523
     25 C          -5.9904  -15.3311   25.6206 C.ar    1  UNL1        0.0297
     26 C          -7.1758  -15.6352   26.4880 C.ar    1  UNL1        0.0652
     27 C          -7.0356  -15.6212   27.9814 C.3     1  UNL1        0.0523
     28 N          -8.5013  -15.9533   25.8621 N.ar    1  UNL1       -0.1986
@<TRIPOS>UNITY_ATOM_ATTR
18 1
charge -1
@<TRIPOS>BOND
     1    14    15    1
     2    15     1    1
     3     1     2    1
     4     2     3   ar
     5     3     4   ar
     6     4     5   ar
     7     5     6   ar
     8     6     7   ar
     9     1     8    1
    10     8     9   ar
    11     9    10   ar
    12    10    11   ar
    13    11    12   ar
    14    12    13   ar
    15     1    16    1
    16    16    20    1
    17    20    21    1
    18    21    22   ar
    19    22    23   ar
    20    23    24    1
    21    23    25   ar
    22    25    26   ar
    23    26    27    1
    24    26    28   ar
    25    16    17    1
    26    17    18   ar
    27    17    19   ar
    28     7     2   ar
    29    13     8   ar
    30    28    21   ar
@<TRIPOS>MOLECULE
*****
 28 30 0 0 0
SMALL
GASTEIGER

@<TRIPOS>ATOM
      1 C         -10.1494  -18.6198   22.6154 C.3     1  UNL1        0.1719
      2 C          -8.8073  -18.7801   21.9649 C.ar    1  UNL1        0.0097
      3 C          -7.5587  -18.4651   22.7340 C.ar    1  UNL1       -0.0016
      4 C          -6.2166  -18.6254   22.0834 C.ar    1  UNL1       -0.0002
      5 C          -6.1233  -19.1006   20.6638 C.ar    1  UNL1       -0.0000
      6 C          -7.3720  -19.4156   19.8947 C.ar    1  UNL1       -0.0002
      7 C          -8.7140  -19.2554   20.5452 C.ar    1  UNL1       -0.0016
      8 C         -11.4915  -18.4596   23.2659 C.ar    1  UNL1        0.0097
      9 C         -12.6500  -17.9290   22.4745 C.ar    1  UNL1       -0.0016
     10 C         -13.9921  -17.7688   23.1250 C.ar    1  UNL1       -0.0002
     11 C         -14.1756  -18.1391   24.5670 C.ar    1  UNL1       -0.0000
     12 C         -13.0172  -18.6697   25.3584 C.ar    1  UNL1       -0.0002
     13 C         -11.6750  -18.8299   24.7079 C.ar    1  UNL1       -0.0016
     14 C          -9.5986  -20.8344   23.8574 C.3     1  UNL1        0.1750
     15 O         -10.2721  -20.1104   22.7294 O.3     1  UNL1       -0.3438
     16 C         -10.0267  -17.1292   22.5014 C.3     1  UNL1        0.2372
     17 C          -9.9653  -16.4829   21.1492 C.2     1  UNL1        0.0931
     18 O         -10.7607  -17.0491   20.0105 O.co2   1  UNL1       -0.5454
     19 O          -9.5779  -15.8517   20.8541 O.co2   1  UNL1       -0.5454
     20 O          -9.9655  -16.2848   23.7397 O.3     1  UNL1       -0.4415
     21 C          -8.6400  -15.9673   24.3662 C.ar    1  UNL1        0.3196
     22 N          -8.4993  -15.9578   25.8595 N.ar    1  UNL1       -0.1986
     23 C          -7.1739  -15.6403   26.4860 C.ar    1  UNL1        0.0652
     24 C          -7.0332  -15.6309   27.9793 C.3     1  UNL1        0.0523
     25 C          -5.9892  -15.3322   25.6190 C.ar    1  UNL1        0.0297
     26 C          -6.1299  -15.3417   24.1257 C.ar    1  UNL1        0.0652
     27 C          -4.9452  -15.0336   23.2588 C.3     1  UNL1        0.0523
     28 N          -7.4553  -15.6592   23.4992 N.ar    1  UNL1       -0.1986
@<TRIPOS>UNITY_ATOM_ATTR
18 1
charge -1
@<TRIPOS>BOND
     1    14    15    1
     2    15     1    1
     3     1     2    1
     4     2     3   ar
     5     3     4   ar
     6     4     5   ar
     7     5     6   ar
     8     6     7   ar
     9     1     8    1
    10     8     9   ar
    11     9    10   ar
    12    10    11   ar
    13    11    12   ar
    14    12    13   ar
    15     1    16    1
    16    16    20    1
    17    20    21    1
    18    21    22   ar
    19    22    23   ar
    20    23    24    1
    21    23    25   ar
    22    25    26   ar
    23    26    27    1
    24    26    28   ar
    25    16    17    1
    26    17    18   ar
    27    17    19   ar
    28     7     2   ar
    29    13     8   ar
    30    28    21   ar
@<TRIPOS>MOLECULE
*****
 28 30 0 0 0
SMALL
GASTEIGER

@<TRIPOS>ATOM
      1 C          -9.7228  -18.5948   21.9473 C.3     1  UNL1        0.1719
      2 C          -8.4146  -19.2196   21.5618 C.ar    1  UNL1        0.0097
      3 C          -7.7844  -18.8864   20.2421 C.ar    1  UNL1       -0.0016
      4 C          -6.4763  -19.5111   19.8567 C.ar    1  UNL1       -0.0002
      5 C          -5.7984  -20.4689   20.7911 C.ar    1  UNL1       -0.0000
      6 C          -6.4286  -20.8020   22.1108 C.ar    1  UNL1       -0.0002
      7 C          -7.7368  -20.1774   22.4962 C.ar    1  UNL1       -0.0016
      8 C         -11.0310  -17.9702   22.3327 C.ar    1  UNL1        0.0097
      9 C         -11.2801  -16.5179   22.0521 C.ar    1  UNL1       -0.0016
     10 C         -12.5883  -15.8932   22.4375 C.ar    1  UNL1       -0.0002
     11 C         -13.6473  -16.7209   23.1035 C.ar    1  UNL1       -0.0000
     12 C         -13.3981  -18.1731   23.3841 C.ar    1  UNL1       -0.0002
     13 C         -12.0900  -18.7979   22.9987 C.ar    1  UNL1       -0.0016
     14 C         -10.8697  -18.8381   19.6288 C.3     1  UNL1        0.1750
     15 O         -10.4271  -19.4414   20.9288 O.3     1  UNL1       -0.3438
     16 C          -9.0185  -17.7483   22.9657 C.3     1  UNL1        0.2372
     17 C          -9.3299  -17.9144   24.4237 C.2     1  UNL1        0.0931
     18 O          -9.4448  -19.2884   25.0143 O.co2   1  UNL1       -0.5454
     19 O          -9.4628  -17.4058   25.0230 O.co2   1  UNL1       -0.5454
     20 O          -8.0029  -16.7357   22.5263 O.3     1  UNL1       -0.4415
     21 C          -6.6977  -16.6172   23.2559 C.ar    1  UNL1        0.3196
     22 N          -5.4901  -17.3542   22.7572 N.ar    1  UNL1       -0.1986
     23 C          -4.1849  -17.2358   23.4868 C.ar    1  UNL1        0.0652
     24 C          -2.9773  -17.9727   22.9881 C.3     1  UNL1        0.0523
     25 C          -4.0871  -16.3803   24.7151 C.ar    1  UNL1        0.0297
     26 C          -5.2947  -15.6433   25.2138 C.ar    1  UNL1        0.0652
     27 C          -5.1970  -14.7879   26.4421 C.3     1  UNL1        0.0523
     28 N          -6.6000  -15.7618   24.4842 N.ar    1  UNL1       -0.1986
@<TRIPOS>UNITY_ATOM_ATTR
18 1
charge -1
@<TRIPOS>BOND
     1    14    15    1
     2    15     1    1
     3     1     2    1
     4     2     3   ar
     5     3     4   ar
     6     4     5   ar
     7     5     6   ar
     8     6     7   ar
     9     1     8    1
    10     8     9   ar
    11     9    10   ar
    12    10    11   ar
    13    11    12   ar
    14    12    13   ar
    15     1    16    1
    16    16    20    1
    17    20    21    1
    18    21    22   ar
    19    22    23   ar
    20    23    24    1
    21    23    25   ar
    22    25    26   ar
    23    26    27    1
    24    26    28   ar
    25    16    17    1
    26    17    18   ar
    27    17    19   ar
    28     7     2   ar
    29    13     8   ar
    30    28    21   ar
@<TRIPOS>MOLECULE
*****
 28 30 0 0 0
SMALL
GASTEIGER

@<TRIPOS>ATOM
      1 C          -9.5772  -18.6338   21.7738 C.3     1  UNL1        0.1719
      2 C          -8.2751  -19.2849   21.4123 C.ar    1  UNL1        0.0097
      3 C          -7.6097  -20.2189   22.3791 C.ar    1  UNL1       -0.0016
      4 C          -6.3076  -20.8699   22.0175 C.ar    1  UNL1       -0.0002
      5 C          -5.6709  -20.5868   20.6892 C.ar    1  UNL1       -0.0000
      6 C          -6.3363  -19.6528   19.7224 C.ar    1  UNL1       -0.0002
      7 C          -7.6384  -19.0018   20.0839 C.ar    1  UNL1       -0.0016
      8 C         -10.8793  -17.9829   22.1353 C.ar    1  UNL1        0.0097
      9 C         -11.1107  -16.5369   21.8101 C.ar    1  UNL1       -0.0016
     10 C         -12.4128  -15.8859   22.1716 C.ar    1  UNL1       -0.0002
     11 C         -13.4836  -16.6808   22.8583 C.ar    1  UNL1       -0.0000
     12 C         -13.2522  -18.1267   23.1835 C.ar    1  UNL1       -0.0002
     13 C         -11.9501  -18.7778   22.8220 C.ar    1  UNL1       -0.0016
     14 C         -10.7579  -18.9457   19.4806 C.3     1  UNL1        0.1750
     15 O         -10.2898  -19.5120   20.7885 O.3     1  UNL1       -0.3438
     16 C          -8.8646  -17.7557   22.7592 C.3     1  UNL1        0.2372
     17 C          -9.2405  -17.7983   24.2108 C.2     1  UNL1        0.0931
     18 O          -9.5536  -16.5267   24.9421 O.co2   1  UNL1       -0.5454
     19 O          -9.3241  -18.3848   24.7442 O.co2   1  UNL1       -0.5454
     20 O          -7.7761  -16.8348   22.2931 O.3     1  UNL1       -0.4415
     21 C          -6.5074  -16.7125   23.0841 C.ar    1  UNL1        0.3196
     22 N          -6.4663  -15.8434   24.3060 N.ar    1  UNL1       -0.1986
     23 C          -5.1976  -15.7211   25.0969 C.ar    1  UNL1        0.0652
     24 C          -5.1565  -14.8520   26.3188 C.3     1  UNL1        0.0523
     25 C          -3.9701  -16.4678   24.6659 C.ar    1  UNL1        0.0297
     26 C          -4.0113  -17.3369   23.4440 C.ar    1  UNL1        0.0652
     27 C          -2.7839  -18.0836   23.0130 C.3     1  UNL1        0.0523
     28 N          -5.2800  -17.4592   22.6531 N.ar    1  UNL1       -0.1986
@<TRIPOS>UNITY_ATOM_ATTR
18 1
charge -1
@<TRIPOS>BOND
     1    14    15    1
     2    15     1    1
     3     1     2    1
     4     2     3   ar
     5     3     4   ar
     6     4     5   ar
     7     5     6   ar
     8     6     7   ar
     9     1     8    1
    10     8     9   ar
    11     9    10   ar
    12    10    11   ar
    13    11    12   ar
    14    12    13   ar
    15     1    16    1
    16    16    20    1
    17    20    21    1
    18    21    22   ar
    19    22    23   ar
    20    23    24    1
    21    23    25   ar
    22    25    26   ar
    23    26    27    1
    24    26    28   ar
    25    16    17    1
    26    17    18   ar
    27    17    19   ar
    28     7     2   ar
    29    13     8   ar
    30    28    21   ar
@<TRIPOS>MOLECULE
*****
 28 30 0 0 0
SMALL
GASTEIGER

@<TRIPOS>ATOM
      1 C          -8.9554  -16.8928   24.0122 C.3     1  UNL1        0.1719
      2 C          -7.8703  -16.2596   24.8318 C.ar    1  UNL1        0.0097
      3 C          -6.5699  -15.8787   24.1886 C.ar    1  UNL1       -0.0016
      4 C          -5.4849  -15.2456   25.0082 C.ar    1  UNL1       -0.0002
      5 C          -5.7002  -14.9934   26.4711 C.ar    1  UNL1       -0.0000
      6 C          -7.0006  -15.3744   27.1144 C.ar    1  UNL1       -0.0002
      7 C          -8.0856  -16.0075   26.2947 C.ar    1  UNL1       -0.0016
      8 C         -10.0405  -17.5259   23.1927 C.ar    1  UNL1        0.0097
      9 C          -9.8565  -18.9105   22.6459 C.ar    1  UNL1       -0.0016
     10 C         -10.9416  -19.5436   21.8264 C.ar    1  UNL1       -0.0002
     11 C         -12.2108  -18.7921   21.5535 C.ar    1  UNL1       -0.0000
     12 C         -12.3948  -17.4075   22.1002 C.ar    1  UNL1       -0.0002
     13 C         -11.3097  -16.7744   22.9198 C.ar    1  UNL1       -0.0016
     14 C          -9.9748  -18.5378   25.7457 C.3     1  UNL1        0.1750
     15 O          -9.7543  -17.1364   25.2582 O.3     1  UNL1       -0.3438
     16 C          -8.1566  -16.6491   22.7663 C.3     1  UNL1        0.2372
     17 C          -8.6809  -15.7244   21.7080 C.2     1  UNL1        0.0931
     18 O          -7.8295  -14.5939   21.2109 O.co2   1  UNL1       -0.5454
     19 O          -9.3660  -15.6779   21.3031 O.co2   1  UNL1       -0.5454
     20 O          -6.8334  -17.3302   22.5786 O.3     1  UNL1       -0.4415
     21 C          -6.6732  -18.3784   21.5175 C.ar    1  UNL1        0.3196
     22 N          -7.8414  -18.7592   20.6571 N.ar    1  UNL1       -0.1986
     23 C          -7.6813  -19.8073   19.5961 C.ar    1  UNL1        0.0652
     24 C          -8.8495  -20.1881   18.7357 C.3     1  UNL1        0.0523
     25 C          -6.3529  -20.4745   19.3953 C.ar    1  UNL1        0.0297
     26 C          -5.1847  -20.0937   20.2557 C.ar    1  UNL1        0.0652
     27 C          -3.8563  -20.7609   20.0551 C.3     1  UNL1        0.0523
     28 N          -5.3448  -19.0456   21.3168 N.ar    1  UNL1       -0.1986
@<TRIPOS>UNITY_ATOM_ATTR
18 1
charge -1
@<TRIPOS>BOND
     1    14    15    1
     2    15     1    1
     3     1     2    1
     4     2     3   ar
     5     3     4   ar
     6     4     5   ar
     7     5     6   ar
     8     6     7   ar
     9     1     8    1
    10     8     9   ar
    11     9    10   ar
    12    10    11   ar
    13    11    12   ar
    14    12    13   ar
    15     1    16    1
    16    16    20    1
    17    20    21    1
    18    21    22   ar
    19    22    23   ar
    20    23    24    1
    21    23    25   ar
    22    25    26   ar
    23    26    27    1
    24    26    28   ar
    25    16    17    1
    26    17    18   ar
    27    17    19   ar
    28     7     2   ar
    29    13     8   ar
    30    28    21   ar
