@<TRIPOS>MOLECULE
*****
 31 35 0 0 0
SMALL
GASTEIGER

@<TRIPOS>ATOM
      1 C          -6.4192  -18.9039   20.7400 C.2     1  UNL1        0.2411
      2 N          -7.3343  -19.5640   19.7516 N.2     1  UNL1       -0.0354
      3 C          -8.7458  -19.2212   20.1259 C.2     1  UNL1        0.3669
      4 N          -8.7031  -18.3491   21.3456 N.2     1  UNL1       -0.0535
      5 C          -7.2652  -18.1531   21.7251 C.3     1  UNL1        0.3044
      6 C          -6.7617  -17.3476   22.8861 C.ar    1  UNL1        0.0536
      7 C          -5.3084  -16.9872   22.9748 C.ar    1  UNL1        0.0050
      8 C          -4.8049  -16.1817   24.1358 C.ar    1  UNL1        0.0387
      9 C          -5.7548  -15.7366   25.2079 C.ar    1  UNL1        0.1656
     10 N          -5.5508  -14.9385   26.4615 N.ar    1  UNL1       -0.2034
     11 C          -6.8782  -14.8056   27.1474 C.ar    1  UNL1        0.2213
     12 N          -7.9025  -15.5216   26.3178 N.ar    1  UNL1       -0.1409
     13 N          -7.2082  -16.0969   25.1191 N.ar    1  UNL1       -0.2094
     14 C          -7.7116  -16.9024   23.9582 C.ar    1  UNL1        0.1024
     15 C          -1.8479  -17.7102   18.5773 C.3     1  UNL1        0.0521
     16 C          -2.6356  -18.3843   19.6613 C.ar    1  UNL1        0.0595
     17 C          -1.9252  -19.1355   20.7481 C.ar    1  UNL1        0.0148
     18 C          -2.7129  -19.8095   21.8322 C.ar    1  UNL1        0.0029
     19 C          -4.2109  -19.7323   21.8295 C.ar    1  UNL1        0.0227
     20 C          -4.9212  -18.9811   20.7427 C.ar    1  UNL1        0.1242
     21 N          -4.1335  -18.3071   19.6586 N.ar    1  UNL1       -0.2461
     22 C          -9.9828  -19.6712   19.4068 C.3     1  UNL1        0.2125
     23 N         -11.1872  -18.7786   19.3554 N.pl3   1  UNL1       -0.3208
     24 H         -11.6572  -18.6347   18.5024 H       1  UNL1        0.1474
     25 C         -11.6755  -18.1053   20.6037 C.ar    1  UNL1        0.0729
     26 C         -12.0014  -18.9227   21.8184 C.ar    1  UNL1        0.0166
     27 C         -12.4897  -18.2494   23.0668 C.ar    1  UNL1        0.0014
     28 C         -12.6520  -16.7586   23.1003 C.ar    1  UNL1        0.0024
     29 C         -12.3261  -15.9412   21.8856 C.ar    1  UNL1        0.0309
     30 C         -11.8379  -16.6144   20.6373 C.ar    1  UNL1        0.1531
     31 F         -11.5120  -15.7969   19.4226 F       1  UNL1       -0.2029
@<TRIPOS>BOND
     1    15    16    1
     2    16    17   ar
     3    17    18   ar
     4    18    19   ar
     5    19    20   ar
     6    20     1    1
     7     1     2    2
     8     2     3    1
     9     3    22    1
    10    22    23    1
    11    23    25    1
    12    25    26   ar
    13    26    27   ar
    14    27    28   ar
    15    28    29   ar
    16    29    30   ar
    17    30    31    1
    18     3     4    2
    19     4     5    1
    20     5     6    1
    21     6     7   ar
    22     7     8   ar
    23     8     9   ar
    24     9    10   ar
    25    10    11   ar
    26    11    12   ar
    27    12    13   ar
    28    13    14   ar
    29    20    21   ar
    30    21    16   ar
    31     5     1    1
    32    14     6   ar
    33    30    25   ar
    34    13     9   ar
    35    23    24    1
@<TRIPOS>MOLECULE
*****
 31 35 0 0 0
SMALL
GASTEIGER

@<TRIPOS>ATOM
      1 C          -7.2946  -18.1386   21.8092 C.2     1  UNL1        0.2411
      2 N          -8.7270  -18.3961   21.4459 N.2     1  UNL1       -0.0354
      3 C          -8.7465  -19.3099   20.2566 C.2     1  UNL1        0.3669
      4 N          -7.3262  -19.6172   19.8848 N.2     1  UNL1       -0.0535
      5 C          -6.4289  -18.8933   20.8443 C.3     1  UNL1        0.3044
      6 C          -4.9290  -18.9195   20.8398 C.ar    1  UNL1        0.0536
      7 C          -4.1862  -19.5361   21.9877 C.ar    1  UNL1        0.0050
      8 C          -2.6864  -19.5624   21.9831 C.ar    1  UNL1        0.0387
      9 C          -1.9295  -18.9718   20.8305 C.ar    1  UNL1        0.1656
     10 N          -0.4609  -18.8526   20.5499 N.ar    1  UNL1       -0.2034
     11 C          -0.2961  -18.1622   19.2285 C.ar    1  UNL1        0.2213
     12 N          -1.6629  -17.8547   18.6924 N.ar    1  UNL1       -0.1409
     13 N          -2.6724  -18.3552   19.6826 N.ar    1  UNL1       -0.2094
     14 C          -4.1722  -18.3290   19.6872 C.ar    1  UNL1        0.1024
     15 C          -8.2775  -15.3841   26.1040 C.3     1  UNL1        0.0521
     16 C          -7.3040  -15.9003   25.0863 C.ar    1  UNL1        0.0595
     17 C          -5.8485  -15.5555   25.1983 C.ar    1  UNL1        0.0148
     18 C          -4.8750  -16.0717   24.1806 C.ar    1  UNL1        0.0029
     19 C          -5.3570  -16.9327   23.0509 C.ar    1  UNL1        0.0227
     20 C          -6.8125  -17.2775   22.9389 C.ar    1  UNL1        0.1242
     21 N          -7.7861  -16.7613   23.9566 N.ar    1  UNL1       -0.2461
     22 C          -9.9713  -19.8259   19.5612 C.3     1  UNL1        0.2125
     23 N         -11.1912  -18.9603   19.4496 N.pl3   1  UNL1       -0.3208
     24 H         -11.6679  -18.8899   18.5911 H       1  UNL1        0.1474
     25 C         -11.6847  -18.2020   20.6460 C.ar    1  UNL1        0.0729
     26 C         -12.0490  -18.9369   21.9018 C.ar    1  UNL1        0.0166
     27 C         -12.5425  -18.1786   23.0983 C.ar    1  UNL1        0.0014
     28 C         -12.6718  -16.6854   23.0388 C.ar    1  UNL1        0.0024
     29 C         -12.3075  -15.9505   21.7830 C.ar    1  UNL1        0.0309
     30 C         -11.8140  -16.7087   20.5866 C.ar    1  UNL1        0.1531
     31 F         -11.4498  -15.9738   19.3307 F       1  UNL1       -0.2029
@<TRIPOS>BOND
     1    15    16    1
     2    16    17   ar
     3    17    18   ar
     4    18    19   ar
     5    19    20   ar
     6    20     1    1
     7     1     2    2
     8     2     3    1
     9     3    22    1
    10    22    23    1
    11    23    25    1
    12    25    26   ar
    13    26    27   ar
    14    27    28   ar
    15    28    29   ar
    16    29    30   ar
    17    30    31    1
    18     3     4    2
    19     4     5    1
    20     5     6    1
    21     6     7   ar
    22     7     8   ar
    23     8     9   ar
    24     9    10   ar
    25    10    11   ar
    26    11    12   ar
    27    12    13   ar
    28    13    14   ar
    29    20    21   ar
    30    21    16   ar
    31     5     1    1
    32    14     6   ar
    33    30    25   ar
    34    13     9   ar
    35    23    24    1
@<TRIPOS>MOLECULE
*****
 31 35 0 0 0
SMALL
GASTEIGER

@<TRIPOS>ATOM
      1 C          -7.5530  -17.7949   22.3386 C.2     1  UNL1        0.2411
      2 N          -6.3329  -18.2500   21.5939 N.2     1  UNL1       -0.0354
      3 C          -6.7740  -19.1927   20.5137 C.2     1  UNL1        0.3669
      4 N          -8.2665  -19.3203   20.5908 N.2     1  UNL1       -0.0535
      5 C          -8.7480  -18.4564   21.7186 C.3     1  UNL1        0.3044
      6 C         -10.1741  -18.2842   22.1506 C.ar    1  UNL1        0.0536
      7 C         -11.1719  -17.6680   21.2154 C.ar    1  UNL1        0.0050
      8 C         -12.5980  -17.4959   21.6474 C.ar    1  UNL1        0.0387
      9 C         -13.0263  -17.9400   23.0146 C.ar    1  UNL1        0.1656
     10 N         -14.3529  -17.8989   23.7135 N.ar    1  UNL1       -0.2034
     11 C         -14.1749  -18.4897   25.0807 C.ar    1  UNL1        0.2213
     12 N         -12.7384  -18.8960   25.2268 N.ar    1  UNL1       -0.1409
     13 N         -12.0285  -18.5562   23.9498 N.ar    1  UNL1       -0.2094
     14 C         -10.6024  -18.7283   23.5178 C.ar    1  UNL1        0.1024
     15 C          -5.0274  -15.0857   25.9829 C.3     1  UNL1        0.0521
     16 C          -6.3114  -15.4905   25.3215 C.ar    1  UNL1        0.0595
     17 C          -7.6167  -14.9457   25.8210 C.ar    1  UNL1        0.0148
     18 C          -8.9007  -15.3505   25.1597 C.ar    1  UNL1        0.0029
     19 C          -8.8794  -16.3003   23.9989 C.ar    1  UNL1        0.0227
     20 C          -7.5742  -16.8452   23.4994 C.ar    1  UNL1        0.1242
     21 N          -6.2902  -16.4403   24.1607 N.ar    1  UNL1       -0.2461
     22 C          -5.8795  -19.8861   19.5293 C.3     1  UNL1        0.2125
     23 N          -4.5394  -20.3996   19.9657 N.pl3   1  UNL1       -0.3208
     24 H          -4.4106  -21.3618   20.1298 H       1  UNL1        0.1474
     25 C          -3.3957  -19.4472   20.1522 C.ar    1  UNL1        0.0729
     26 C          -2.7260  -18.8364   18.9571 C.ar    1  UNL1        0.0166
     27 C          -1.5822  -17.8839   19.1435 C.ar    1  UNL1        0.0014
     28 C          -1.1083  -17.5423   20.5250 C.ar    1  UNL1        0.0024
     29 C          -1.7780  -18.1531   21.7201 C.ar    1  UNL1        0.0309
     30 C          -2.9217  -19.1055   21.5338 C.ar    1  UNL1        0.1531
     31 F          -3.5915  -19.7164   22.7289 F       1  UNL1       -0.2029
@<TRIPOS>BOND
     1    15    16    1
     2    16    17   ar
     3    17    18   ar
     4    18    19   ar
     5    19    20   ar
     6    20     1    1
     7     1     2    2
     8     2     3    1
     9     3    22    1
    10    22    23    1
    11    23    25    1
    12    25    26   ar
    13    26    27   ar
    14    27    28   ar
    15    28    29   ar
    16    29    30   ar
    17    30    31    1
    18     3     4    2
    19     4     5    1
    20     5     6    1
    21     6     7   ar
    22     7     8   ar
    23     8     9   ar
    24     9    10   ar
    25    10    11   ar
    26    11    12   ar
    27    12    13   ar
    28    13    14   ar
    29    20    21   ar
    30    21    16   ar
    31     5     1    1
    32    14     6   ar
    33    30    25   ar
    34    13     9   ar
    35    23    24    1
@<TRIPOS>MOLECULE
*****
 31 35 0 0 0
SMALL
GASTEIGER

@<TRIPOS>ATOM
      1 C          -8.3936  -18.6418   21.1581 C.2     1  UNL1        0.2411
      2 N          -7.7102  -19.4519   20.0966 N.2     1  UNL1       -0.0354
      3 C          -6.2890  -19.6707   20.5235 C.2     1  UNL1        0.3669
      4 N          -6.0940  -18.9959   21.8488 N.2     1  UNL1       -0.0535
      5 C          -7.3947  -18.3600   22.2410 C.3     1  UNL1        0.3044
      6 C          -7.6514  -17.5793   23.4960 C.ar    1  UNL1        0.0536
      7 C          -9.0017  -17.6290   24.1472 C.ar    1  UNL1        0.0050
      8 C          -9.2584  -16.8483   25.4021 C.ar    1  UNL1        0.0387
      9 C          -8.1647  -16.0180   26.0057 C.ar    1  UNL1        0.1656
     10 N          -8.1223  -15.1487   27.2274 N.ar    1  UNL1       -0.2034
     11 C          -6.7458  -14.5619   27.3312 C.ar    1  UNL1        0.2213
     12 N          -5.9374  -15.0684   26.1736 N.ar    1  UNL1       -0.1409
     13 N          -6.8143  -15.9683   25.3544 N.ar    1  UNL1       -0.2094
     14 C          -6.5577  -16.7490   24.0995 C.ar    1  UNL1        0.1024
     15 C         -12.1141  -15.5452   19.2690 C.3     1  UNL1        0.0521
     16 C         -11.6848  -16.6442   20.1953 C.ar    1  UNL1        0.0595
     17 C         -12.6866  -17.2938   21.1034 C.ar    1  UNL1        0.0148
     18 C         -12.2573  -18.3927   22.0297 C.ar    1  UNL1        0.0029
     19 C         -10.8263  -18.8420   22.0479 C.ar    1  UNL1        0.0227
     20 C          -9.8246  -18.1924   21.1399 C.ar    1  UNL1        0.1242
     21 N         -10.2538  -17.0935   20.2135 N.ar    1  UNL1       -0.2461
     22 C          -5.2459  -20.4308   19.7593 C.3     1  UNL1        0.2125
     23 N          -3.8492  -20.5343   20.2964 N.pl3   1  UNL1       -0.3208
     24 H          -3.5127  -21.3973   20.6298 H       1  UNL1        0.1474
     25 C          -2.9652  -19.3228   20.3254 C.ar    1  UNL1        0.0729
     26 C          -2.3817  -18.7895   19.0507 C.ar    1  UNL1        0.0166
     27 C          -1.4976  -17.5780   19.0796 C.ar    1  UNL1        0.0014
     28 C          -1.1971  -16.8999   20.3834 C.ar    1  UNL1        0.0024
     29 C          -1.7807  -17.4332   21.6582 C.ar    1  UNL1        0.0309
     30 C          -2.6647  -18.6447   21.6292 C.ar    1  UNL1        0.1531
     31 F          -3.2482  -19.1780   22.9040 F       1  UNL1       -0.2029
@<TRIPOS>BOND
     1    15    16    1
     2    16    17   ar
     3    17    18   ar
     4    18    19   ar
     5    19    20   ar
     6    20     1    1
     7     1     2    2
     8     2     3    1
     9     3    22    1
    10    22    23    1
    11    23    25    1
    12    25    26   ar
    13    26    27   ar
    14    27    28   ar
    15    28    29   ar
    16    29    30   ar
    17    30    31    1
    18     3     4    2
    19     4     5    1
    20     5     6    1
    21     6     7   ar
    22     7     8   ar
    23     8     9   ar
    24     9    10   ar
    25    10    11   ar
    26    11    12   ar
    27    12    13   ar
    28    13    14   ar
    29    20    21   ar
    30    21    16   ar
    31     5     1    1
    32    14     6   ar
    33    30    25   ar
    34    13     9   ar
    35    23    24    1
@<TRIPOS>MOLECULE
*****
 31 35 0 0 0
SMALL
GASTEIGER

@<TRIPOS>ATOM
      1 C          -6.6286  -18.1824   22.4161 C.2     1  UNL1        0.2411
      2 N          -5.5400  -18.5654   21.4578 N.2     1  UNL1       -0.0354
      3 C          -6.0555  -19.6749   20.5899 C.2     1  UNL1        0.3669
      4 N          -7.4628  -19.9776   21.0119 N.2     1  UNL1       -0.0535
      5 C          -7.8169  -19.0552   22.1405 C.3     1  UNL1        0.3044
      6 C          -9.1291  -19.0131   22.8662 C.ar    1  UNL1        0.0536
      7 C          -9.3169  -19.8096   24.1232 C.ar    1  UNL1        0.0050
      8 C         -10.6291  -19.7675   24.8488 C.ar    1  UNL1        0.0387
      9 C         -11.7534  -18.9288   24.3173 C.ar    1  UNL1        0.1656
     10 N         -13.1493  -18.6913   24.8123 N.ar    1  UNL1       -0.2034
     11 C         -13.8242  -17.7480   23.8612 C.ar    1  UNL1        0.2213
     12 N         -12.8454  -17.4025   22.7783 N.ar    1  UNL1       -0.1409
     13 N         -11.5656  -18.1323   23.0602 N.ar    1  UNL1       -0.2094
     14 C         -10.2534  -18.1745   22.3346 C.ar    1  UNL1        0.1024
     15 C          -8.9300  -15.1843   25.9818 C.3     1  UNL1        0.0521
     16 C          -7.6944  -15.6151   25.2485 C.ar    1  UNL1        0.0595
     17 C          -6.3739  -14.9777   25.5649 C.ar    1  UNL1        0.0148
     18 C          -5.1383  -15.4085   24.8316 C.ar    1  UNL1        0.0029
     19 C          -5.2232  -16.4767   23.7821 C.ar    1  UNL1        0.0227
     20 C          -6.5437  -17.1142   23.4657 C.ar    1  UNL1        0.1242
     21 N          -7.7793  -16.6833   24.1990 N.ar    1  UNL1       -0.2461
     22 C          -5.2971  -20.3611   19.4928 C.3     1  UNL1        0.2125
     23 N          -3.8286  -20.6248   19.6474 N.pl3   1  UNL1       -0.3208
     24 H          -3.4890  -21.5485   19.6220 H       1  UNL1        0.1474
     25 C          -2.8776  -19.4811   19.8407 C.ar    1  UNL1        0.0729
     26 C          -2.5107  -18.6062   18.6789 C.ar    1  UNL1        0.0166
     27 C          -1.5596  -17.4624   18.8721 C.ar    1  UNL1        0.0014
     28 C          -0.9754  -17.1936   20.2273 C.ar    1  UNL1        0.0024
     29 C          -1.3423  -18.0685   21.3892 C.ar    1  UNL1        0.0309
     30 C          -2.2933  -19.2122   21.1959 C.ar    1  UNL1        0.1531
     31 F          -2.6602  -20.0872   22.3578 F       1  UNL1       -0.2029
@<TRIPOS>BOND
     1    15    16    1
     2    16    17   ar
     3    17    18   ar
     4    18    19   ar
     5    19    20   ar
     6    20     1    1
     7     1     2    2
     8     2     3    1
     9     3    22    1
    10    22    23    1
    11    23    25    1
    12    25    26   ar
    13    26    27   ar
    14    27    28   ar
    15    28    29   ar
    16    29    30   ar
    17    30    31    1
    18     3     4    2
    19     4     5    1
    20     5     6    1
    21     6     7   ar
    22     7     8   ar
    23     8     9   ar
    24     9    10   ar
    25    10    11   ar
    26    11    12   ar
    27    12    13   ar
    28    13    14   ar
    29    20    21   ar
    30    21    16   ar
    31     5     1    1
    32    14     6   ar
    33    30    25   ar
    34    13     9   ar
    35    23    24    1
@<TRIPOS>MOLECULE
*****
 31 35 0 0 0
SMALL
GASTEIGER

@<TRIPOS>ATOM
      1 C          -1.5445    3.3162   24.7830 C.2     1  UNL1        0.2411
      2 N          -1.3803    3.3439   23.2922 N.2     1  UNL1       -0.0354
      3 C          -0.1929    2.4974   22.9408 C.2     1  UNL1        0.3669
      4 N           0.3768    1.9465   24.2143 N.2     1  UNL1       -0.0535
      5 C          -0.4585    2.4525   25.3528 C.3     1  UNL1        0.3044
      6 C          -0.2453    2.1483   26.8061 C.ar    1  UNL1        0.0536
      7 C          -0.7429    0.8561   27.3828 C.ar    1  UNL1        0.0050
      8 C          -0.5296    0.5519   28.8361 C.ar    1  UNL1        0.0387
      9 C           0.1813    1.5399   29.7127 C.ar    1  UNL1        0.1656
     10 N           0.5350    1.5160   31.1702 N.ar    1  UNL1       -0.2034
     11 C           1.2512    2.7935   31.4942 C.ar    1  UNL1        0.2213
     12 N           1.3402    3.6069   30.2371 N.ar    1  UNL1       -0.1409
     13 N           0.6790    2.8321   29.1360 N.ar    1  UNL1       -0.2094
     14 C           0.4657    3.1363   27.6827 C.ar    1  UNL1        0.1024
     15 C          -2.9050    6.7932   28.3965 C.3     1  UNL1        0.0521
     16 C          -3.2881    5.7658   27.3730 C.ar    1  UNL1        0.0595
     17 C          -4.7346    5.4494   27.1328 C.ar    1  UNL1        0.0148
     18 C          -5.1177    4.4220   26.1093 C.ar    1  UNL1        0.0029
     19 C          -4.0543    3.7109   25.3260 C.ar    1  UNL1        0.0227
     20 C          -2.6078    4.0273   25.5662 C.ar    1  UNL1        0.1242
     21 N          -2.2248    5.0547   26.5897 N.ar    1  UNL1       -0.2461
     22 C           0.3326    2.2459   21.5586 C.3     1  UNL1        0.2125
     23 N           0.1026    0.9186   20.8987 N.pl3   1  UNL1       -0.3208
     24 H          -0.7796    0.4856   20.9580 H       1  UNL1        0.1474
     25 C           1.2167    0.2511   20.1483 C.ar    1  UNL1        0.0729
     26 C           2.0183   -0.8338   20.8044 C.ar    1  UNL1        0.0166
     27 C           3.1325   -1.5015   20.0541 C.ar    1  UNL1        0.0014
     28 C           3.4450   -1.0842   18.6476 C.ar    1  UNL1        0.0024
     29 C           2.6434    0.0007   17.9915 C.ar    1  UNL1        0.0309
     30 C           1.5293    0.6683   18.7418 C.ar    1  UNL1        0.1531
     31 F           0.7277    1.7532   18.0856 F       1  UNL1       -0.2029
@<TRIPOS>BOND
     1    15    16    1
     2    16    17   ar
     3    17    18   ar
     4    18    19   ar
     5    19    20   ar
     6    20     1    1
     7     1     2    2
     8     2     3    1
     9     3    22    1
    10    22    23    1
    11    23    25    1
    12    25    26   ar
    13    26    27   ar
    14    27    28   ar
    15    28    29   ar
    16    29    30   ar
    17    30    31    1
    18     3     4    2
    19     4     5    1
    20     5     6    1
    21     6     7   ar
    22     7     8   ar
    23     8     9   ar
    24     9    10   ar
    25    10    11   ar
    26    11    12   ar
    27    12    13   ar
    28    13    14   ar
    29    20    21   ar
    30    21    16   ar
    31     5     1    1
    32    14     6   ar
    33    30    25   ar
    34    13     9   ar
    35    23    24    1
@<TRIPOS>MOLECULE
*****
 31 35 0 0 0
SMALL
GASTEIGER

@<TRIPOS>ATOM
      1 C           1.2352    1.0637   21.2465 C.2     1  UNL1        0.2411
      2 N          -0.0633    1.6937   21.6554 N.2     1  UNL1       -0.0354
      3 C          -0.6037    2.4484   20.4771 C.2     1  UNL1        0.3669
      4 N           0.3608    2.2849   19.3400 N.2     1  UNL1       -0.0535
      5 C           1.4973    1.4291   19.8155 C.3     1  UNL1        0.3044
      6 C           2.6870    1.0120   19.0027 C.ar    1  UNL1        0.0536
      7 C           2.5627   -0.1055   18.0100 C.ar    1  UNL1        0.0050
      8 C           3.7524   -0.5226   17.1972 C.ar    1  UNL1        0.0387
      9 C           5.0665    0.1780   17.3772 C.ar    1  UNL1        0.1656
     10 N           6.4029   -0.0117   16.7229 N.ar    1  UNL1       -0.2034
     11 C           7.3532    0.9887   17.3113 C.ar    1  UNL1        0.2213
     12 N           6.6041    1.7966   18.3292 N.ar    1  UNL1       -0.1409
     13 N           5.1908    1.2956   18.3699 N.ar    1  UNL1       -0.2094
     14 C           4.0011    1.7126   19.1827 C.ar    1  UNL1        0.1024
     15 C           4.4095   -3.0091   21.8251 C.3     1  UNL1        0.0521
     16 C           3.7039   -1.8194   22.4053 C.ar    1  UNL1        0.0595
     17 C           3.8798   -1.4763   23.8549 C.ar    1  UNL1        0.0148
     18 C           3.1742   -0.2866   24.4351 C.ar    1  UNL1        0.0029
     19 C           2.2927    0.5601   23.5656 C.ar    1  UNL1        0.0227
     20 C           2.1167    0.2170   22.1160 C.ar    1  UNL1        0.1242
     21 N           2.8224   -0.9727   21.5358 N.ar    1  UNL1       -0.2461
     22 C          -1.8838    3.2294   20.4420 C.3     1  UNL1        0.2125
     23 N          -3.2001    2.5170   20.5409 N.pl3   1  UNL1       -0.3208
     24 H          -3.2806    1.5862   20.2304 H       1  UNL1        0.1474
     25 C          -4.3937    3.2227   21.1129 C.ar    1  UNL1        0.0729
     26 C          -4.6033    3.2589   22.5977 C.ar    1  UNL1        0.0166
     27 C          -5.7969    3.9646   23.1698 C.ar    1  UNL1        0.0014
     28 C          -6.7810    4.6342   22.2570 C.ar    1  UNL1        0.0024
     29 C          -6.5714    4.5981   20.7721 C.ar    1  UNL1        0.0309
     30 C          -5.3778    3.8924   20.2001 C.ar    1  UNL1        0.1531
     31 F          -5.1682    3.8563   18.7152 F       1  UNL1       -0.2029
@<TRIPOS>BOND
     1    15    16    1
     2    16    17   ar
     3    17    18   ar
     4    18    19   ar
     5    19    20   ar
     6    20     1    1
     7     1     2    2
     8     2     3    1
     9     3    22    1
    10    22    23    1
    11    23    25    1
    12    25    26   ar
    13    26    27   ar
    14    27    28   ar
    15    28    29   ar
    16    29    30   ar
    17    30    31    1
    18     3     4    2
    19     4     5    1
    20     5     6    1
    21     6     7   ar
    22     7     8   ar
    23     8     9   ar
    24     9    10   ar
    25    10    11   ar
    26    11    12   ar
    27    12    13   ar
    28    13    14   ar
    29    20    21   ar
    30    21    16   ar
    31     5     1    1
    32    14     6   ar
    33    30    25   ar
    34    13     9   ar
    35    23    24    1
@<TRIPOS>MOLECULE
*****
 31 35 0 0 0
SMALL
GASTEIGER

@<TRIPOS>ATOM
      1 C           4.1453   -1.4084   22.5945 C.2     1  UNL1        0.2411
      2 N           4.5380   -1.8063   23.9865 N.2     1  UNL1       -0.0354
      3 C           3.6683   -1.0510   24.9473 C.2     1  UNL1        0.3669
      4 N           2.7381   -0.1863   24.1492 N.2     1  UNL1       -0.0535
      5 C           3.0328   -0.4072   22.6951 C.3     1  UNL1        0.3044
      6 C           2.3372    0.2566   21.5437 C.ar    1  UNL1        0.0536
      7 C           1.5441   -0.5656   20.5718 C.ar    1  UNL1        0.0050
      8 C           0.8485    0.0982   19.4204 C.ar    1  UNL1        0.0387
      9 C           0.9461    1.5842   19.2411 C.ar    1  UNL1        0.1656
     10 N           0.3726    2.5106   18.2101 N.ar    1  UNL1       -0.2034
     11 C           0.8114    3.9054   18.5450 C.ar    1  UNL1        0.2213
     12 N           1.6560    3.8410   19.7829 N.ar    1  UNL1       -0.1409
     13 N           1.7393    2.4064   20.2132 N.ar    1  UNL1       -0.2094
     14 C           2.4348    1.7426   21.3645 C.ar    1  UNL1        0.1024
     15 C           4.4640   -5.0532   18.9050 C.3     1  UNL1        0.0521
     16 C           4.9168   -3.7440   19.4802 C.ar    1  UNL1        0.0595
     17 C           5.9818   -2.9480   18.7858 C.ar    1  UNL1        0.0148
     18 C           6.4347   -1.6388   19.3610 C.ar    1  UNL1        0.0029
     19 C           5.8225   -1.1256   20.6306 C.ar    1  UNL1        0.0227
     20 C           4.7575   -1.9216   21.3249 C.ar    1  UNL1        0.1242
     21 N           4.3046   -3.2308   20.7497 N.ar    1  UNL1       -0.2461
     22 C           3.7198   -1.1440   26.4435 C.3     1  UNL1        0.2125
     23 N           3.4118    0.0617   27.2810 N.pl3   1  UNL1       -0.3208
     24 H           4.1429    0.6366   27.6038 H       1  UNL1        0.1474
     25 C           1.9899    0.3915   27.6266 C.ar    1  UNL1        0.0729
     26 C           1.2652   -0.4112   28.6660 C.ar    1  UNL1        0.0166
     27 C          -0.1567   -0.0815   29.0117 C.ar    1  UNL1        0.0014
     28 C          -0.8539    1.0510   28.3179 C.ar    1  UNL1        0.0024
     29 C          -0.1292    1.8537   27.2784 C.ar    1  UNL1        0.0309
     30 C           1.2927    1.5240   26.9328 C.ar    1  UNL1        0.1531
     31 F           2.0174    2.3267   25.8933 F       1  UNL1       -0.2029
@<TRIPOS>BOND
     1    15    16    1
     2    16    17   ar
     3    17    18   ar
     4    18    19   ar
     5    19    20   ar
     6    20     1    1
     7     1     2    2
     8     2     3    1
     9     3    22    1
    10    22    23    1
    11    23    25    1
    12    25    26   ar
    13    26    27   ar
    14    27    28   ar
    15    28    29   ar
    16    29    30   ar
    17    30    31    1
    18     3     4    2
    19     4     5    1
    20     5     6    1
    21     6     7   ar
    22     7     8   ar
    23     8     9   ar
    24     9    10   ar
    25    10    11   ar
    26    11    12   ar
    27    12    13   ar
    28    13    14   ar
    29    20    21   ar
    30    21    16   ar
    31     5     1    1
    32    14     6   ar
    33    30    25   ar
    34    13     9   ar
    35    23    24    1
@<TRIPOS>MOLECULE
*****
 31 35 0 0 0
SMALL
GASTEIGER

@<TRIPOS>ATOM
      1 C           1.3733    1.5303   21.7932 C.2     1  UNL1        0.2411
      2 N           0.1796    2.3894   22.0884 N.2     1  UNL1       -0.0354
      3 C          -0.6252    2.5132   20.8287 C.2     1  UNL1        0.3669
      4 N           0.0710    1.7306   19.7550 N.2     1  UNL1       -0.0535
      5 C           1.3061    1.1232   20.3511 C.3     1  UNL1        0.3044
      6 C           2.2997    0.2600   19.6313 C.ar    1  UNL1        0.0536
      7 C           3.0651    0.8105   18.4647 C.ar    1  UNL1        0.0050
      8 C           4.0587   -0.0526   17.7450 C.ar    1  UNL1        0.0387
      9 C           4.2867   -1.4662   18.1920 C.ar    1  UNL1        0.1656
     10 N           5.1940   -2.5462   17.6817 N.ar    1  UNL1       -0.2034
     11 C           4.9893   -3.7641   18.5329 C.ar    1  UNL1        0.2213
     12 N           3.9555   -3.4369   19.5693 N.ar    1  UNL1       -0.1409
     13 N           3.5213   -2.0166   19.3586 N.ar    1  UNL1       -0.2094
     14 C           2.5277   -1.1535   20.0783 C.ar    1  UNL1        0.1024
     15 C           6.2503    1.9817   23.5282 C.3     1  UNL1        0.0521
     16 C           4.8843    1.3715   23.6363 C.ar    1  UNL1        0.0595
     17 C           4.5908    0.3768   24.7201 C.ar    1  UNL1        0.0148
     18 C           3.2248   -0.2334   24.8282 C.ar    1  UNL1        0.0029
     19 C           2.1523    0.1511   23.8526 C.ar    1  UNL1        0.0227
     20 C           2.4458    1.1458   22.7688 C.ar    1  UNL1        0.1242
     21 N           3.8118    1.7560   22.6607 N.ar    1  UNL1       -0.2461
     22 C          -1.9021    3.2842   20.6704 C.3     1  UNL1        0.2125
     23 N          -3.2142    2.5593   20.6159 N.pl3   1  UNL1       -0.3208
     24 H          -3.2556    1.6426   20.2593 H       1  UNL1        0.1474
     25 C          -4.4631    3.2311   21.1045 C.ar    1  UNL1        0.0729
     26 C          -4.7351    3.3294   22.5764 C.ar    1  UNL1        0.0166
     27 C          -5.9840    4.0012   23.0652 C.ar    1  UNL1        0.0014
     28 C          -6.9609    4.5749   22.0820 C.ar    1  UNL1        0.0024
     29 C          -6.6889    4.4766   20.6102 C.ar    1  UNL1        0.0309
     30 C          -5.4401    3.8048   20.1214 C.ar    1  UNL1        0.1531
     31 F          -5.1681    3.7066   18.6496 F       1  UNL1       -0.2029
@<TRIPOS>BOND
     1    15    16    1
     2    16    17   ar
     3    17    18   ar
     4    18    19   ar
     5    19    20   ar
     6    20     1    1
     7     1     2    2
     8     2     3    1
     9     3    22    1
    10    22    23    1
    11    23    25    1
    12    25    26   ar
    13    26    27   ar
    14    27    28   ar
    15    28    29   ar
    16    29    30   ar
    17    30    31    1
    18     3     4    2
    19     4     5    1
    20     5     6    1
    21     6     7   ar
    22     7     8   ar
    23     8     9   ar
    24     9    10   ar
    25    10    11   ar
    26    11    12   ar
    27    12    13   ar
    28    13    14   ar
    29    20    21   ar
    30    21    16   ar
    31     5     1    1
    32    14     6   ar
    33    30    25   ar
    34    13     9   ar
    35    23    24    1
