@<TRIPOS>MOLECULE
*****
 12 13 0 0 0
SMALL
GASTEIGER

@<TRIPOS>ATOM
      1 C         -11.1893  -18.9686   24.3830 C.ar    1  UNL1        0.0207
      2 C         -11.9291  -18.2987   23.2632 C.ar    1  UNL1        0.0989
      3 N         -11.4625  -16.9708   22.7447 N.ar    1  UNL1       -0.2423
      4 C         -10.2561  -16.3127   23.3459 C.ar    1  UNL1        0.0989
      5 C          -9.5163  -16.9826   24.4656 C.ar    1  UNL1        0.0207
      6 C          -9.9829  -18.3105   24.9842 C.ar    1  UNL1        0.0032
      7 C          -8.3098  -16.3245   25.0669 C.ar    1  UNL1        0.0207
      8 C          -8.1569  -16.2572   26.5575 C.ar    1  UNL1        0.0032
      9 C          -6.9505  -15.5991   27.1588 C.ar    1  UNL1        0.0207
     10 C          -5.8969  -15.0084   26.2694 C.ar    1  UNL1        0.0989
     11 N          -6.0499  -15.0758   24.7786 N.ar    1  UNL1       -0.2423
     12 C          -7.2563  -15.7338   24.1775 C.ar    1  UNL1        0.0989
@<TRIPOS>BOND
     1     1     2   ar
     2     2     3   ar
     3     3     4   ar
     4     4     5   ar
     5     5     7    1
     6     7     8   ar
     7     8     9   ar
     8     9    10   ar
     9    10    11   ar
    10    11    12   ar
    11     5     6   ar
    12     6     1   ar
    13    12     7   ar
@<TRIPOS>MOLECULE
*****
 12 13 0 0 0
SMALL
GASTEIGER

@<TRIPOS>ATOM
      1 C          -7.4958  -15.7896   27.1847 C.ar    1  UNL1        0.0207
      2 C          -6.1888  -15.1625   26.7993 C.ar    1  UNL1        0.0989
      3 N          -5.8415  -14.9823   25.3513 N.ar    1  UNL1       -0.2423
      4 C          -6.8011  -15.4291   24.2886 C.ar    1  UNL1        0.0989
      5 C          -8.1081  -16.0563   24.6739 C.ar    1  UNL1        0.0207
      6 C          -8.4554  -16.2365   26.1220 C.ar    1  UNL1        0.0032
      7 C          -9.0678  -16.5032   23.6112 C.ar    1  UNL1        0.0207
      8 C         -10.2596  -17.3362   23.9792 C.ar    1  UNL1        0.0032
      9 C         -11.2193  -17.7831   22.9165 C.ar    1  UNL1        0.0207
     10 C         -10.9871  -17.3970   21.4858 C.ar    1  UNL1        0.0989
     11 N          -9.7951  -16.5640   21.1178 N.ar    1  UNL1       -0.2423
     12 C          -8.8355  -16.1171   22.1805 C.ar    1  UNL1        0.0989
@<TRIPOS>BOND
     1     1     2   ar
     2     2     3   ar
     3     3     4   ar
     4     4     5   ar
     5     5     7    1
     6     7     8   ar
     7     8     9   ar
     8     9    10   ar
     9    10    11   ar
    10    11    12   ar
    11     5     6   ar
    12     6     1   ar
    13    12     7   ar
@<TRIPOS>MOLECULE
*****
 12 13 0 0 0
SMALL
GASTEIGER

@<TRIPOS>ATOM
      1 C          -6.9953  -15.1406   25.0357 C.ar    1  UNL1        0.0207
      2 C          -5.9386  -15.6757   24.1154 C.ar    1  UNL1        0.0989
      3 N          -6.3047  -16.6620   23.0461 N.ar    1  UNL1       -0.2423
      4 C          -7.7274  -17.1131   22.8971 C.ar    1  UNL1        0.0989
      5 C          -8.7841  -16.5780   23.8175 C.ar    1  UNL1        0.0207
      6 C          -8.4181  -15.5918   24.8867 C.ar    1  UNL1        0.0032
      7 C         -10.2069  -17.0291   23.6685 C.ar    1  UNL1        0.0207
      8 C         -11.1421  -16.2766   22.7690 C.ar    1  UNL1        0.0032
      9 C         -12.5649  -16.7277   22.6201 C.ar    1  UNL1        0.0207
     10 C         -13.0525  -17.9314   23.3707 C.ar    1  UNL1        0.0989
     11 N         -12.1173  -18.6839   24.2702 N.ar    1  UNL1       -0.2423
     12 C         -10.6945  -18.2328   24.4191 C.ar    1  UNL1        0.0989
@<TRIPOS>BOND
     1     1     2   ar
     2     2     3   ar
     3     3     4   ar
     4     4     5   ar
     5     5     7    1
     6     7     8   ar
     7     8     9   ar
     8     9    10   ar
     9    10    11   ar
    10    11    12   ar
    11     5     6   ar
    12     6     1   ar
    13    12     7   ar
@<TRIPOS>MOLECULE
*****
 12 13 0 0 0
SMALL
GASTEIGER

@<TRIPOS>ATOM
      1 C         -12.4200  -18.2021   23.0254 C.ar    1  UNL1        0.0207
      2 C         -12.8281  -17.7095   21.6687 C.ar    1  UNL1        0.0989
      3 N         -11.9672  -16.7212   20.9393 N.ar    1  UNL1       -0.2423
      4 C         -10.6981  -16.2254   21.5668 C.ar    1  UNL1        0.0989
      5 C         -10.2900  -16.7180   22.9235 C.ar    1  UNL1        0.0207
      6 C         -11.1510  -17.7064   23.6528 C.ar    1  UNL1        0.0032
      7 C          -9.0209  -16.2223   23.5510 C.ar    1  UNL1        0.0207
      8 C          -8.9283  -16.0758   25.0409 C.ar    1  UNL1        0.0032
      9 C          -7.6592  -15.5800   25.6684 C.ar    1  UNL1        0.0207
     10 C          -6.4827  -15.2308   24.8059 C.ar    1  UNL1        0.0989
     11 N          -6.5754  -15.3773   23.3159 N.ar    1  UNL1       -0.2423
     12 C          -7.8444  -15.8730   22.6885 C.ar    1  UNL1        0.0989
@<TRIPOS>BOND
     1     1     2   ar
     2     2     3   ar
     3     3     4   ar
     4     4     5   ar
     5     5     7    1
     6     7     8   ar
     7     8     9   ar
     8     9    10   ar
     9    10    11   ar
    10    11    12   ar
    11     5     6   ar
    12     6     1   ar
    13    12     7   ar
@<TRIPOS>MOLECULE
*****
 12 13 0 0 0
SMALL
GASTEIGER

@<TRIPOS>ATOM
      1 C         -12.9849  -17.7460   22.0150 C.ar    1  UNL1        0.0207
      2 C         -13.2222  -17.9534   23.4815 C.ar    1  UNL1        0.0989
      3 N         -12.1457  -18.5509   24.3383 N.ar    1  UNL1       -0.2423
      4 C         -10.8318  -18.9409   23.7286 C.ar    1  UNL1        0.0989
      5 C         -10.5946  -18.7334   22.2621 C.ar    1  UNL1        0.0207
      6 C         -11.6711  -18.1360   21.4053 C.ar    1  UNL1        0.0032
      7 C          -9.2807  -19.1234   21.6524 C.ar    1  UNL1        0.0207
      8 C          -8.1614  -19.6049   22.5271 C.ar    1  UNL1        0.0032
      9 C          -6.8475  -19.9949   21.9174 C.ar    1  UNL1        0.0207
     10 C          -6.6531  -19.9034   20.4328 C.ar    1  UNL1        0.0989
     11 N          -7.7725  -19.4220   19.5581 N.ar    1  UNL1       -0.2423
     12 C          -9.0863  -19.0320   20.1678 C.ar    1  UNL1        0.0989
@<TRIPOS>BOND
     1     1     2   ar
     2     2     3   ar
     3     3     4   ar
     4     4     5   ar
     5     5     7    1
     6     7     8   ar
     7     8     9   ar
     8     9    10   ar
     9    10    11   ar
    10    11    12   ar
    11     5     6   ar
    12     6     1   ar
    13    12     7   ar
@<TRIPOS>MOLECULE
*****
 12 13 0 0 0
SMALL
GASTEIGER

@<TRIPOS>ATOM
      1 C          -3.6840  -18.8941   22.5245 C.ar    1  UNL1        0.0207
      2 C          -2.8276  -19.6493   21.5517 C.ar    1  UNL1        0.0989
      3 N          -3.4602  -20.3733   20.4003 N.ar    1  UNL1       -0.2423
      4 C          -4.9492  -20.3420   20.2217 C.ar    1  UNL1        0.0989
      5 C          -5.8055  -19.5868   21.1944 C.ar    1  UNL1        0.0207
      6 C          -5.1729  -18.8628   22.3458 C.ar    1  UNL1        0.0032
      7 C          -7.2946  -19.5555   21.0158 C.ar    1  UNL1        0.0207
      8 C          -7.8861  -19.6109   19.6385 C.ar    1  UNL1        0.0032
      9 C          -9.3751  -19.5796   19.4599 C.ar    1  UNL1        0.0207
     10 C         -10.2726  -19.4928   20.6586 C.ar    1  UNL1        0.0989
     11 N          -9.6810  -19.4374   22.0360 N.ar    1  UNL1       -0.2423
     12 C          -8.1921  -19.4687   22.2146 C.ar    1  UNL1        0.0989
@<TRIPOS>BOND
     1     1     2   ar
     2     2     3   ar
     3     3     4   ar
     4     4     5   ar
     5     5     7    1
     6     7     8   ar
     7     8     9   ar
     8     9    10   ar
     9    10    11   ar
    10    11    12   ar
    11     5     6   ar
    12     6     1   ar
    13    12     7   ar
@<TRIPOS>MOLECULE
*****
 12 13 0 0 0
SMALL
GASTEIGER

@<TRIPOS>ATOM
      1 C           6.6095  -12.4819   29.0283 C.ar    1  UNL1        0.0207
      2 C           7.2800  -12.7436   27.7123 C.ar    1  UNL1        0.0989
      3 N           6.4949  -13.3218   26.5725 N.ar    1  UNL1       -0.2423
      4 C           5.0394  -13.6383   26.7486 C.ar    1  UNL1        0.0989
      5 C           4.3689  -13.3766   28.0646 C.ar    1  UNL1        0.0207
      6 C           5.1540  -12.7984   29.2045 C.ar    1  UNL1        0.0032
      7 C           2.9132  -13.6931   28.2408 C.ar    1  UNL1        0.0207
      8 C           1.9919  -12.6747   28.8441 C.ar    1  UNL1        0.0032
      9 C           0.5363  -12.9912   29.0203 C.ar    1  UNL1        0.0207
     10 C           0.0020  -14.3262   28.5932 C.ar    1  UNL1        0.0989
     11 N           0.9234  -15.3446   27.9898 N.ar    1  UNL1       -0.2423
     12 C           2.3789  -15.0281   27.8137 C.ar    1  UNL1        0.0989
@<TRIPOS>BOND
     1     1     2   ar
     2     2     3   ar
     3     3     4   ar
     4     4     5   ar
     5     5     7    1
     6     7     8   ar
     7     8     9   ar
     8     9    10   ar
     9    10    11   ar
    10    11    12   ar
    11     5     6   ar
    12     6     1   ar
    13    12     7   ar
@<TRIPOS>MOLECULE
*****
 12 13 0 0 0
SMALL
GASTEIGER

@<TRIPOS>ATOM
      1 C         -10.2992  -19.4282   19.6630 C.ar    1  UNL1        0.0207
      2 C         -11.1070  -19.2374   20.9124 C.ar    1  UNL1        0.0989
      3 N         -10.4193  -19.1296   22.2411 N.ar    1  UNL1       -0.2423
      4 C          -8.9237  -19.2125   22.3204 C.ar    1  UNL1        0.0989
      5 C          -8.1159  -19.4032   21.0710 C.ar    1  UNL1        0.0207
      6 C          -8.8036  -19.5111   19.7423 C.ar    1  UNL1        0.0032
      7 C          -6.6202  -19.4861   21.1503 C.ar    1  UNL1        0.0207
      8 C          -5.8580  -20.2799   20.1311 C.ar    1  UNL1        0.0032
      9 C          -4.3624  -20.3628   20.2103 C.ar    1  UNL1        0.0207
     10 C          -3.6290  -19.6519   21.3089 C.ar    1  UNL1        0.0989
     11 N          -4.3913  -18.8581   22.3281 N.ar    1  UNL1       -0.2423
     12 C          -5.8869  -18.7752   22.2488 C.ar    1  UNL1        0.0989
@<TRIPOS>BOND
     1     1     2   ar
     2     2     3   ar
     3     3     4   ar
     4     4     5   ar
     5     5     7    1
     6     7     8   ar
     7     8     9   ar
     8     9    10   ar
     9    10    11   ar
    10    11    12   ar
    11     5     6   ar
    12     6     1   ar
    13    12     7   ar
@<TRIPOS>MOLECULE
*****
 12 13 0 0 0
SMALL
GASTEIGER

@<TRIPOS>ATOM
      1 C         -11.6938  -18.8944   21.2920 C.ar    1  UNL1        0.0207
      2 C         -12.3039  -17.6555   21.8775 C.ar    1  UNL1        0.0989
      3 N         -11.4364  -16.6499   22.5747 N.ar    1  UNL1       -0.2423
      4 C          -9.9589  -16.8831   22.6864 C.ar    1  UNL1        0.0989
      5 C          -9.3488  -18.1220   22.1008 C.ar    1  UNL1        0.0207
      6 C         -10.2163  -19.1277   21.4036 C.ar    1  UNL1        0.0032
      7 C          -7.8712  -18.3553   22.2125 C.ar    1  UNL1        0.0207
      8 C          -7.2883  -19.6778   21.8111 C.ar    1  UNL1        0.0032
      9 C          -5.8107  -19.9111   21.9227 C.ar    1  UNL1        0.0207
     10 C          -4.9161  -18.8218   22.4358 C.ar    1  UNL1        0.0989
     11 N          -5.4991  -17.4992   22.8372 N.ar    1  UNL1       -0.2423
     12 C          -6.9767  -17.2660   22.7255 C.ar    1  UNL1        0.0989
@<TRIPOS>BOND
     1     1     2   ar
     2     2     3   ar
     3     3     4   ar
     4     4     5   ar
     5     5     7    1
     6     7     8   ar
     7     8     9   ar
     8     9    10   ar
     9    10    11   ar
    10    11    12   ar
    11     5     6   ar
    12     6     1   ar
    13    12     7   ar
