@<TRIPOS>MOLECULE
*****
 35 40 0 0 0
SMALL
GASTEIGER

@<TRIPOS>ATOM
      1 C           5.8694   -1.7390   21.3553 C.3     1  UNL1        0.1412
      2 N           6.7765   -2.5136   22.2648 N.3     1  UNL1       -0.2630
      3 C           7.8702   -1.7234   22.9203 C.3     1  UNL1        0.0742
      4 C           8.9275   -2.2004   23.8714 C.3     1  UNL1        0.0347
      5 C           9.1523   -3.5853   24.4018 C.3     1  UNL1        0.0735
      6 N           8.3754   -4.8353   24.1122 N.3     1  UNL1       -0.2727
      7 C           7.1818   -5.0091   23.2206 C.3     1  UNL1        0.0896
      8 C           6.4702   -3.9758   22.3984 C.3     1  UNL1        0.0902
      9 C           8.8557   -6.0755   24.8059 C.3     1  UNL1        0.0575
     10 C           9.5004   -6.3692   26.1281 C.3     1  UNL1        0.0160
     11 C           9.5349   -7.8294   25.7870 C.3     1  UNL1        0.0028
     12 C           8.8903   -7.5359   24.4648 C.3     1  UNL1        0.0160
     13 C           4.8462   -0.8067   21.9330 C.ar    1  UNL1       -0.0004
     14 C           4.8287    0.6357   21.5216 C.ar    1  UNL1       -0.0010
     15 C           3.8054    1.5680   22.0994 C.ar    1  UNL1        0.0189
     16 C           2.7997    1.0579   23.0885 C.ar    1  UNL1        0.0846
     17 C           2.8172   -0.3845   23.4999 C.ar    1  UNL1        0.0189
     18 C           3.8404   -1.3168   22.9222 C.ar    1  UNL1       -0.0010
     19 N           1.7764    1.9903   23.6663 N.ar    1  UNL1       -0.2079
     20 C           1.9168    3.4773   23.8042 C.ar    1  UNL1        0.2016
     21 N           0.6603    4.0053   24.4307 N.ar    1  UNL1       -0.2004
     22 C          -0.2566    2.8447   24.6798 C.ar    1  UNL1        0.2214
     23 N           0.4333    1.5993   24.2074 N.ar    1  UNL1       -0.1409
     24 N           4.8498   -2.1189   18.9138 N.ar    1  UNL1       -0.2108
     25 N           5.4201   -2.2195   17.5301 N.ar    1  UNL1       -0.0428
     26 N           6.9082   -2.0595   17.6293 N.ar    1  UNL1       -0.0229
     27 N           7.2577   -1.8600   19.0743 N.ar    1  UNL1       -0.1110
     28 C           5.9855   -1.8968   19.8682 C.ar    1  UNL1        0.1798
     29 C           3.3986   -2.2224   19.2790 C.3     1  UNL1        0.1570
     30 C           0.8278    1.4704   19.3499 C.ar    1  UNL1       -0.0000
     31 C           0.4737    0.2933   20.2097 C.ar    1  UNL1       -0.0003
     32 C           1.3306   -0.9376   20.1861 C.ar    1  UNL1       -0.0023
     33 C           2.5416   -0.9914   19.3027 C.ar    1  UNL1        0.0022
     34 C           2.8958    0.1856   18.4429 C.ar    1  UNL1       -0.0023
     35 C           2.0388    1.4164   18.4665 C.ar    1  UNL1       -0.0003
@<TRIPOS>BOND
     1    30    31   ar
     2    31    32   ar
     3    32    33   ar
     4    33    29    1
     5    29    24    1
     6    24    25   ar
     7    25    26   ar
     8    26    27   ar
     9    27    28   ar
    10    28     1    1
    11     1    13    1
    12    13    14   ar
    13    14    15   ar
    14    15    16   ar
    15    16    19    1
    16    19    20   ar
    17    20    21   ar
    18    21    22   ar
    19    22    23   ar
    20    16    17   ar
    21    17    18   ar
    22     1     2    1
    23     2     3    1
    24     3     4    1
    25     4     5    1
    26     5     6    1
    27     6     9    1
    28     9    10    1
    29    10    11    1
    30    11    12    1
    31     6     7    1
    32     7     8    1
    33    33    34   ar
    34    34    35   ar
    35    35    30   ar
    36    28    24   ar
    37    18    13   ar
    38     8     2    1
    39    23    19   ar
    40    12     9    1
@<TRIPOS>MOLECULE
*****
 35 40 0 0 0
SMALL
GASTEIGER

@<TRIPOS>ATOM
      1 C           3.5584    0.5058   22.3608 C.3     1  UNL1        0.1412
      2 N           2.6699    0.7745   23.5391 N.3     1  UNL1       -0.2630
      3 C           1.2381    1.0850   23.2170 C.3     1  UNL1        0.0742
      4 C           0.1134    1.3949   24.1600 C.3     1  UNL1        0.0347
      5 C           0.1428    1.4708   25.6577 C.3     1  UNL1        0.0735
      6 N           1.3040    1.2557   26.5826 N.3     1  UNL1       -0.2727
      7 C           2.7227    0.9114   26.2380 C.3     1  UNL1        0.0896
      8 C           3.3305    0.6973   24.8835 C.3     1  UNL1        0.0902
      9 C           1.0073    1.4044   28.0453 C.3     1  UNL1        0.0575
     10 C           0.8176    0.4550   29.1911 C.3     1  UNL1        0.0160
     11 C           0.5876    1.6148   30.1141 C.3     1  UNL1        0.0028
     12 C           0.7773    2.5643   28.9685 C.3     1  UNL1        0.0160
     13 C           4.4666   -0.6880   22.3631 C.ar    1  UNL1       -0.0004
     14 C           5.8856   -0.5517   21.8963 C.ar    1  UNL1       -0.0010
     15 C           6.7937   -1.7456   21.8986 C.ar    1  UNL1        0.0189
     16 C           6.2830   -3.0756   22.3677 C.ar    1  UNL1        0.0846
     17 C           4.8640   -3.2118   22.8346 C.ar    1  UNL1        0.0189
     18 C           3.9558   -2.0181   22.8323 C.ar    1  UNL1       -0.0010
     19 N           7.1912   -4.2694   22.3700 N.ar    1  UNL1       -0.2079
     20 C           8.0189   -4.7498   21.2149 C.ar    1  UNL1        0.2016
     21 N           8.7704   -5.9696   21.6588 N.ar    1  UNL1       -0.2004
     22 C           8.4073   -6.2433   23.0882 C.ar    1  UNL1        0.2214
     23 N           7.4312   -5.1924   23.5277 N.ar    1  UNL1       -0.1409
     24 N           3.0727    1.0852   19.7969 N.ar    1  UNL1       -0.2108
     25 N           3.2274    2.3047   18.9374 N.ar    1  UNL1       -0.0428
     26 N           3.7889    3.4041   19.7894 N.ar    1  UNL1       -0.0229
     27 N           3.9812    2.8641   21.1756 N.ar    1  UNL1       -0.1110
     28 C           3.5386    1.4309   21.1802 C.ar    1  UNL1        0.1798
     29 C           2.5448   -0.2463   19.3514 C.3     1  UNL1        0.1570
     30 C           5.3818   -3.6636   18.6276 C.ar    1  UNL1       -0.0000
     31 C           4.0433   -3.9199   19.2545 C.ar    1  UNL1       -0.0003
     32 C           3.0977   -2.7808   19.4957 C.ar    1  UNL1       -0.0023
     33 C           3.4905   -1.3854   19.1101 C.ar    1  UNL1        0.0022
     34 C           4.8289   -1.1291   18.4833 C.ar    1  UNL1       -0.0023
     35 C           5.7745   -2.2682   18.2421 C.ar    1  UNL1       -0.0003
@<TRIPOS>BOND
     1    30    31   ar
     2    31    32   ar
     3    32    33   ar
     4    33    29    1
     5    29    24    1
     6    24    25   ar
     7    25    26   ar
     8    26    27   ar
     9    27    28   ar
    10    28     1    1
    11     1    13    1
    12    13    14   ar
    13    14    15   ar
    14    15    16   ar
    15    16    19    1
    16    19    20   ar
    17    20    21   ar
    18    21    22   ar
    19    22    23   ar
    20    16    17   ar
    21    17    18   ar
    22     1     2    1
    23     2     3    1
    24     3     4    1
    25     4     5    1
    26     5     6    1
    27     6     9    1
    28     9    10    1
    29    10    11    1
    30    11    12    1
    31     6     7    1
    32     7     8    1
    33    33    34   ar
    34    34    35   ar
    35    35    30   ar
    36    28    24   ar
    37    18    13   ar
    38     8     2    1
    39    23    19   ar
    40    12     9    1
@<TRIPOS>MOLECULE
*****
 35 40 0 0 0
SMALL
GASTEIGER

@<TRIPOS>ATOM
      1 C           3.8924    0.3106   22.0768 C.3     1  UNL1        0.1412
      2 N           2.9742    0.7356   23.1842 N.3     1  UNL1       -0.2630
      3 C           3.4763    0.4901   24.5763 C.3     1  UNL1        0.0742
      4 C           2.8035    0.7983   25.8811 C.3     1  UNL1        0.0347
      5 C           1.4627    1.4280   26.1161 C.3     1  UNL1        0.0735
      6 N           0.4632    1.9051   25.1044 N.3     1  UNL1       -0.2727
      7 C           0.5578    1.8703   23.6078 C.3     1  UNL1        0.0896
      8 C           1.6754    1.3498   22.7533 C.3     1  UNL1        0.0902
      9 C          -0.7977    2.4949   25.6632 C.3     1  UNL1        0.0575
     10 C          -1.4117    2.5861   27.0288 C.3     1  UNL1        0.0160
     11 C          -2.5808    3.3292   26.4535 C.3     1  UNL1        0.0028
     12 C          -1.9669    3.2381   25.0880 C.3     1  UNL1        0.0160
     13 C           4.7447   -0.9132   22.2373 C.ar    1  UNL1       -0.0004
     14 C           4.1124   -2.2263   22.5923 C.ar    1  UNL1       -0.0010
     15 C           4.9649   -3.4501   22.7528 C.ar    1  UNL1        0.0189
     16 C           6.4495   -3.3608   22.5582 C.ar    1  UNL1        0.0846
     17 C           7.0817   -2.0477   22.2032 C.ar    1  UNL1        0.0189
     18 C           6.2294   -0.8239   22.0427 C.ar    1  UNL1       -0.0010
     19 N           7.3019   -4.5847   22.7187 N.ar    1  UNL1       -0.2079
     20 C           8.2576   -5.1331   21.7009 C.ar    1  UNL1        0.2016
     21 N           8.8945   -6.3622   22.2783 N.ar    1  UNL1       -0.2004
     22 C           8.3325   -6.5735   23.6528 C.ar    1  UNL1        0.2214
     23 N           7.3481   -5.4749   23.9249 N.ar    1  UNL1       -0.1409
     24 N           3.4505    0.6753   19.4659 N.ar    1  UNL1       -0.2108
     25 N           3.7218    1.7803   18.4885 N.ar    1  UNL1       -0.0428
     26 N           4.3971    2.8973   19.2274 N.ar    1  UNL1       -0.0229
     27 N           4.5432    2.4828   20.6615 N.ar    1  UNL1       -0.1110
     28 C           3.9582    1.1095   20.8090 C.ar    1  UNL1        0.1798
     29 C           2.7878   -0.6340   19.1550 C.3     1  UNL1        0.1570
     30 C           5.2580   -4.3795   18.8092 C.ar    1  UNL1       -0.0000
     31 C           3.8032   -4.4705   19.1634 C.ar    1  UNL1       -0.0003
     32 C           2.9799   -3.2220   19.2786 C.ar    1  UNL1       -0.0023
     33 C           3.6112   -1.8825   19.0397 C.ar    1  UNL1        0.0022
     34 C           5.0660   -1.7915   18.6855 C.ar    1  UNL1       -0.0023
     35 C           5.8893   -3.0400   18.5702 C.ar    1  UNL1       -0.0003
@<TRIPOS>BOND
     1    30    31   ar
     2    31    32   ar
     3    32    33   ar
     4    33    29    1
     5    29    24    1
     6    24    25   ar
     7    25    26   ar
     8    26    27   ar
     9    27    28   ar
    10    28     1    1
    11     1    13    1
    12    13    14   ar
    13    14    15   ar
    14    15    16   ar
    15    16    19    1
    16    19    20   ar
    17    20    21   ar
    18    21    22   ar
    19    22    23   ar
    20    16    17   ar
    21    17    18   ar
    22     1     2    1
    23     2     3    1
    24     3     4    1
    25     4     5    1
    26     5     6    1
    27     6     9    1
    28     9    10    1
    29    10    11    1
    30    11    12    1
    31     6     7    1
    32     7     8    1
    33    33    34   ar
    34    34    35   ar
    35    35    30   ar
    36    28    24   ar
    37    18    13   ar
    38     8     2    1
    39    23    19   ar
    40    12     9    1
@<TRIPOS>MOLECULE
*****
 35 40 0 0 0
SMALL
GASTEIGER

@<TRIPOS>ATOM
      1 C           0.9194    3.2133   19.7076 C.3     1  UNL1        0.1412
      2 N          -0.4399    3.4362   19.1136 N.3     1  UNL1       -0.2630
      3 C          -0.4759    3.6340   17.6271 C.3     1  UNL1        0.0742
      4 C          -1.6644    3.8763   16.7444 C.3     1  UNL1        0.0347
      5 C          -3.1100    3.9806   17.1303 C.3     1  UNL1        0.0735
      6 N          -3.7246    3.8684   18.4940 N.3     1  UNL1       -0.2727
      7 C          -3.0450    3.6242   19.8088 C.3     1  UNL1        0.0896
      8 C          -1.5832    3.4318   20.0845 C.3     1  UNL1        0.0902
      9 C          -5.2157    4.0205   18.5505 C.3     1  UNL1        0.0575
     10 C          -6.3636    3.1093   18.8702 C.3     1  UNL1        0.0160
     11 C          -7.3246    4.2357   18.6304 C.3     1  UNL1        0.0028
     12 C          -6.1769    5.1470   18.3106 C.3     1  UNL1        0.0160
     13 C           1.6149    1.8981   19.5166 C.ar    1  UNL1       -0.0004
     14 C           0.9630    0.6302   19.9830 C.ar    1  UNL1       -0.0010
     15 C           1.6586   -0.6850   19.7920 C.ar    1  UNL1        0.0189
     16 C           3.0060   -0.7323   19.1346 C.ar    1  UNL1        0.0846
     17 C           3.6579    0.5356   18.6682 C.ar    1  UNL1        0.0189
     18 C           2.9624    1.8508   18.8592 C.ar    1  UNL1       -0.0010
     19 N           3.7015   -2.0475   18.9436 N.ar    1  UNL1       -0.2079
     20 C           5.0303   -2.2538   18.2788 C.ar    1  UNL1        0.2016
     21 N           5.3403   -3.7211   18.3082 N.ar    1  UNL1       -0.2004
     22 C           4.2033   -4.4216   18.9911 C.ar    1  UNL1        0.2214
     23 N           3.1904   -3.3872   19.3838 N.ar    1  UNL1       -0.1409
     24 N           1.9044    4.2685   21.9574 N.ar    1  UNL1       -0.2108
     25 N           2.5618    5.5669   22.3208 N.ar    1  UNL1       -0.0428
     26 N           2.6469    6.4064   21.0806 N.ar    1  UNL1       -0.0229
     27 N           2.0420    5.6269   19.9508 N.ar    1  UNL1       -0.1110
     28 C           1.5830    4.3057   20.4926 C.ar    1  UNL1        0.1798
     29 C           1.6184    3.1325   22.8942 C.3     1  UNL1        0.1570
     30 C           4.2843   -0.4928   22.9144 C.ar    1  UNL1       -0.0000
     31 C           4.7790    0.7988   22.3337 C.ar    1  UNL1       -0.0003
     32 C           3.8903    2.0072   22.3269 C.ar    1  UNL1       -0.0023
     33 C           2.5071    1.9241   22.9010 C.ar    1  UNL1        0.0022
     34 C           2.0123    0.6326   23.4817 C.ar    1  UNL1       -0.0023
     35 C           2.9010   -0.5758   23.4884 C.ar    1  UNL1       -0.0003
@<TRIPOS>BOND
     1    30    31   ar
     2    31    32   ar
     3    32    33   ar
     4    33    29    1
     5    29    24    1
     6    24    25   ar
     7    25    26   ar
     8    26    27   ar
     9    27    28   ar
    10    28     1    1
    11     1    13    1
    12    13    14   ar
    13    14    15   ar
    14    15    16   ar
    15    16    19    1
    16    19    20   ar
    17    20    21   ar
    18    21    22   ar
    19    22    23   ar
    20    16    17   ar
    21    17    18   ar
    22     1     2    1
    23     2     3    1
    24     3     4    1
    25     4     5    1
    26     5     6    1
    27     6     9    1
    28     9    10    1
    29    10    11    1
    30    11    12    1
    31     6     7    1
    32     7     8    1
    33    33    34   ar
    34    34    35   ar
    35    35    30   ar
    36    28    24   ar
    37    18    13   ar
    38     8     2    1
    39    23    19   ar
    40    12     9    1
@<TRIPOS>MOLECULE
*****
 35 40 0 0 0
SMALL
GASTEIGER

@<TRIPOS>ATOM
      1 C           0.7132    2.7041   23.0600 C.3     1  UNL1        0.1412
      2 N           1.2007    1.5191   22.2802 N.3     1  UNL1       -0.2630
      3 C           0.3664    1.1321   21.0951 C.3     1  UNL1        0.0742
      4 C           0.5834    0.0082   20.1256 C.3     1  UNL1        0.0347
      5 C           1.6880   -1.0062   20.1018 C.3     1  UNL1        0.0735
      6 N           2.8487   -1.1473   21.0415 N.3     1  UNL1       -0.2727
      7 C           3.1913   -0.3088   22.2371 C.3     1  UNL1        0.0896
      8 C           2.4578    0.8779   22.7883 C.3     1  UNL1        0.0902
      9 C           3.7914   -2.2761   20.7465 C.3     1  UNL1        0.0575
     10 C           4.4121   -2.8425   19.5040 C.3     1  UNL1        0.0160
     11 C           5.1246   -3.8725   20.3294 C.3     1  UNL1        0.0028
     12 C           4.5040   -3.3062   21.5720 C.3     1  UNL1        0.0160
     13 C           0.6557    2.6442   24.5577 C.ar    1  UNL1       -0.0004
     14 C           1.4081    3.6497   25.3780 C.ar    1  UNL1       -0.0010
     15 C           1.3505    3.5897   26.8757 C.ar    1  UNL1        0.0189
     16 C           0.5405    2.5243   27.5531 C.ar    1  UNL1        0.0846
     17 C          -0.2119    1.5189   26.7328 C.ar    1  UNL1        0.0189
     18 C          -0.1544    1.5788   25.2351 C.ar    1  UNL1       -0.0010
     19 N           0.4830    2.4644   29.0508 N.ar    1  UNL1       -0.2079
     20 C           0.1199    1.2627   29.8718 C.ar    1  UNL1        0.2016
     21 N           0.1909    1.6513   31.3188 N.ar    1  UNL1       -0.2004
     22 C           0.5979    3.0931   31.3922 C.ar    1  UNL1        0.2214
     23 N           0.7784    3.5956   29.9904 N.ar    1  UNL1       -0.1409
     24 N          -1.1310    4.3536   22.0483 N.ar    1  UNL1       -0.2108
     25 N          -1.0963    5.6625   21.3166 N.ar    1  UNL1       -0.0428
     26 N           0.3395    6.0669   21.1581 N.ar    1  UNL1       -0.0229
     27 N           1.1920    5.0080   21.7919 N.ar    1  UNL1       -0.1110
     28 C           0.2833    3.9490   22.3421 C.ar    1  UNL1        0.1798
     29 C          -2.3636    3.5842   22.4210 C.3     1  UNL1        0.1570
     30 C          -4.3738    4.3341   26.3766 C.ar    1  UNL1       -0.0000
     31 C          -5.1263    3.6577   25.2691 C.ar    1  UNL1       -0.0003
     32 C          -4.4562    3.4078   23.9506 C.ar    1  UNL1       -0.0023
     33 C          -3.0337    3.8342   23.7395 C.ar    1  UNL1        0.0022
     34 C          -2.2812    4.5106   24.8469 C.ar    1  UNL1       -0.0023
     35 C          -2.9513    4.7605   26.1654 C.ar    1  UNL1       -0.0003
@<TRIPOS>BOND
     1    30    31   ar
     2    31    32   ar
     3    32    33   ar
     4    33    29    1
     5    29    24    1
     6    24    25   ar
     7    25    26   ar
     8    26    27   ar
     9    27    28   ar
    10    28     1    1
    11     1    13    1
    12    13    14   ar
    13    14    15   ar
    14    15    16   ar
    15    16    19    1
    16    19    20   ar
    17    20    21   ar
    18    21    22   ar
    19    22    23   ar
    20    16    17   ar
    21    17    18   ar
    22     1     2    1
    23     2     3    1
    24     3     4    1
    25     4     5    1
    26     5     6    1
    27     6     9    1
    28     9    10    1
    29    10    11    1
    30    11    12    1
    31     6     7    1
    32     7     8    1
    33    33    34   ar
    34    34    35   ar
    35    35    30   ar
    36    28    24   ar
    37    18    13   ar
    38     8     2    1
    39    23    19   ar
    40    12     9    1
@<TRIPOS>MOLECULE
*****
 35 40 0 0 0
SMALL
GASTEIGER

@<TRIPOS>ATOM
      1 C          -0.6404    3.4091   26.3272 C.3     1  UNL1        0.1412
      2 N          -0.1707    2.4672   27.3960 N.3     1  UNL1       -0.2630
      3 C          -1.0200    1.2493   27.6092 C.3     1  UNL1        0.0742
      4 C          -0.8222    0.1311   28.5893 C.3     1  UNL1        0.0347
      5 C           0.2737   -0.0454   29.5981 C.3     1  UNL1        0.0735
      6 N           1.4425    0.8527   29.8761 N.3     1  UNL1       -0.2727
      7 C           1.8041    2.1491   29.2138 C.3     1  UNL1        0.0896
      8 C           1.0861    2.8676   28.1101 C.3     1  UNL1        0.0902
      9 C           2.3728    0.3937   30.9595 C.3     1  UNL1        0.0575
     10 C           2.7669    0.9141   32.3101 C.3     1  UNL1        0.0160
     11 C           3.6884   -0.2555   32.4918 C.3     1  UNL1        0.0028
     12 C           3.2943   -0.7759   31.1413 C.3     1  UNL1        0.0160
     13 C          -0.4173    3.0750   24.8821 C.ar    1  UNL1       -0.0004
     14 C          -0.9294    3.9934   23.8123 C.ar    1  UNL1       -0.0010
     15 C          -0.7063    3.6591   22.3671 C.ar    1  UNL1        0.0189
     16 C           0.0288    2.4067   21.9917 C.ar    1  UNL1        0.0846
     17 C           0.5409    1.4884   23.0615 C.ar    1  UNL1        0.0189
     18 C           0.3178    1.8225   24.5066 C.ar    1  UNL1       -0.0010
     19 N           0.2519    2.0726   20.5464 N.ar    1  UNL1       -0.2079
     20 C           0.5750    0.7156   19.9949 C.ar    1  UNL1        0.2016
     21 N           0.7138    0.8411   18.5067 N.ar    1  UNL1       -0.2004
     22 C           0.4764    2.2756   18.1383 C.ar    1  UNL1        0.2214
     23 N           0.1909    3.0367   19.3991 N.ar    1  UNL1       -0.1409
     24 N          -2.8158    4.8840   26.8146 N.ar    1  UNL1       -0.2108
     25 N          -3.0638    6.3081   27.2150 N.ar    1  UNL1       -0.0428
     26 N          -1.7345    6.9895   27.3515 N.ar    1  UNL1       -0.0229
     27 N          -0.6649    5.9865   27.0356 N.ar    1  UNL1       -0.1110
     28 C          -1.3331    4.6852   26.7038 C.ar    1  UNL1        0.1798
     29 C          -3.8659    3.8416   26.5684 C.3     1  UNL1        0.1570
     30 C          -6.4358    4.0642   22.8810 C.ar    1  UNL1       -0.0000
     31 C          -5.1913    3.2267   22.8785 C.ar    1  UNL1       -0.0003
     32 C          -4.3347    3.1525   24.1076 C.ar    1  UNL1       -0.0023
     33 C          -4.7226    3.9158   25.3392 C.ar    1  UNL1        0.0022
     34 C          -5.9670    4.7533   25.3418 C.ar    1  UNL1       -0.0023
     35 C          -6.8236    4.8274   24.1127 C.ar    1  UNL1       -0.0003
@<TRIPOS>BOND
     1    30    31   ar
     2    31    32   ar
     3    32    33   ar
     4    33    29    1
     5    29    24    1
     6    24    25   ar
     7    25    26   ar
     8    26    27   ar
     9    27    28   ar
    10    28     1    1
    11     1    13    1
    12    13    14   ar
    13    14    15   ar
    14    15    16   ar
    15    16    19    1
    16    19    20   ar
    17    20    21   ar
    18    21    22   ar
    19    22    23   ar
    20    16    17   ar
    21    17    18   ar
    22     1     2    1
    23     2     3    1
    24     3     4    1
    25     4     5    1
    26     5     6    1
    27     6     9    1
    28     9    10    1
    29    10    11    1
    30    11    12    1
    31     6     7    1
    32     7     8    1
    33    33    34   ar
    34    34    35   ar
    35    35    30   ar
    36    28    24   ar
    37    18    13   ar
    38     8     2    1
    39    23    19   ar
    40    12     9    1
@<TRIPOS>MOLECULE
*****
 35 40 0 0 0
SMALL
GASTEIGER

@<TRIPOS>ATOM
      1 C           3.0820    1.0287   24.1436 C.3     1  UNL1        0.1412
      2 N           3.0664    0.1346   22.9393 N.3     1  UNL1       -0.2630
      3 C           2.1370    0.5453   21.8358 C.3     1  UNL1        0.0742
      4 C           1.8940   -0.1293   20.5182 C.3     1  UNL1        0.0347
      5 C           2.5202   -1.3809   19.9788 C.3     1  UNL1        0.0735
      6 N           3.5442   -2.2673   20.6236 N.3     1  UNL1       -0.2727
      7 C           4.1948   -2.1209   21.9672 C.3     1  UNL1        0.0896
      8 C           3.9821   -1.0519   22.9978 C.3     1  UNL1        0.0902
      9 C           3.9744   -3.4575   19.8184 C.3     1  UNL1        0.0575
     10 C           3.5528   -4.8950   19.7420 C.3     1  UNL1        0.0160
     11 C           4.5829   -5.1407   18.6796 C.3     1  UNL1        0.0028
     12 C           5.0045   -3.7032   18.7560 C.3     1  UNL1        0.0160
     13 C           1.8410    1.7706   24.5430 C.ar    1  UNL1       -0.0004
     14 C           1.8325    3.2706   24.5473 C.ar    1  UNL1       -0.0010
     15 C           0.5914    4.0124   24.9468 C.ar    1  UNL1        0.0189
     16 C          -0.6411    3.2543   25.3417 C.ar    1  UNL1        0.0846
     17 C          -0.6326    1.7543   25.3373 C.ar    1  UNL1        0.0189
     18 C           0.6083    1.0125   24.9380 C.ar    1  UNL1       -0.0010
     19 N          -1.8822    3.9962   25.7411 N.ar    1  UNL1       -0.2079
     20 C          -2.3370    5.3148   25.1895 C.ar    1  UNL1        0.2016
     21 N          -3.6221    5.6832   25.8697 N.ar    1  UNL1       -0.2004
     22 C          -3.9616    4.5924   26.8416 C.ar    1  UNL1        0.2214
     23 N          -2.8861    3.5497   26.7621 N.ar    1  UNL1       -0.1409
     24 N           4.5724    0.6418   26.3285 N.ar    1  UNL1       -0.2108
     25 N           5.9603    1.0267   26.7475 N.ar    1  UNL1       -0.0428
     26 N           6.5842    1.8039   25.6265 N.ar    1  UNL1       -0.0229
     27 N           5.5819    1.8993   24.5146 N.ar    1  UNL1       -0.1110
     28 C           4.3385    1.1810   24.9484 C.ar    1  UNL1        0.1798
     29 C           3.5908   -0.1444   27.1460 C.3     1  UNL1        0.1570
     30 C           0.2848    1.9755   29.3430 C.ar    1  UNL1       -0.0000
     31 C           0.2473    0.4838   29.1896 C.ar    1  UNL1       -0.0003
     32 C           1.3493   -0.2228   28.4573 C.ar    1  UNL1       -0.0023
     33 C           2.4887    0.5622   27.8783 C.ar    1  UNL1        0.0022
     34 C           2.5263    2.0539   28.0317 C.ar    1  UNL1       -0.0023
     35 C           1.4243    2.7605   28.7640 C.ar    1  UNL1       -0.0003
@<TRIPOS>BOND
     1    30    31   ar
     2    31    32   ar
     3    32    33   ar
     4    33    29    1
     5    29    24    1
     6    24    25   ar
     7    25    26   ar
     8    26    27   ar
     9    27    28   ar
    10    28     1    1
    11     1    13    1
    12    13    14   ar
    13    14    15   ar
    14    15    16   ar
    15    16    19    1
    16    19    20   ar
    17    20    21   ar
    18    21    22   ar
    19    22    23   ar
    20    16    17   ar
    21    17    18   ar
    22     1     2    1
    23     2     3    1
    24     3     4    1
    25     4     5    1
    26     5     6    1
    27     6     9    1
    28     9    10    1
    29    10    11    1
    30    11    12    1
    31     6     7    1
    32     7     8    1
    33    33    34   ar
    34    34    35   ar
    35    35    30   ar
    36    28    24   ar
    37    18    13   ar
    38     8     2    1
    39    23    19   ar
    40    12     9    1
@<TRIPOS>MOLECULE
*****
 35 40 0 0 0
SMALL
GASTEIGER

@<TRIPOS>ATOM
      1 C           2.9764    0.2773   22.6721 C.3     1  UNL1        0.1412
      2 N           2.9521    1.2176   23.8406 N.3     1  UNL1       -0.2630
      3 C           3.5378    2.5765   23.5946 C.3     1  UNL1        0.0742
      4 C           3.6614    3.7281   24.5479 C.3     1  UNL1        0.0347
      5 C           3.2298    3.8051   25.9823 C.3     1  UNL1        0.0735
      6 N           2.5681    2.7497   26.8180 N.3     1  UNL1       -0.2727
      7 C           2.1745    1.3565   26.4254 C.3     1  UNL1        0.0896
      8 C           2.3454    0.6747   25.1003 C.3     1  UNL1        0.0902
      9 C           2.2591    3.1390   28.2332 C.3     1  UNL1        0.0575
     10 C           1.1304    2.8719   29.1845 C.3     1  UNL1        0.0160
     11 C           1.8221    3.6894   30.2347 C.3     1  UNL1        0.0028
     12 C           2.9508    3.9566   29.2836 C.3     1  UNL1        0.0160
     13 C           4.0557   -0.7589   22.5655 C.ar    1  UNL1       -0.0004
     14 C           5.4661   -0.3449   22.2666 C.ar    1  UNL1       -0.0010
     15 C           6.5453   -1.3813   22.1600 C.ar    1  UNL1        0.0189
     16 C           6.2141   -2.8315   22.3525 C.ar    1  UNL1        0.0846
     17 C           4.8038   -3.2455   22.6515 C.ar    1  UNL1        0.0189
     18 C           3.7245   -2.2092   22.7580 C.ar    1  UNL1       -0.0010
     19 N           7.2935   -3.8678   22.2460 N.ar    1  UNL1       -0.2079
     20 C           8.4059   -3.8819   21.2398 C.ar    1  UNL1        0.2016
     21 N           9.2497   -5.0947   21.4989 N.ar    1  UNL1       -0.2004
     22 C           8.6588   -5.8301   22.6651 C.ar    1  UNL1        0.2214
     23 N           7.4497   -5.0717   23.1268 N.ar    1  UNL1       -0.1409
     24 N           2.1449    0.2519   20.1318 N.ar    1  UNL1       -0.2108
     25 N           0.8193    0.4113   19.4480 N.ar    1  UNL1       -0.0428
     26 N          -0.2233    0.6312   20.5037 N.ar    1  UNL1       -0.0229
     27 N           0.4578    0.6078   21.8400 N.ar    1  UNL1       -0.1110
     28 C           1.9215    0.3734   21.6101 C.ar    1  UNL1        0.1798
     29 C           3.4625    0.0131   19.4559 C.3     1  UNL1        0.1570
     30 C           4.8729   -4.1926   18.6985 C.ar    1  UNL1       -0.0000
     31 C           3.4748   -3.9461   19.1829 C.ar    1  UNL1       -0.0003
     32 C           3.0047   -2.5443   19.4353 C.ar    1  UNL1       -0.0023
     33 C           3.9326   -1.3889   19.2035 C.ar    1  UNL1        0.0022
     34 C           5.3308   -1.6352   18.7191 C.ar    1  UNL1       -0.0023
     35 C           5.8008   -3.0371   18.4667 C.ar    1  UNL1       -0.0003
@<TRIPOS>BOND
     1    30    31   ar
     2    31    32   ar
     3    32    33   ar
     4    33    29    1
     5    29    24    1
     6    24    25   ar
     7    25    26   ar
     8    26    27   ar
     9    27    28   ar
    10    28     1    1
    11     1    13    1
    12    13    14   ar
    13    14    15   ar
    14    15    16   ar
    15    16    19    1
    16    19    20   ar
    17    20    21   ar
    18    21    22   ar
    19    22    23   ar
    20    16    17   ar
    21    17    18   ar
    22     1     2    1
    23     2     3    1
    24     3     4    1
    25     4     5    1
    26     5     6    1
    27     6     9    1
    28     9    10    1
    29    10    11    1
    30    11    12    1
    31     6     7    1
    32     7     8    1
    33    33    34   ar
    34    34    35   ar
    35    35    30   ar
    36    28    24   ar
    37    18    13   ar
    38     8     2    1
    39    23    19   ar
    40    12     9    1
@<TRIPOS>MOLECULE
*****
 35 40 0 0 0
SMALL
GASTEIGER

@<TRIPOS>ATOM
      1 C           0.6174    2.8775   20.6604 C.3     1  UNL1        0.1412
      2 N          -0.6401    3.2324   19.9237 N.3     1  UNL1       -0.2630
      3 C          -0.4708    3.5685   18.4716 C.3     1  UNL1        0.0742
      4 C          -1.5203    3.9595   17.4737 C.3     1  UNL1        0.0347
      5 C          -2.9980    4.1109   17.6813 C.3     1  UNL1        0.0735
      6 N          -3.7915    3.9088   18.9382 N.3     1  UNL1       -0.2727
      7 C          -3.3030    3.5053   20.2978 C.3     1  UNL1        0.0896
      8 C          -1.9005    3.2043   20.7363 C.3     1  UNL1        0.0902
      9 C          -5.2686    4.1408   18.8197 C.3     1  UNL1        0.0575
     10 C          -6.4520    3.9216   19.7152 C.3     1  UNL1        0.0160
     11 C          -7.3578    4.4690   18.6523 C.3     1  UNL1        0.0028
     12 C          -6.1745    4.6883   17.7568 C.3     1  UNL1        0.0160
     13 C           1.4291    1.6915   20.2307 C.ar    1  UNL1       -0.0004
     14 C           2.5931    1.8757   19.3028 C.ar    1  UNL1       -0.0010
     15 C           3.4048    0.6896   18.8732 C.ar    1  UNL1        0.0189
     16 C           3.0523   -0.6806   19.3714 C.ar    1  UNL1        0.0846
     17 C           1.8882   -0.8648   20.2993 C.ar    1  UNL1        0.0189
     18 C           1.0766    0.3212   20.7290 C.ar    1  UNL1       -0.0010
     19 N           3.8640   -1.8666   18.9417 N.ar    1  UNL1       -0.2079
     20 C           5.1109   -1.8267   18.1088 C.ar    1  UNL1        0.2016
     21 N           5.5887   -3.2361   17.9219 N.ar    1  UNL1       -0.2004
     22 C           4.6373   -4.1472   18.6392 C.ar    1  UNL1        0.2214
     23 N           3.5713   -3.3007   19.2695 N.ar    1  UNL1       -0.1409
     24 N           0.8301    3.3932   23.2746 N.ar    1  UNL1       -0.2108
     25 N           1.4433    4.4908   24.0927 N.ar    1  UNL1       -0.0428
     26 N           2.0554    5.4845   23.1505 N.ar    1  UNL1       -0.0229
     27 N           1.8206    5.0012   21.7501 N.ar    1  UNL1       -0.1110
     28 C           1.0633    3.7086   21.8267 C.ar    1  UNL1        0.1798
     29 C           0.1102    2.1912   23.8102 C.3     1  UNL1        0.1570
     30 C           0.3541    1.1892   28.1904 C.ar    1  UNL1       -0.0000
     31 C           1.5131    0.8889   27.2866 C.ar    1  UNL1       -0.0003
     32 C           1.4317    1.2229   25.8266 C.ar    1  UNL1       -0.0023
     33 C           0.1915    1.8572   25.2703 C.ar    1  UNL1        0.0022
     34 C          -0.9674    2.1575   26.1740 C.ar    1  UNL1       -0.0023
     35 C          -0.8860    1.8235   27.6341 C.ar    1  UNL1       -0.0003
@<TRIPOS>BOND
     1    30    31   ar
     2    31    32   ar
     3    32    33   ar
     4    33    29    1
     5    29    24    1
     6    24    25   ar
     7    25    26   ar
     8    26    27   ar
     9    27    28   ar
    10    28     1    1
    11     1    13    1
    12    13    14   ar
    13    14    15   ar
    14    15    16   ar
    15    16    19    1
    16    19    20   ar
    17    20    21   ar
    18    21    22   ar
    19    22    23   ar
    20    16    17   ar
    21    17    18   ar
    22     1     2    1
    23     2     3    1
    24     3     4    1
    25     4     5    1
    26     5     6    1
    27     6     9    1
    28     9    10    1
    29    10    11    1
    30    11    12    1
    31     6     7    1
    32     7     8    1
    33    33    34   ar
    34    34    35   ar
    35    35    30   ar
    36    28    24   ar
    37    18    13   ar
    38     8     2    1
    39    23    19   ar
    40    12     9    1
