@<TRIPOS>MOLECULE
*****
 35 37 0 0 0
SMALL
GASTEIGER

@<TRIPOS>ATOM
      1 C           6.8811   -4.5489   25.6940 C.ar    1  UNL1        0.0505
      2 C           7.7539   -5.7655   25.6027 C.ar    1  UNL1        0.0170
      3 C           8.3312   -6.1769   24.2808 C.ar    1  UNL1        0.0307
      4 C           8.0356   -5.3718   23.0502 C.ar    1  UNL1        0.1402
      5 F           8.6129   -5.7832   21.7282 F       1  UNL1       -0.2044
      6 C           7.1628   -4.1553   23.1415 C.ar    1  UNL1        0.0528
      7 C           6.5855   -3.7439   24.4634 C.ar    1  UNL1        0.0167
      8 C           6.8673   -3.3502   21.9108 C.3     1  UNL1        0.2223
      9 C           8.0906   -2.6348   22.4025 C.3     1  UNL1        0.0607
     10 C           5.7467   -4.3451   21.8464 C.3     1  UNL1        0.1959
     11 O           4.7554   -4.2866   20.7222 O.3     1  UNL1       -0.3357
     12 C           4.8847   -3.2331   19.6623 C.3     1  UNL1        0.2740
     13 C           4.5893   -2.4280   18.4317 C.3     1  UNL1        0.0512
     14 C           6.0054   -2.2381   19.7267 C.2     1  UNL1        0.3217
     15 N           6.1348   -1.1845   18.6668 N.pl3   1  UNL1       -0.2480
     16 N           6.9967   -2.2966   20.8510 N.2     1  UNL1       -0.0692
     17 H           5.4842   -1.1461   17.9290 H       1  UNL1        0.2882
     18 H           6.8703   -0.5315   18.7091 H       1  UNL1        0.2882
     19 C           3.6614   -3.9485   19.1705 C.3     1  UNL1        0.4305
     20 F           2.4381   -4.6639   18.6788 F       1  UNL1       -0.1670
     21 F           4.5249   -5.0390   18.6091 F       1  UNL1       -0.1670
     22 F           2.7981   -2.8579   19.7319 F       1  UNL1       -0.1670
     23 C           7.1723   -3.4639   28.0366 C.2     1  UNL1        0.2684
     24 O           8.6182   -3.2016   27.7354 O.2     1  UNL1       -0.2681
     25 N           6.3038   -4.1375   27.0160 N.am    1  UNL1       -0.2791
     26 H           5.3548   -4.3097   27.2137 H       1  UNL1        0.1552
     27 C           7.4589   -5.2596   30.4227 C.3     1  UNL1        0.0539
     28 C           6.7383   -3.9503   30.5516 C.ar    1  UNL1        0.0822
     29 N           6.1610   -3.5389   31.8735 N.ar    1  UNL1       -0.2361
     30 C           5.4405   -2.2297   32.0024 C.ar    1  UNL1        0.1679
     31 C           5.2972   -1.3318   30.8094 C.ar    1  UNL1        0.1285
     32 N           5.8745   -1.7432   29.4875 N.ar    1  UNL1       -0.2357
     33 C           6.5950   -3.0525   29.3586 C.ar    1  UNL1        0.1483
     34 C           4.8632   -1.8182   33.3244 C.1     1  UNL1        0.1214
     35 N           4.2860   -1.4068   34.6463 N.1     1  UNL1       -0.1892
@<TRIPOS>BOND
     1    27    28    1
     2    28    29   ar
     3    29    30   ar
     4    30    34    1
     5    34    35    3
     6    30    31   ar
     7    31    32   ar
     8    32    33   ar
     9    33    23    1
    10    23    24    2
    11    23    25   am
    12    25     1    1
    13     1     2   ar
    14     2     3   ar
    15     3     4   ar
    16     4     5    1
    17     4     6   ar
    18     6     8    1
    19     8     9    1
    20     8    10    1
    21    10    11    1
    22    11    12    1
    23    12    13    1
    24    12    19    1
    25    19    20    1
    26    19    21    1
    27    19    22    1
    28    12    14    1
    29    14    15    1
    30    14    16    2
    31     6     7   ar
    32    33    28   ar
    33     7     1   ar
    34    16     8    1
    35    25    26    1
    36    15    17    1
    37    15    18    1
@<TRIPOS>MOLECULE
*****
 35 37 0 0 0
SMALL
GASTEIGER

@<TRIPOS>ATOM
      1 C          -0.1452    1.9067   20.2308 C.ar    1  UNL1        0.0505
      2 C           0.4480    2.7048   19.1078 C.ar    1  UNL1        0.0170
      3 C           1.8518    2.4333   18.6545 C.ar    1  UNL1        0.0307
      4 C           2.6625    1.3638   19.3243 C.ar    1  UNL1        0.1402
      5 F           4.0664    1.0922   18.8711 F       1  UNL1       -0.2044
      6 C           2.0694    0.5657   20.4474 C.ar    1  UNL1        0.0528
      7 C           0.6655    0.8372   20.9006 C.ar    1  UNL1        0.0167
      8 C           2.8801   -0.5040   21.1172 C.3     1  UNL1        0.2223
      9 C           2.7093    0.4492   22.2628 C.3     1  UNL1        0.0607
     10 C           2.7694   -1.0857   19.7391 C.3     1  UNL1        0.1959
     11 O           3.4101   -2.4059   19.4285 O.3     1  UNL1       -0.3357
     12 C           4.1615   -3.1445   20.4962 C.3     1  UNL1        0.2740
     13 C           4.9723   -4.2140   21.1661 C.3     1  UNL1        0.0512
     14 C           4.2723   -2.5628   21.8744 C.2     1  UNL1        0.3217
     15 N           5.0236   -3.3013   22.9421 N.pl3   1  UNL1       -0.2480
     16 N           3.6315   -1.2425   22.1849 N.2     1  UNL1       -0.0692
     17 H           5.4442   -4.1678   22.7383 H       1  UNL1        0.2882
     18 H           5.0963   -2.9195   23.8466 H       1  UNL1        0.2882
     19 C           4.3324   -4.0977   19.3506 C.3     1  UNL1        0.4305
     20 F           4.5033   -5.0508   18.2051 F       1  UNL1       -0.1670
     21 F           5.8143   -3.8667   19.3795 F       1  UNL1       -0.1670
     22 F           2.8506   -4.3286   19.3218 F       1  UNL1       -0.1670
     23 C          -1.8470    3.3887   21.5184 C.2     1  UNL1        0.2684
     24 O          -0.7410    4.3276   21.8995 O.2     1  UNL1       -0.2681
     25 N          -1.5491    2.1783   20.6840 N.am    1  UNL1       -0.2791
     26 H          -2.2750    1.5621   20.4339 H       1  UNL1        0.1552
     27 C          -2.5043    3.3913   24.4455 C.3     1  UNL1        0.0539
     28 C          -3.5796    3.6615   23.4351 C.ar    1  UNL1        0.0822
     29 N          -4.9834    3.9331   23.8883 N.ar    1  UNL1       -0.2361
     30 C          -6.0586    4.2033   22.8779 C.ar    1  UNL1        0.1679
     31 C          -5.7300    4.2020   21.4144 C.ar    1  UNL1        0.1285
     32 N          -4.3262    3.9305   20.9612 N.ar    1  UNL1       -0.2357
     33 C          -3.2509    3.6602   21.9716 C.ar    1  UNL1        0.1483
     34 C          -7.4626    4.4749   23.3311 C.1     1  UNL1        0.1214
     35 N          -8.8664    4.7464   23.7843 N.1     1  UNL1       -0.1892
@<TRIPOS>BOND
     1    27    28    1
     2    28    29   ar
     3    29    30   ar
     4    30    34    1
     5    34    35    3
     6    30    31   ar
     7    31    32   ar
     8    32    33   ar
     9    33    23    1
    10    23    24    2
    11    23    25   am
    12    25     1    1
    13     1     2   ar
    14     2     3   ar
    15     3     4   ar
    16     4     5    1
    17     4     6   ar
    18     6     8    1
    19     8     9    1
    20     8    10    1
    21    10    11    1
    22    11    12    1
    23    12    13    1
    24    12    19    1
    25    19    20    1
    26    19    21    1
    27    19    22    1
    28    12    14    1
    29    14    15    1
    30    14    16    2
    31     6     7   ar
    32    33    28   ar
    33     7     1   ar
    34    16     8    1
    35    25    26    1
    36    15    17    1
    37    15    18    1
@<TRIPOS>MOLECULE
*****
 35 37 0 0 0
SMALL
GASTEIGER

@<TRIPOS>ATOM
      1 C           2.3624    0.0611   24.5586 C.ar    1  UNL1        0.0505
      2 C           1.1457    0.8902   24.2718 C.ar    1  UNL1        0.0170
      3 C           0.8733    1.3642   22.8750 C.ar    1  UNL1        0.0307
      4 C           1.8176    1.0092   21.7650 C.ar    1  UNL1        0.1402
      5 F           1.5453    1.4832   20.3681 F       1  UNL1       -0.2044
      6 C           3.0344    0.1801   22.0518 C.ar    1  UNL1        0.0528
      7 C           3.3067   -0.2939   23.4486 C.ar    1  UNL1        0.0167
      8 C           3.9787   -0.1749   20.9417 C.3     1  UNL1        0.2223
      9 C           4.2731    1.2899   21.0757 C.3     1  UNL1        0.0607
     10 C           3.3564   -1.5163   21.1932 C.3     1  UNL1        0.1959
     11 O           3.7807   -2.7040   20.3813 O.3     1  UNL1       -0.3357
     12 C           4.8273   -2.5503   19.3177 C.3     1  UNL1        0.2740
     13 C           5.7716   -2.9052   18.2077 C.3     1  UNL1        0.0512
     14 C           5.4496   -1.2089   19.0662 C.2     1  UNL1        0.3217
     15 N           6.4962   -1.0551   18.0028 N.pl3   1  UNL1       -0.2480
     16 N           5.0253   -0.0211   19.8783 N.2     1  UNL1       -0.0692
     17 H           6.7747   -1.8346   17.4698 H       1  UNL1        0.2882
     18 H           6.9046   -0.1746   17.8377 H       1  UNL1        0.2882
     19 C           4.5329   -4.0150   19.1837 C.3     1  UNL1        0.4305
     20 F           4.2386   -5.4798   19.0497 F       1  UNL1       -0.1670
     21 F           3.1463   -3.6931   18.7108 F       1  UNL1       -0.1670
     22 F           5.9195   -4.3369   19.6567 F       1  UNL1       -0.1670
     23 C           2.8087    0.5818   27.0645 C.2     1  UNL1        0.2684
     24 O           2.7105    2.0507   26.7768 O.2     1  UNL1       -0.2681
     25 N           2.6347   -0.4129   25.9555 N.am    1  UNL1       -0.2791
     26 H           2.6992   -1.3770   26.1443 H       1  UNL1        0.1552
     27 C           0.5286   -0.1499   28.8716 C.3     1  UNL1        0.0539
     28 C           1.9410   -0.2580   29.3649 C.ar    1  UNL1        0.0822
     29 N           2.2134   -0.7321   30.7617 N.ar    1  UNL1       -0.2361
     30 C           3.6258   -0.8402   31.2550 C.ar    1  UNL1        0.1679
     31 C           4.7659   -0.4744   30.3515 C.ar    1  UNL1        0.1285
     32 N           4.4935   -0.0004   28.9547 N.ar    1  UNL1       -0.2357
     33 C           3.0811    0.1078   28.4614 C.ar    1  UNL1        0.1483
     34 C           3.8982   -1.3143   32.6518 C.1     1  UNL1        0.1214
     35 N           4.1705   -1.7883   34.0486 N.1     1  UNL1       -0.1892
@<TRIPOS>BOND
     1    27    28    1
     2    28    29   ar
     3    29    30   ar
     4    30    34    1
     5    34    35    3
     6    30    31   ar
     7    31    32   ar
     8    32    33   ar
     9    33    23    1
    10    23    24    2
    11    23    25   am
    12    25     1    1
    13     1     2   ar
    14     2     3   ar
    15     3     4   ar
    16     4     5    1
    17     4     6   ar
    18     6     8    1
    19     8     9    1
    20     8    10    1
    21    10    11    1
    22    11    12    1
    23    12    13    1
    24    12    19    1
    25    19    20    1
    26    19    21    1
    27    19    22    1
    28    12    14    1
    29    14    15    1
    30    14    16    2
    31     6     7   ar
    32    33    28   ar
    33     7     1   ar
    34    16     8    1
    35    25    26    1
    36    15    17    1
    37    15    18    1
@<TRIPOS>MOLECULE
*****
 35 37 0 0 0
SMALL
GASTEIGER

@<TRIPOS>ATOM
      1 C           1.4955    2.6413   18.5779 C.ar    1  UNL1        0.0505
      2 C           2.5657    3.6697   18.3614 C.ar    1  UNL1        0.0170
      3 C           3.9945    3.2428   18.1996 C.ar    1  UNL1        0.0307
      4 C           4.3530    1.7873   18.2544 C.ar    1  UNL1        0.1402
      5 F           5.7819    1.3603   18.0927 F       1  UNL1       -0.2044
      6 C           3.2828    0.7588   18.4709 C.ar    1  UNL1        0.0528
      7 C           1.8540    1.1858   18.6327 C.ar    1  UNL1        0.0167
      8 C           3.6414   -0.6967   18.5257 C.3     1  UNL1        0.2223
      9 C           3.5144   -0.5153   17.0421 C.3     1  UNL1        0.0607
     10 C           3.6439   -0.3725   19.9902 C.3     1  UNL1        0.1959
     11 O           3.9609   -1.4409   20.9943 O.3     1  UNL1       -0.3357
     12 C           4.2754   -2.8334   20.5338 C.3     1  UNL1        0.2740
     13 C           4.6340   -4.2888   20.5885 C.3     1  UNL1        0.0512
     14 C           4.2729   -3.1575   19.0692 C.2     1  UNL1        0.3217
     15 N           4.5874   -4.5500   18.6087 N.pl3   1  UNL1       -0.2480
     16 N           3.9559   -2.0891   18.0651 N.2     1  UNL1       -0.0692
     17 H           4.7954   -5.2512   19.2676 H       1  UNL1        0.2882
     18 H           4.5858   -4.7627   17.6474 H       1  UNL1        0.2882
     19 C           4.4024   -3.0147   22.0174 C.3     1  UNL1        0.4305
     20 F           4.5294   -3.1961   23.5010 F       1  UNL1       -0.1670
     21 F           3.2663   -2.0590   22.2315 F       1  UNL1       -0.1670
     22 F           5.5384   -3.9705   21.8032 F       1  UNL1       -0.1670
     23 C          -0.4584    3.4320   20.0968 C.2     1  UNL1        0.2684
     24 O           0.4453    3.3687   21.2923 O.2     1  UNL1       -0.2681
     25 N           0.0666    3.0683   18.7396 N.am    1  UNL1       -0.2791
     26 H          -0.5265    3.1099   17.9550 H       1  UNL1        0.1552
     27 C          -1.2316    6.2923   19.6266 C.3     1  UNL1        0.0539
     28 C          -2.2738    5.2892   20.0234 C.ar    1  UNL1        0.0822
     29 N          -3.7026    5.7162   20.1852 N.ar    1  UNL1       -0.2361
     30 C          -4.7448    4.7130   20.5820 C.ar    1  UNL1        0.1679
     31 C          -4.3583    3.2829   20.8172 C.ar    1  UNL1        0.1285
     32 N          -2.9295    2.8560   20.6554 N.ar    1  UNL1       -0.2357
     33 C          -1.8873    3.8591   20.2586 C.ar    1  UNL1        0.1483
     34 C          -6.1737    5.1401   20.7438 C.1     1  UNL1        0.1214
     35 N          -7.6025    5.5672   20.9055 N.1     1  UNL1       -0.1892
@<TRIPOS>BOND
     1    27    28    1
     2    28    29   ar
     3    29    30   ar
     4    30    34    1
     5    34    35    3
     6    30    31   ar
     7    31    32   ar
     8    32    33   ar
     9    33    23    1
    10    23    24    2
    11    23    25   am
    12    25     1    1
    13     1     2   ar
    14     2     3   ar
    15     3     4   ar
    16     4     5    1
    17     4     6   ar
    18     6     8    1
    19     8     9    1
    20     8    10    1
    21    10    11    1
    22    11    12    1
    23    12    13    1
    24    12    19    1
    25    19    20    1
    26    19    21    1
    27    19    22    1
    28    12    14    1
    29    14    15    1
    30    14    16    2
    31     6     7   ar
    32    33    28   ar
    33     7     1   ar
    34    16     8    1
    35    25    26    1
    36    15    17    1
    37    15    18    1
@<TRIPOS>MOLECULE
*****
 35 37 0 0 0
SMALL
GASTEIGER

@<TRIPOS>ATOM
      1 C           6.1773   -3.7936   26.0118 C.ar    1  UNL1        0.0505
      2 C           6.9222   -5.0540   26.3382 C.ar    1  UNL1        0.0170
      3 C           7.6661   -5.7860   25.2608 C.ar    1  UNL1        0.0307
      4 C           7.6652   -5.2575   23.8571 C.ar    1  UNL1        0.1402
      5 F           8.4092   -5.9894   22.7796 F       1  UNL1       -0.2044
      6 C           6.9203   -3.9971   23.5307 C.ar    1  UNL1        0.0528
      7 C           6.1764   -3.2651   24.6080 C.ar    1  UNL1        0.0167
      8 C           6.9194   -3.4686   22.1268 C.3     1  UNL1        0.2223
      9 C           8.2166   -2.8982   22.6190 C.3     1  UNL1        0.0607
     10 C           5.6227   -4.2225   22.1221 C.3     1  UNL1        0.1959
     11 O           4.7755   -4.2498   20.8846 O.3     1  UNL1       -0.3357
     12 C           5.2251   -3.5233   19.6517 C.3     1  UNL1        0.2740
     13 C           5.2243   -2.9948   18.2479 C.3     1  UNL1        0.0512
     14 C           6.5219   -2.7694   19.6563 C.2     1  UNL1        0.3217
     15 N           6.9715   -2.0428   18.4235 N.pl3   1  UNL1       -0.2480
     16 N           7.3691   -2.7420   20.8940 N.2     1  UNL1       -0.0692
     17 H           6.4155   -2.0607   17.6113 H       1  UNL1        0.2882
     18 H           7.8227   -1.5480   18.4267 H       1  UNL1        0.2882
     19 C           3.9280   -4.0936   19.1594 C.3     1  UNL1        0.4305
     20 F           2.6309   -4.6640   18.6672 F       1  UNL1       -0.1670
     21 F           4.6609   -5.2762   18.5986 F       1  UNL1       -0.1670
     22 F           3.1953   -2.9111   19.7203 F       1  UNL1       -0.1670
     23 C           6.1028   -1.9486   27.8395 C.2     1  UNL1        0.2684
     24 O           7.5162   -1.5674   27.5123 O.2     1  UNL1       -0.2681
     25 N           5.4334   -3.0617   27.0893 N.am    1  UNL1       -0.2791
     26 H           4.5057   -3.3119   27.3040 H       1  UNL1        0.1552
     27 C           4.3856    0.4098   27.1401 C.3     1  UNL1        0.0539
     28 C           4.5003   -0.0375   28.5673 C.ar    1  UNL1        0.0822
     29 N           3.7564    0.6944   29.6447 N.ar    1  UNL1       -0.2361
     30 C           3.8711    0.2471   31.0719 C.ar    1  UNL1        0.1679
     31 C           4.7296   -0.9321   31.4216 C.ar    1  UNL1        0.1285
     32 N           5.4735   -1.6640   30.3442 N.ar    1  UNL1       -0.2357
     33 C           5.3588   -1.2167   28.9170 C.ar    1  UNL1        0.1483
     34 C           3.1271    0.9790   32.1494 C.1     1  UNL1        0.1214
     35 N           2.3832    1.7109   33.2268 N.1     1  UNL1       -0.1892
@<TRIPOS>BOND
     1    27    28    1
     2    28    29   ar
     3    29    30   ar
     4    30    34    1
     5    34    35    3
     6    30    31   ar
     7    31    32   ar
     8    32    33   ar
     9    33    23    1
    10    23    24    2
    11    23    25   am
    12    25     1    1
    13     1     2   ar
    14     2     3   ar
    15     3     4   ar
    16     4     5    1
    17     4     6   ar
    18     6     8    1
    19     8     9    1
    20     8    10    1
    21    10    11    1
    22    11    12    1
    23    12    13    1
    24    12    19    1
    25    19    20    1
    26    19    21    1
    27    19    22    1
    28    12    14    1
    29    14    15    1
    30    14    16    2
    31     6     7   ar
    32    33    28   ar
    33     7     1   ar
    34    16     8    1
    35    25    26    1
    36    15    17    1
    37    15    18    1
@<TRIPOS>MOLECULE
*****
 35 37 0 0 0
SMALL
GASTEIGER

@<TRIPOS>ATOM
      1 C           0.1630    1.6730   21.4045 C.ar    1  UNL1        0.0505
      2 C           0.5150    1.9637   22.8333 C.ar    1  UNL1        0.0170
      3 C           1.8839    1.6342   23.3504 C.ar    1  UNL1        0.0307
      4 C           2.9008    1.0140   22.4387 C.ar    1  UNL1        0.1402
      5 F           4.2698    0.6844   22.9558 F       1  UNL1       -0.2044
      6 C           2.5487    0.7232   21.0099 C.ar    1  UNL1        0.0528
      7 C           1.1798    1.0528   20.4928 C.ar    1  UNL1        0.0167
      8 C           3.5657    0.1030   20.0982 C.3     1  UNL1        0.2223
      9 C           3.8683    1.5553   19.8763 C.3     1  UNL1        0.0607
     10 C           2.9099   -1.1339   20.6367 C.3     1  UNL1        0.1959
     11 O           3.3761   -2.4866   20.1865 O.3     1  UNL1       -0.3357
     12 C           4.4982   -2.6025   19.1977 C.3     1  UNL1        0.2740
     13 C           5.5151   -3.2227   18.2861 C.3     1  UNL1        0.0512
     14 C           5.1540   -1.3656   18.6592 C.2     1  UNL1        0.3217
     15 N           6.2760   -1.4814   17.6705 N.pl3   1  UNL1       -0.2480
     16 N           4.6877   -0.0128   19.1094 N.2     1  UNL1       -0.0692
     17 H           6.5820   -2.3692   17.3749 H       1  UNL1        0.2882
     18 H           6.7063   -0.6696   17.3170 H       1  UNL1        0.2882
     19 C           4.1955   -4.0548   19.4197 C.3     1  UNL1        0.4305
     20 F           3.8929   -5.5072   19.6416 F       1  UNL1       -0.1670
     21 F           5.5866   -4.2652   19.9400 F       1  UNL1       -0.1670
     22 F           2.8046   -3.8444   18.8993 F       1  UNL1       -0.1670
     23 C          -1.6689    3.4287   20.8460 C.2     1  UNL1        0.2684
     24 O          -0.7628    4.5254   21.3217 O.2     1  UNL1       -0.2681
     25 N          -1.2060    2.0026   20.8874 N.am    1  UNL1       -0.2791
     26 H          -1.8007    1.2828   20.5751 H       1  UNL1        0.1552
     27 C          -3.9940    3.5649   22.7369 C.3     1  UNL1        0.0539
     28 C          -4.2004    3.8264   21.2743 C.ar    1  UNL1        0.0822
     29 N          -5.5693    4.1559   20.7572 N.ar    1  UNL1       -0.2361
     30 C          -5.7757    4.4173   19.2946 C.ar    1  UNL1        0.1679
     31 C          -4.6132    4.3492   18.3492 C.ar    1  UNL1        0.1285
     32 N          -3.2443    4.0197   18.8663 N.ar    1  UNL1       -0.2357
     33 C          -3.0379    3.7583   20.3289 C.ar    1  UNL1        0.1483
     34 C          -7.1447    4.7469   18.7775 C.1     1  UNL1        0.1214
     35 N          -8.5136    5.0764   18.2604 N.1     1  UNL1       -0.1892
@<TRIPOS>BOND
     1    27    28    1
     2    28    29   ar
     3    29    30   ar
     4    30    34    1
     5    34    35    3
     6    30    31   ar
     7    31    32   ar
     8    32    33   ar
     9    33    23    1
    10    23    24    2
    11    23    25   am
    12    25     1    1
    13     1     2   ar
    14     2     3   ar
    15     3     4   ar
    16     4     5    1
    17     4     6   ar
    18     6     8    1
    19     8     9    1
    20     8    10    1
    21    10    11    1
    22    11    12    1
    23    12    13    1
    24    12    19    1
    25    19    20    1
    26    19    21    1
    27    19    22    1
    28    12    14    1
    29    14    15    1
    30    14    16    2
    31     6     7   ar
    32    33    28   ar
    33     7     1   ar
    34    16     8    1
    35    25    26    1
    36    15    17    1
    37    15    18    1
@<TRIPOS>MOLECULE
*****
 35 37 0 0 0
SMALL
GASTEIGER

@<TRIPOS>ATOM
      1 C           0.8450    1.2370   22.4945 C.ar    1  UNL1        0.0505
      2 C          -0.1773    1.9752   21.6822 C.ar    1  UNL1        0.0170
      3 C          -0.0621    2.0136   20.1872 C.ar    1  UNL1        0.0307
      4 C           1.0753    1.3136   19.5044 C.ar    1  UNL1        0.1402
      5 F           1.1905    1.3519   18.0093 F       1  UNL1       -0.2044
      6 C           2.0977    0.5754   20.3167 C.ar    1  UNL1        0.0528
      7 C           1.9825    0.5370   21.8118 C.ar    1  UNL1        0.0167
      8 C           3.2352   -0.1246   19.6339 C.3     1  UNL1        0.2223
      9 C           3.5945    1.3022   19.3422 C.3     1  UNL1        0.0607
     10 C           2.4808   -1.3083   20.1627 C.3     1  UNL1        0.1959
     11 O           2.9886   -2.6964   19.9074 O.3     1  UNL1       -0.3357
     12 C           4.2510   -2.9008   19.1233 C.3     1  UNL1        0.2740
     13 C           5.3884   -3.6007   18.4404 C.3     1  UNL1        0.0512
     14 C           5.0054   -1.7171   18.5944 C.2     1  UNL1        0.3217
     15 N           6.2676   -1.9214   17.8103 N.pl3   1  UNL1       -0.2480
     16 N           4.4974   -0.3289   18.8497 N.2     1  UNL1       -0.0692
     17 H           6.6010   -2.8325   17.6427 H       1  UNL1        0.2882
     18 H           6.7627   -1.1445   17.4633 H       1  UNL1        0.2882
     19 C           3.8916   -4.3276   19.4150 C.3     1  UNL1        0.4305
     20 F           3.5322   -5.7545   19.7066 F       1  UNL1       -0.1670
     21 F           5.1338   -4.4711   20.2435 F       1  UNL1       -0.1670
     22 F           2.6495   -4.1841   18.5864 F       1  UNL1       -0.1670
     23 C           1.6163    2.0667   24.8326 C.2     1  UNL1        0.2684
     24 O           2.6180    2.9731   24.1806 O.2     1  UNL1       -0.2681
     25 N           0.7299    1.1987   23.9896 N.am    1  UNL1       -0.2791
     26 H           0.0724    0.6038   24.4176 H       1  UNL1        0.1552
     27 C           3.2323    0.0930   26.4116 C.3     1  UNL1        0.0539
     28 C           2.3091    1.0416   27.1172 C.ar    1  UNL1        0.0822
     29 N           2.1939    1.0033   28.6122 N.ar    1  UNL1       -0.2361
     30 C           1.2707    1.9519   29.3179 C.ar    1  UNL1        0.1679
     31 C           0.4627    2.9388   28.5284 C.ar    1  UNL1        0.1285
     32 N           0.5779    2.9770   27.0334 N.ar    1  UNL1       -0.2357
     33 C           1.5011    2.0284   26.3278 C.ar    1  UNL1        0.1483
     34 C           1.1555    1.9136   30.8130 C.1     1  UNL1        0.1214
     35 N           1.0403    1.8753   32.3080 N.1     1  UNL1       -0.1892
@<TRIPOS>BOND
     1    27    28    1
     2    28    29   ar
     3    29    30   ar
     4    30    34    1
     5    34    35    3
     6    30    31   ar
     7    31    32   ar
     8    32    33   ar
     9    33    23    1
    10    23    24    2
    11    23    25   am
    12    25     1    1
    13     1     2   ar
    14     2     3   ar
    15     3     4   ar
    16     4     5    1
    17     4     6   ar
    18     6     8    1
    19     8     9    1
    20     8    10    1
    21    10    11    1
    22    11    12    1
    23    12    13    1
    24    12    19    1
    25    19    20    1
    26    19    21    1
    27    19    22    1
    28    12    14    1
    29    14    15    1
    30    14    16    2
    31     6     7   ar
    32    33    28   ar
    33     7     1   ar
    34    16     8    1
    35    25    26    1
    36    15    17    1
    37    15    18    1
@<TRIPOS>MOLECULE
*****
 35 37 0 0 0
SMALL
GASTEIGER

@<TRIPOS>ATOM
      1 C           0.3545    1.8012   20.6662 C.ar    1  UNL1        0.0505
      2 C           0.1669    2.2392   19.2439 C.ar    1  UNL1        0.0170
      3 C           1.1769    1.8584   18.2024 C.ar    1  UNL1        0.0307
      4 C           2.3746    1.0396   18.5832 C.ar    1  UNL1        0.1402
      5 F           3.3848    0.6588   17.5417 F       1  UNL1       -0.2044
      6 C           2.5623    0.6016   20.0055 C.ar    1  UNL1        0.0528
      7 C           1.5522    0.9824   21.0470 C.ar    1  UNL1        0.0167
      8 C           3.7600   -0.2172   20.3863 C.3     1  UNL1        0.2223
      9 C           4.2083    1.1347   20.8571 C.3     1  UNL1        0.0607
     10 C           2.8958   -1.2846   19.7834 C.3     1  UNL1        0.1959
     11 O           3.3850   -2.7014   19.7247 O.3     1  UNL1       -0.3357
     12 C           4.7384   -3.0507   20.2690 C.3     1  UNL1        0.2740
     13 C           5.9362   -3.8695   20.6498 C.3     1  UNL1        0.0512
     14 C           5.6027   -1.9833   20.8719 C.2     1  UNL1        0.3217
     15 N           6.9561   -2.3325   21.4162 N.pl3   1  UNL1       -0.2480
     16 N           5.1135   -0.5664   20.9306 N.2     1  UNL1       -0.0692
     17 H           7.2772   -3.2623   21.3777 H       1  UNL1        0.2882
     18 H           7.5233   -1.6318   21.8119 H       1  UNL1        0.2882
     19 C           4.2901   -4.4026   19.7983 C.3     1  UNL1        0.4305
     20 F           3.8419   -5.7545   19.3276 F       1  UNL1       -0.1670
     21 F           3.8010   -4.7215   21.1800 F       1  UNL1       -0.1670
     22 F           4.7793   -4.0836   18.4166 F       1  UNL1       -0.1670
     23 C          -0.4383    3.4024   22.5524 C.2     1  UNL1        0.2684
     24 O           0.7891    4.2419   22.3557 O.2     1  UNL1       -0.2681
     25 N          -0.6556    2.1821   21.7077 N.am    1  UNL1       -0.2791
     26 H          -1.4612    1.6311   21.8369 H       1  UNL1        0.1552
     27 C          -0.4342    2.0285   25.2193 C.3     1  UNL1        0.0539
     28 C          -1.4464    3.0963   24.9273 C.ar    1  UNL1        0.0822
     29 N          -2.4565    3.4772   25.9688 N.ar    1  UNL1       -0.2361
     30 C          -3.4686    4.5450   25.6768 C.ar    1  UNL1        0.1679
     31 C          -3.4707    5.2320   24.3434 C.ar    1  UNL1        0.1285
     32 N          -2.4606    4.8511   23.3019 N.ar    1  UNL1       -0.2357
     33 C          -1.4484    3.7833   23.5939 C.ar    1  UNL1        0.1483
     34 C          -4.4788    4.9258   26.7183 C.1     1  UNL1        0.1214
     35 N          -5.4889    5.3066   27.7597 N.1     1  UNL1       -0.1892
@<TRIPOS>BOND
     1    27    28    1
     2    28    29   ar
     3    29    30   ar
     4    30    34    1
     5    34    35    3
     6    30    31   ar
     7    31    32   ar
     8    32    33   ar
     9    33    23    1
    10    23    24    2
    11    23    25   am
    12    25     1    1
    13     1     2   ar
    14     2     3   ar
    15     3     4   ar
    16     4     5    1
    17     4     6   ar
    18     6     8    1
    19     8     9    1
    20     8    10    1
    21    10    11    1
    22    11    12    1
    23    12    13    1
    24    12    19    1
    25    19    20    1
    26    19    21    1
    27    19    22    1
    28    12    14    1
    29    14    15    1
    30    14    16    2
    31     6     7   ar
    32    33    28   ar
    33     7     1   ar
    34    16     8    1
    35    25    26    1
    36    15    17    1
    37    15    18    1
@<TRIPOS>MOLECULE
*****
 35 37 0 0 0
SMALL
GASTEIGER

@<TRIPOS>ATOM
      1 C           3.1691    0.5899   31.6206 C.ar    1  UNL1        0.0505
      2 C           3.5671   -0.8508   31.7473 C.ar    1  UNL1        0.0170
      3 C           4.2249   -1.3395   33.0037 C.ar    1  UNL1        0.0307
      4 C           4.4848   -0.3875   34.1333 C.ar    1  UNL1        0.1402
      5 F           5.1426   -0.8761   35.3897 F       1  UNL1       -0.2044
      6 C           4.0868    1.0532   34.0066 C.ar    1  UNL1        0.0528
      7 C           3.4289    1.5419   32.7503 C.ar    1  UNL1        0.0167
      8 C           4.3466    2.0052   35.1363 C.3     1  UNL1        0.2223
      9 C           5.6490    2.1130   34.4000 C.3     1  UNL1        0.0607
     10 C           2.9540    1.5668   35.4803 C.3     1  UNL1        0.1959
     11 O           2.2736    2.1178   36.6982 O.3     1  UNL1       -0.3357
     12 C           2.9858    3.1073   37.5722 C.3     1  UNL1        0.2740
     13 C           3.2457    4.0593   38.7018 C.3     1  UNL1        0.0512
     14 C           4.3784    3.5457   37.2282 C.2     1  UNL1        0.3217
     15 N           5.0906    4.5351   38.1021 N.pl3   1  UNL1       -0.2480
     16 N           5.0589    2.9947   36.0102 N.2     1  UNL1       -0.0692
     17 H           4.6441    4.8968   38.9015 H       1  UNL1        0.2882
     18 H           6.0047    4.8228   37.8763 H       1  UNL1        0.2882
     19 C           1.6834    2.9995   38.3085 C.3     1  UNL1        0.4305
     20 F           0.3809    2.8917   39.0449 F       1  UNL1       -0.1670
     21 F           1.0634    3.9776   37.3552 F       1  UNL1       -0.1670
     22 F           2.3034    2.0213   39.2618 F       1  UNL1       -0.1670
     23 C           1.1008    1.5873   30.4052 C.2     1  UNL1        0.2684
     24 O           0.3481    1.6075   31.7026 O.2     1  UNL1       -0.2681
     25 N           2.5112    1.0785   30.3642 N.am    1  UNL1       -0.2791
     26 H           3.0052    1.0653   29.5127 H       1  UNL1        0.1552
     27 C          -0.6264   -0.2657   28.7979 C.3     1  UNL1        0.0539
     28 C          -0.4206    1.1495   28.3452 C.ar    1  UNL1        0.0822
     29 N          -1.0785    1.6381   27.0889 N.ar    1  UNL1       -0.2361
     30 C          -0.8727    3.0533   26.6361 C.ar    1  UNL1        0.1679
     31 C          -0.0092    3.9798   27.4397 C.ar    1  UNL1        0.1285
     32 N           0.6486    3.4911   28.6960 N.ar    1  UNL1       -0.2357
     33 C           0.4429    2.0760   29.1488 C.ar    1  UNL1        0.1483
     34 C          -1.5306    3.5419   25.3797 C.1     1  UNL1        0.1214
     35 N          -2.1885    4.0306   24.1234 N.1     1  UNL1       -0.1892
@<TRIPOS>BOND
     1    27    28    1
     2    28    29   ar
     3    29    30   ar
     4    30    34    1
     5    34    35    3
     6    30    31   ar
     7    31    32   ar
     8    32    33   ar
     9    33    23    1
    10    23    24    2
    11    23    25   am
    12    25     1    1
    13     1     2   ar
    14     2     3   ar
    15     3     4   ar
    16     4     5    1
    17     4     6   ar
    18     6     8    1
    19     8     9    1
    20     8    10    1
    21    10    11    1
    22    11    12    1
    23    12    13    1
    24    12    19    1
    25    19    20    1
    26    19    21    1
    27    19    22    1
    28    12    14    1
    29    14    15    1
    30    14    16    2
    31     6     7   ar
    32    33    28   ar
    33     7     1   ar
    34    16     8    1
    35    25    26    1
    36    15    17    1
    37    15    18    1
