@<TRIPOS>MOLECULE
*****
 40 43 0 0 0
SMALL
GASTEIGER

@<TRIPOS>ATOM
      1 O          -6.8548  -18.2925   20.2697 O.2     1  UNL1       -0.2730
      2 C          -6.6202  -19.0294   21.5550 C.2     1  UNL1        0.2445
      3 N          -7.3178  -18.5916   22.8086 N.am    1  UNL1       -0.1924
      4 H          -7.1639  -19.0752   23.6522 H       1  UNL1        0.1825
      5 C          -5.6880  -20.2042   21.5866 C.3     1  UNL1        0.0871
      6 C          -5.1993  -20.8086   20.3037 C.3     1  UNL1        0.0096
      7 C          -3.8299  -20.4744   19.7911 C.3     1  UNL1        0.0005
      8 C          -3.5277  -19.0866   19.3083 C.3     1  UNL1        0.0005
      9 C          -2.1416  -18.5300   19.4453 C.3     1  UNL1        0.0096
     10 C          -1.5468  -18.3254   20.8070 C.3     1  UNL1        0.0854
     11 C          -2.2570  -17.4713   21.8151 C.2     1  UNL1        0.2261
     12 O          -1.9800  -15.9984   21.8783 O.2     1  UNL1       -0.2748
     13 N          -3.2443  -18.0900   22.7598 N.am    1  UNL1       -0.2839
     14 H          -3.4261  -19.0566   22.7183 H       1  UNL1        0.1549
     15 C          -3.9545  -17.2358   23.7678 C.ar    1  UNL1        0.0503
     16 C          -3.7958  -17.5158   25.2329 C.ar    1  UNL1        0.0147
     17 C          -4.5060  -16.6616   26.2408 C.ar    1  UNL1        0.0013
     18 C          -5.3749  -15.5276   25.7837 C.ar    1  UNL1        0.0001
     19 C          -5.5336  -15.2476   24.3187 C.ar    1  UNL1        0.0013
     20 C          -4.8234  -16.1018   23.3107 C.ar    1  UNL1        0.0147
     21 O          -8.2501  -17.4168   22.7770 O.3     1  UNL1       -0.2589
     22 C          -9.6741  -17.5772   23.2199 C.3     1  UNL1        0.1732
     23 C         -10.0275  -18.1461   21.8778 C.ar    1  UNL1        0.0120
     24 C         -10.2580  -17.2306   20.7122 C.ar    1  UNL1       -0.0013
     25 C         -10.6114  -17.7995   19.3700 C.ar    1  UNL1       -0.0002
     26 C         -10.7342  -19.2840   19.1934 C.ar    1  UNL1       -0.0000
     27 C         -10.5037  -20.1996   20.3590 C.ar    1  UNL1       -0.0002
     28 C         -10.1503  -19.6307   21.7011 C.ar    1  UNL1       -0.0013
     29 C          -9.3208  -17.0083   24.5621 C.ar    1  UNL1        0.0120
     30 C          -9.1673  -17.9175   25.7452 C.ar    1  UNL1       -0.0013
     31 C          -8.8139  -17.3485   27.0875 C.ar    1  UNL1       -0.0002
     32 C          -8.6140  -15.8705   27.2465 C.ar    1  UNL1       -0.0000
     33 C          -8.7675  -14.9613   26.0633 C.ar    1  UNL1       -0.0002
     34 C          -9.1209  -15.5302   24.7211 C.ar    1  UNL1       -0.0013
     35 C         -11.0982  -17.7377   23.6629 C.ar    1  UNL1        0.0120
     36 C         -12.1685  -16.8647   23.0779 C.ar    1  UNL1       -0.0013
     37 C         -13.5927  -17.0252   23.5208 C.ar    1  UNL1       -0.0002
     38 C         -13.9464  -18.0587   24.5488 C.ar    1  UNL1       -0.0000
     39 C         -12.8761  -18.9317   25.1338 C.ar    1  UNL1       -0.0002
     40 C         -11.4520  -18.7712   24.6909 C.ar    1  UNL1       -0.0013
@<TRIPOS>BOND
     1     1     2    2
     2     2     5    1
     3     5     6    1
     4     6     7    1
     5     7     8    1
     6     8     9    1
     7     9    10    1
     8    10    11    1
     9    11    12    2
    10    11    13   am
    11    13    15    1
    12    15    16   ar
    13    16    17   ar
    14    17    18   ar
    15    18    19   ar
    16    19    20   ar
    17     2     3   am
    18     3    21    1
    19    21    22    1
    20    22    23    1
    21    23    24   ar
    22    24    25   ar
    23    25    26   ar
    24    26    27   ar
    25    27    28   ar
    26    22    29    1
    27    29    30   ar
    28    30    31   ar
    29    31    32   ar
    30    32    33   ar
    31    33    34   ar
    32    22    35    1
    33    35    36   ar
    34    36    37   ar
    35    37    38   ar
    36    38    39   ar
    37    39    40   ar
    38    20    15   ar
    39    28    23   ar
    40    34    29   ar
    41    40    35   ar
    42    13    14    1
    43     3     4    1
@<TRIPOS>MOLECULE
*****
 40 43 0 0 0
SMALL
GASTEIGER

@<TRIPOS>ATOM
      1 O          -6.9459  -18.3617   20.2265 O.2     1  UNL1       -0.2730
      2 C          -6.6611  -19.0567   21.5249 C.2     1  UNL1        0.2445
      3 N          -7.3188  -18.5853   22.7879 N.am    1  UNL1       -0.1924
      4 H          -7.1319  -19.0414   23.6401 H       1  UNL1        0.1825
      5 C          -5.7185  -20.2230   21.5603 C.3     1  UNL1        0.0871
      6 C          -5.2106  -20.8160   20.2796 C.3     1  UNL1        0.0096
      7 C          -3.8351  -20.4743   19.7886 C.3     1  UNL1        0.0005
      8 C          -3.5332  -19.0852   19.3095 C.3     1  UNL1        0.0005
      9 C          -2.1458  -18.5310   19.4425 C.3     1  UNL1        0.0096
     10 C          -1.5455  -18.3304   20.8024 C.3     1  UNL1        0.0854
     11 C          -2.2503  -17.4772   21.8150 C.2     1  UNL1        0.2261
     12 O          -1.9493  -16.0101   21.8992 O.2     1  UNL1       -0.2748
     13 N          -3.2560  -18.0910   22.7432 N.am    1  UNL1       -0.2839
     14 H          -3.4535  -19.0539   22.6879 H       1  UNL1        0.1549
     15 C          -3.9608  -17.2377   23.7558 C.ar    1  UNL1        0.0503
     16 C          -4.8405  -16.1099   23.3042 C.ar    1  UNL1        0.0147
     17 C          -5.5453  -15.2567   24.3167 C.ar    1  UNL1        0.0013
     18 C          -5.3703  -15.5313   25.7810 C.ar    1  UNL1        0.0001
     19 C          -4.4905  -16.6592   26.2326 C.ar    1  UNL1        0.0013
     20 C          -3.7858  -17.5123   25.2200 C.ar    1  UNL1        0.0147
     21 O          -8.2614  -17.4189   22.7525 O.3     1  UNL1       -0.2589
     22 C          -9.6825  -17.5891   23.2013 C.3     1  UNL1        0.1732
     23 C          -9.3279  -17.0157   24.5412 C.ar    1  UNL1        0.0120
     24 C          -9.1570  -17.9226   25.7237 C.ar    1  UNL1       -0.0013
     25 C          -8.8024  -17.3490   27.0637 C.ar    1  UNL1       -0.0002
     26 C          -8.6188  -15.8687   27.2211 C.ar    1  UNL1       -0.0000
     27 C          -8.7898  -14.9618   26.0386 C.ar    1  UNL1       -0.0002
     28 C          -9.1443  -15.5353   24.6987 C.ar    1  UNL1       -0.0013
     29 C         -10.0370  -18.1626   21.8614 C.ar    1  UNL1        0.0120
     30 C         -10.2552  -17.2518   20.6897 C.ar    1  UNL1       -0.0013
     31 C         -10.6098  -17.8253   19.3498 C.ar    1  UNL1       -0.0002
     32 C         -10.7462  -19.3096   19.1816 C.ar    1  UNL1       -0.0000
     33 C         -10.5280  -20.2204   20.3533 C.ar    1  UNL1       -0.0002
     34 C         -10.1735  -19.6469   21.6932 C.ar    1  UNL1       -0.0013
     35 C         -11.1036  -17.7594   23.6502 C.ar    1  UNL1        0.0120
     36 C         -12.1887  -16.9244   23.0376 C.ar    1  UNL1       -0.0013
     37 C         -13.6099  -17.0947   23.4866 C.ar    1  UNL1       -0.0002
     38 C         -13.9458  -18.0999   24.5480 C.ar    1  UNL1       -0.0000
     39 C         -12.8606  -18.9348   25.1606 C.ar    1  UNL1       -0.0002
     40 C         -11.4395  -18.7646   24.7118 C.ar    1  UNL1       -0.0013
@<TRIPOS>BOND
     1     1     2    2
     2     2     5    1
     3     5     6    1
     4     6     7    1
     5     7     8    1
     6     8     9    1
     7     9    10    1
     8    10    11    1
     9    11    12    2
    10    11    13   am
    11    13    15    1
    12    15    16   ar
    13    16    17   ar
    14    17    18   ar
    15    18    19   ar
    16    19    20   ar
    17     2     3   am
    18     3    21    1
    19    21    22    1
    20    22    23    1
    21    23    24   ar
    22    24    25   ar
    23    25    26   ar
    24    26    27   ar
    25    27    28   ar
    26    22    29    1
    27    29    30   ar
    28    30    31   ar
    29    31    32   ar
    30    32    33   ar
    31    33    34   ar
    32    22    35    1
    33    35    36   ar
    34    36    37   ar
    35    37    38   ar
    36    38    39   ar
    37    39    40   ar
    38    20    15   ar
    39    28    23   ar
    40    34    29   ar
    41    40    35   ar
    42    13    14    1
    43     3     4    1
@<TRIPOS>MOLECULE
*****
 40 43 0 0 0
SMALL
GASTEIGER

@<TRIPOS>ATOM
      1 O           2.1325    2.6847   22.5484 O.2     1  UNL1       -0.2730
      2 C           1.7245    1.4541   23.3028 C.2     1  UNL1        0.2445
      3 N           2.6069    0.2411   23.2926 N.am    1  UNL1       -0.1924
      4 H           2.3391   -0.5666   23.7877 H       1  UNL1        0.1825
      5 C           0.4341    1.4364   24.0675 C.3     1  UNL1        0.0871
      6 C           0.4512    1.3984   25.5669 C.3     1  UNL1        0.0096
      7 C          -0.6447    2.0623   26.3465 C.3     1  UNL1        0.0005
      8 C          -0.8577    1.7111   27.7892 C.3     1  UNL1        0.0005
      9 C          -0.8867    0.2730   28.2146 C.3     1  UNL1        0.0096
     10 C           0.2214   -0.2816   29.0599 C.3     1  UNL1        0.0854
     11 C           1.6509   -0.0189   28.6890 C.2     1  UNL1        0.2261
     12 O           2.3791    1.1475   29.2886 O.2     1  UNL1       -0.2748
     13 N           2.3523   -0.9225   27.7188 N.am    1  UNL1       -0.2839
     14 H           1.8744   -1.6880   27.3253 H       1  UNL1        0.1549
     15 C           3.7819   -0.6598   27.3480 C.ar    1  UNL1        0.0503
     16 C           4.1059    0.3095   26.2500 C.ar    1  UNL1        0.0147
     17 C           5.5354    0.5721   25.8793 C.ar    1  UNL1        0.0013
     18 C           6.6408   -0.1345   26.6064 C.ar    1  UNL1        0.0001
     19 C           6.3168   -1.1037   27.7044 C.ar    1  UNL1        0.0013
     20 C           4.8873   -1.3664   28.0751 C.ar    1  UNL1        0.0147
     21 O           3.8973    0.2588   22.5279 O.3     1  UNL1       -0.2589
     22 C           4.1798   -0.8050   21.5089 C.3     1  UNL1        0.1732
     23 C           3.2214   -0.1498   20.5592 C.ar    1  UNL1        0.0120
     24 C           1.8582   -0.7377   20.3447 C.ar    1  UNL1       -0.0013
     25 C           0.8998   -0.0824   19.3948 C.ar    1  UNL1       -0.0002
     26 C           1.3046    1.1607   18.6596 C.ar    1  UNL1       -0.0000
     27 C           2.6678    1.7486   18.8740 C.ar    1  UNL1       -0.0002
     28 C           3.6262    1.0934   19.8238 C.ar    1  UNL1       -0.0013
     29 C           5.1382   -1.4603   22.4587 C.ar    1  UNL1        0.0120
     30 C           6.6070   -1.1727   22.3594 C.ar    1  UNL1       -0.0013
     31 C           7.5655   -1.8279   23.3093 C.ar    1  UNL1       -0.0002
     32 C           7.0550   -2.7708   24.3583 C.ar    1  UNL1       -0.0000
     33 C           5.5862   -3.0583   24.4576 C.ar    1  UNL1       -0.0002
     34 C           4.6278   -2.4031   23.5078 C.ar    1  UNL1       -0.0013
     35 C           4.4624   -1.8688   20.4899 C.ar    1  UNL1        0.0120
     36 C           3.9081   -3.2504   20.6745 C.ar    1  UNL1       -0.0013
     37 C           4.1907   -4.3142   19.6554 C.ar    1  UNL1       -0.0002
     38 C           5.0275   -3.9965   18.4518 C.ar    1  UNL1       -0.0000
     39 C           5.5818   -2.6149   18.2672 C.ar    1  UNL1       -0.0002
     40 C           5.2992   -1.5511   19.2862 C.ar    1  UNL1       -0.0013
@<TRIPOS>BOND
     1     1     2    2
     2     2     5    1
     3     5     6    1
     4     6     7    1
     5     7     8    1
     6     8     9    1
     7     9    10    1
     8    10    11    1
     9    11    12    2
    10    11    13   am
    11    13    15    1
    12    15    16   ar
    13    16    17   ar
    14    17    18   ar
    15    18    19   ar
    16    19    20   ar
    17     2     3   am
    18     3    21    1
    19    21    22    1
    20    22    23    1
    21    23    24   ar
    22    24    25   ar
    23    25    26   ar
    24    26    27   ar
    25    27    28   ar
    26    22    29    1
    27    29    30   ar
    28    30    31   ar
    29    31    32   ar
    30    32    33   ar
    31    33    34   ar
    32    22    35    1
    33    35    36   ar
    34    36    37   ar
    35    37    38   ar
    36    38    39   ar
    37    39    40   ar
    38    20    15   ar
    39    28    23   ar
    40    34    29   ar
    41    40    35   ar
    42    13    14    1
    43     3     4    1
@<TRIPOS>MOLECULE
*****
 40 43 0 0 0
SMALL
GASTEIGER

@<TRIPOS>ATOM
      1 O           2.2602    2.6665   22.5899 O.2     1  UNL1       -0.2730
      2 C           1.7830    1.4343   23.2998 C.2     1  UNL1        0.2445
      3 N           2.6194    0.1893   23.2858 N.am    1  UNL1       -0.1924
      4 H           2.3062   -0.6195   23.7518 H       1  UNL1        0.1825
      5 C           0.4692    1.4471   24.0237 C.3     1  UNL1        0.0871
      6 C           0.4366    1.3511   25.5203 C.3     1  UNL1        0.0096
      7 C          -0.6584    2.0265   26.2914 C.3     1  UNL1        0.0005
      8 C          -0.8705    1.6956   27.7391 C.3     1  UNL1        0.0005
      9 C          -0.8882    0.2640   28.1864 C.3     1  UNL1        0.0096
     10 C           0.2236   -0.2685   29.0410 C.3     1  UNL1        0.0854
     11 C           1.6513    0.0005   28.6678 C.2     1  UNL1        0.2261
     12 O           2.3712    1.1778   29.2558 O.2     1  UNL1       -0.2748
     13 N           2.3591   -0.9078   27.7065 N.am    1  UNL1       -0.2839
     14 H           1.8866   -1.6804   27.3206 H       1  UNL1        0.1549
     15 C           3.7868   -0.6388   27.3332 C.ar    1  UNL1        0.0503
     16 C           4.1049    0.3339   26.2365 C.ar    1  UNL1        0.0147
     17 C           5.5325    0.6028   25.8633 C.ar    1  UNL1        0.0013
     18 C           6.6422   -0.1009   26.5868 C.ar    1  UNL1        0.0001
     19 C           6.3242   -1.0736   27.6835 C.ar    1  UNL1        0.0013
     20 C           4.8965   -1.3425   28.0567 C.ar    1  UNL1        0.0147
     21 O           3.9331    0.1764   22.5619 O.3     1  UNL1       -0.2589
     22 C           4.2170   -0.8860   21.5417 C.3     1  UNL1        0.1732
     23 C           5.1779   -1.5398   22.4899 C.ar    1  UNL1        0.0120
     24 C           6.6509   -1.2908   22.3552 C.ar    1  UNL1       -0.0013
     25 C           7.6119   -1.9447   23.3034 C.ar    1  UNL1       -0.0002
     26 C           7.0998   -2.8474   24.3864 C.ar    1  UNL1       -0.0000
     27 C           5.6268   -3.0964   24.5211 C.ar    1  UNL1       -0.0002
     28 C           4.6658   -2.4426   23.5729 C.ar    1  UNL1       -0.0013
     29 C           3.2560   -0.2322   20.5936 C.ar    1  UNL1        0.0120
     30 C           1.8916   -0.8195   20.3849 C.ar    1  UNL1       -0.0013
     31 C           0.9306   -0.1656   19.4367 C.ar    1  UNL1       -0.0002
     32 C           1.3341    1.0755   18.6971 C.ar    1  UNL1       -0.0000
     33 C           2.6985    1.6627   18.9058 C.ar    1  UNL1       -0.0002
     34 C           3.6594    1.0090   19.8540 C.ar    1  UNL1       -0.0013
     35 C           4.5008   -1.9484   20.5216 C.ar    1  UNL1        0.0120
     36 C           5.3239   -1.6242   19.3102 C.ar    1  UNL1       -0.0013
     37 C           5.6077   -2.6867   18.2900 C.ar    1  UNL1       -0.0002
     38 C           5.0683   -4.0732   18.4812 C.ar    1  UNL1       -0.0000
     39 C           4.2452   -4.3974   19.6926 C.ar    1  UNL1       -0.0002
     40 C           3.9614   -3.3350   20.7128 C.ar    1  UNL1       -0.0013
@<TRIPOS>BOND
     1     1     2    2
     2     2     5    1
     3     5     6    1
     4     6     7    1
     5     7     8    1
     6     8     9    1
     7     9    10    1
     8    10    11    1
     9    11    12    2
    10    11    13   am
    11    13    15    1
    12    15    16   ar
    13    16    17   ar
    14    17    18   ar
    15    18    19   ar
    16    19    20   ar
    17     2     3   am
    18     3    21    1
    19    21    22    1
    20    22    23    1
    21    23    24   ar
    22    24    25   ar
    23    25    26   ar
    24    26    27   ar
    25    27    28   ar
    26    22    29    1
    27    29    30   ar
    28    30    31   ar
    29    31    32   ar
    30    32    33   ar
    31    33    34   ar
    32    22    35    1
    33    35    36   ar
    34    36    37   ar
    35    37    38   ar
    36    38    39   ar
    37    39    40   ar
    38    20    15   ar
    39    28    23   ar
    40    34    29   ar
    41    40    35   ar
    42    13    14    1
    43     3     4    1
@<TRIPOS>MOLECULE
*****
 40 43 0 0 0
SMALL
GASTEIGER

@<TRIPOS>ATOM
      1 O          -9.4266  -17.5640   25.5447 O.2     1  UNL1       -0.2730
      2 C          -9.2940  -16.2263   24.8792 C.2     1  UNL1        0.2445
      3 N          -9.9792  -15.9687   23.5700 N.am    1  UNL1       -0.1924
      4 H          -9.8922  -15.0907   23.1332 H       1  UNL1        0.1825
      5 C          -8.4761  -15.1462   25.5229 C.3     1  UNL1        0.0871
      6 C          -8.2586  -15.1538   27.0070 C.3     1  UNL1        0.0096
      7 C          -6.9269  -15.5563   27.5678 C.3     1  UNL1        0.0005
      8 C          -5.9607  -16.3322   26.7225 C.3     1  UNL1        0.0005
      9 C          -4.9291  -15.6099   25.9076 C.3     1  UNL1        0.0096
     10 C          -5.1912  -15.3096   24.4616 C.3     1  UNL1        0.0854
     11 C          -5.2382  -16.4256   23.4604 C.2     1  UNL1        0.2261
     12 O          -6.5390  -16.7981   22.8130 O.2     1  UNL1       -0.2748
     13 N          -3.9844  -17.1691   23.1065 N.am    1  UNL1       -0.2839
     14 H          -3.1307  -16.9247   23.5314 H       1  UNL1        0.1549
     15 C          -4.0315  -18.2851   22.1053 C.ar    1  UNL1        0.0503
     16 C          -4.9869  -19.4254   22.2975 C.ar    1  UNL1        0.0147
     17 C          -5.0339  -20.5413   21.2963 C.ar    1  UNL1        0.0013
     18 C          -4.1255  -20.5170   20.1029 C.ar    1  UNL1        0.0001
     19 C          -3.1701  -19.3768   19.9107 C.ar    1  UNL1        0.0013
     20 C          -3.1231  -18.2608   20.9119 C.ar    1  UNL1        0.0147
     21 O         -10.7972  -17.0488   22.9262 O.3     1  UNL1       -0.2589
     22 C         -10.2086  -17.8795   21.8247 C.3     1  UNL1        0.1732
     23 C         -10.4078  -16.7457   20.8631 C.ar    1  UNL1        0.0120
     24 C         -11.5724  -16.7597   19.9179 C.ar    1  UNL1       -0.0013
     25 C         -11.7716  -15.6258   18.9563 C.ar    1  UNL1       -0.0002
     26 C         -10.8063  -14.4778   18.9400 C.ar    1  UNL1       -0.0000
     27 C          -9.6417  -14.4638   19.8853 C.ar    1  UNL1       -0.0002
     28 C          -9.4424  -15.5977   20.8468 C.ar    1  UNL1       -0.0013
     29 C         -10.0094  -19.0134   22.7862 C.ar    1  UNL1        0.0120
     30 C          -8.6869  -19.7184   22.8508 C.ar    1  UNL1       -0.0013
     31 C          -8.4877  -20.8524   23.8124 C.ar    1  UNL1       -0.0002
     32 C          -9.6109  -21.2812   24.7093 C.ar    1  UNL1       -0.0000
     33 C         -10.9333  -20.5762   24.6447 C.ar    1  UNL1       -0.0002
     34 C         -11.1326  -19.4423   23.6832 C.ar    1  UNL1       -0.0013
     35 C          -9.6200  -18.7103   20.7231 C.ar    1  UNL1        0.0120
     36 C         -10.4984  -19.6257   19.9228 C.ar    1  UNL1       -0.0013
     37 C          -9.9098  -20.4564   18.8212 C.ar    1  UNL1       -0.0002
     38 C          -8.4428  -20.3717   18.5199 C.ar    1  UNL1       -0.0000
     39 C          -7.5644  -19.4563   19.3202 C.ar    1  UNL1       -0.0002
     40 C          -8.1530  -18.6256   20.4218 C.ar    1  UNL1       -0.0013
@<TRIPOS>BOND
     1     1     2    2
     2     2     5    1
     3     5     6    1
     4     6     7    1
     5     7     8    1
     6     8     9    1
     7     9    10    1
     8    10    11    1
     9    11    12    2
    10    11    13   am
    11    13    15    1
    12    15    16   ar
    13    16    17   ar
    14    17    18   ar
    15    18    19   ar
    16    19    20   ar
    17     2     3   am
    18     3    21    1
    19    21    22    1
    20    22    23    1
    21    23    24   ar
    22    24    25   ar
    23    25    26   ar
    24    26    27   ar
    25    27    28   ar
    26    22    29    1
    27    29    30   ar
    28    30    31   ar
    29    31    32   ar
    30    32    33   ar
    31    33    34   ar
    32    22    35    1
    33    35    36   ar
    34    36    37   ar
    35    37    38   ar
    36    38    39   ar
    37    39    40   ar
    38    20    15   ar
    39    28    23   ar
    40    34    29   ar
    41    40    35   ar
    42    13    14    1
    43     3     4    1
@<TRIPOS>MOLECULE
*****
 40 43 0 0 0
SMALL
GASTEIGER

@<TRIPOS>ATOM
      1 O          -9.4904  -17.5535   25.5918 O.2     1  UNL1       -0.2730
      2 C          -9.2980  -16.2312   24.9102 C.2     1  UNL1        0.2445
      3 N          -9.9400  -15.9731   23.5793 N.am    1  UNL1       -0.1924
      4 H          -9.8137  -15.1052   23.1320 H       1  UNL1        0.1825
      5 C          -8.4636  -15.1671   25.5595 C.3     1  UNL1        0.0871
      6 C          -8.2312  -15.1961   27.0410 C.3     1  UNL1        0.0096
      7 C          -6.8783  -15.5538   27.5811 C.3     1  UNL1        0.0005
      8 C          -5.9080  -16.3165   26.7284 C.3     1  UNL1        0.0005
      9 C          -4.9066  -15.5795   25.8894 C.3     1  UNL1        0.0096
     10 C          -5.2038  -15.2903   24.4479 C.3     1  UNL1        0.0854
     11 C          -5.2474  -16.4109   23.4516 C.2     1  UNL1        0.2261
     12 O          -6.5491  -16.7980   22.8147 O.2     1  UNL1       -0.2748
     13 N          -3.9893  -17.1443   23.0923 N.am    1  UNL1       -0.2839
     14 H          -3.1349  -16.8903   23.5104 H       1  UNL1        0.1549
     15 C          -4.0328  -18.2649   22.0960 C.ar    1  UNL1        0.0503
     16 C          -4.9889  -19.4043   22.2901 C.ar    1  UNL1        0.0147
     17 C          -5.0324  -20.5247   21.2938 C.ar    1  UNL1        0.0013
     18 C          -4.1198  -20.5059   20.1035 C.ar    1  UNL1        0.0001
     19 C          -3.1637  -19.3665   19.9095 C.ar    1  UNL1        0.0013
     20 C          -3.1202  -18.2460   20.9057 C.ar    1  UNL1        0.0147
     21 O         -10.7744  -17.0372   22.9300 O.3     1  UNL1       -0.2589
     22 C         -10.1976  -17.8730   21.8261 C.3     1  UNL1        0.1732
     23 C         -10.0031  -19.0081   22.7872 C.ar    1  UNL1        0.0120
     24 C         -11.1271  -19.4309   23.6859 C.ar    1  UNL1       -0.0013
     25 C         -10.9325  -20.5661   24.6470 C.ar    1  UNL1       -0.0002
     26 C          -9.6139  -21.2783   24.7094 C.ar    1  UNL1       -0.0000
     27 C          -8.4898  -20.8555   23.8106 C.ar    1  UNL1       -0.0002
     28 C          -8.6844  -19.7204   22.8495 C.ar    1  UNL1       -0.0013
     29 C         -10.3922  -16.7380   20.8650 C.ar    1  UNL1        0.0120
     30 C          -9.4305  -15.5868   20.8593 C.ar    1  UNL1       -0.0013
     31 C          -9.6252  -14.4517   19.8981 C.ar    1  UNL1       -0.0002
     32 C         -10.7814  -14.4678   18.9428 C.ar    1  UNL1       -0.0000
     33 C         -11.7431  -15.6189   18.9485 C.ar    1  UNL1       -0.0002
     34 C         -11.5485  -16.7540   19.9096 C.ar    1  UNL1       -0.0013
     35 C          -9.6209  -18.7089   20.7222 C.ar    1  UNL1        0.0120
     36 C         -10.5077  -19.6287   19.9363 C.ar    1  UNL1       -0.0013
     37 C          -9.9309  -20.4646   18.8323 C.ar    1  UNL1       -0.0002
     38 C          -8.4674  -20.3806   18.5143 C.ar    1  UNL1       -0.0000
     39 C          -7.5807  -19.4608   19.3001 C.ar    1  UNL1       -0.0002
     40 C          -8.1574  -18.6249   20.4041 C.ar    1  UNL1       -0.0013
@<TRIPOS>BOND
     1     1     2    2
     2     2     5    1
     3     5     6    1
     4     6     7    1
     5     7     8    1
     6     8     9    1
     7     9    10    1
     8    10    11    1
     9    11    12    2
    10    11    13   am
    11    13    15    1
    12    15    16   ar
    13    16    17   ar
    14    17    18   ar
    15    18    19   ar
    16    19    20   ar
    17     2     3   am
    18     3    21    1
    19    21    22    1
    20    22    23    1
    21    23    24   ar
    22    24    25   ar
    23    25    26   ar
    24    26    27   ar
    25    27    28   ar
    26    22    29    1
    27    29    30   ar
    28    30    31   ar
    29    31    32   ar
    30    32    33   ar
    31    33    34   ar
    32    22    35    1
    33    35    36   ar
    34    36    37   ar
    35    37    38   ar
    36    38    39   ar
    37    39    40   ar
    38    20    15   ar
    39    28    23   ar
    40    34    29   ar
    41    40    35   ar
    42    13    14    1
    43     3     4    1
@<TRIPOS>MOLECULE
*****
 40 43 0 0 0
SMALL
GASTEIGER

@<TRIPOS>ATOM
      1 O          -0.5156    1.8394   21.5623 O.2     1  UNL1       -0.2730
      2 C           0.5402    1.5752   22.5945 C.2     1  UNL1        0.2445
      3 N           1.6048    0.5513   22.3334 N.am    1  UNL1       -0.1924
      4 H           2.2977    0.3779   23.0108 H       1  UNL1        0.1825
      5 C           0.5314    2.3349   23.8879 C.3     1  UNL1        0.0871
      6 C          -0.6849    2.3079   24.7653 C.3     1  UNL1        0.0096
      7 C          -1.3555    3.5911   25.1573 C.3     1  UNL1        0.0005
      8 C          -2.5962    3.5620   25.9999 C.3     1  UNL1        0.0005
      9 C          -3.8952    4.0605   25.4395 C.3     1  UNL1        0.0096
     10 C          -4.5782    3.3020   24.3404 C.3     1  UNL1        0.0854
     11 C          -4.4804    3.7841   22.9233 C.2     1  UNL1        0.2261
     12 O          -4.4570    5.2553   22.6316 O.2     1  UNL1       -0.2748
     13 N          -4.4062    2.7951   21.7981 N.am    1  UNL1       -0.2839
     14 H          -4.4216    1.8295   21.9895 H       1  UNL1        0.1549
     15 C          -4.3085    3.2773   20.3810 C.ar    1  UNL1        0.0503
     16 C          -2.9771    3.6696   19.8124 C.ar    1  UNL1        0.0147
     17 C          -2.8794    4.1517   18.3954 C.ar    1  UNL1        0.0013
     18 C          -4.1132    4.2415   17.5469 C.ar    1  UNL1        0.0001
     19 C          -5.4446    3.8491   18.1155 C.ar    1  UNL1        0.0013
     20 C          -5.5422    3.3670   19.5326 C.ar    1  UNL1        0.0147
     21 O           1.6136   -0.2084   21.0400 O.3     1  UNL1       -0.2589
     22 C           2.7890   -0.0999   20.1144 C.3     1  UNL1        0.1732
     23 C           2.2215    1.1651   19.5420 C.ar    1  UNL1        0.0120
     24 C           2.9142    2.4737   19.7820 C.ar    1  UNL1       -0.0013
     25 C           2.3466    3.7388   19.2095 C.ar    1  UNL1       -0.0002
     26 C           1.0864    3.6951   18.3972 C.ar    1  UNL1       -0.0000
     27 C           0.3936    2.3865   18.1573 C.ar    1  UNL1       -0.0002
     28 C           0.9612    1.1215   18.7297 C.ar    1  UNL1       -0.0013
     29 C           3.3565   -1.3649   20.6868 C.ar    1  UNL1        0.0120
     30 C           3.8044   -1.4058   22.1178 C.ar    1  UNL1       -0.0013
     31 C           4.3719   -2.6709   22.6902 C.ar    1  UNL1       -0.0002
     32 C           4.4915   -3.8950   21.8316 C.ar    1  UNL1       -0.0000
     33 C           4.0436   -3.8541   20.4006 C.ar    1  UNL1       -0.0002
     34 C           3.4761   -2.5891   19.8282 C.ar    1  UNL1       -0.0013
     35 C           3.9643    0.0086   19.1889 C.ar    1  UNL1        0.0120
     36 C           3.7905   -0.2524   17.7220 C.ar    1  UNL1       -0.0013
     37 C           4.9660   -0.1439   16.7965 C.ar    1  UNL1       -0.0002
     38 C           6.3152    0.2257   17.3378 C.ar    1  UNL1       -0.0000
     39 C           6.4890    0.4867   18.8046 C.ar    1  UNL1       -0.0002
     40 C           5.3136    0.3782   19.7302 C.ar    1  UNL1       -0.0013
@<TRIPOS>BOND
     1     1     2    2
     2     2     5    1
     3     5     6    1
     4     6     7    1
     5     7     8    1
     6     8     9    1
     7     9    10    1
     8    10    11    1
     9    11    12    2
    10    11    13   am
    11    13    15    1
    12    15    16   ar
    13    16    17   ar
    14    17    18   ar
    15    18    19   ar
    16    19    20   ar
    17     2     3   am
    18     3    21    1
    19    21    22    1
    20    22    23    1
    21    23    24   ar
    22    24    25   ar
    23    25    26   ar
    24    26    27   ar
    25    27    28   ar
    26    22    29    1
    27    29    30   ar
    28    30    31   ar
    29    31    32   ar
    30    32    33   ar
    31    33    34   ar
    32    22    35    1
    33    35    36   ar
    34    36    37   ar
    35    37    38   ar
    36    38    39   ar
    37    39    40   ar
    38    20    15   ar
    39    28    23   ar
    40    34    29   ar
    41    40    35   ar
    42    13    14    1
    43     3     4    1
@<TRIPOS>MOLECULE
*****
 40 43 0 0 0
SMALL
GASTEIGER

@<TRIPOS>ATOM
      1 O          -0.6955    1.6550   21.0393 O.2     1  UNL1       -0.2730
      2 C           0.3111    1.5105   22.1419 C.2     1  UNL1        0.2445
      3 N           1.4601    0.5586   21.9885 N.am    1  UNL1       -0.1924
      4 H           2.1208    0.4637   22.7121 H       1  UNL1        0.1825
      5 C           0.1688    2.3181   23.3980 C.3     1  UNL1        0.0871
      6 C           0.6867    3.7249   23.4479 C.3     1  UNL1        0.0096
      7 C           2.0026    4.0626   22.8121 C.3     1  UNL1        0.0005
      8 C           3.2802    3.8283   23.5625 C.3     1  UNL1        0.0005
      9 C           4.1129    2.6165   23.2656 C.3     1  UNL1        0.0096
     10 C           4.3200    1.5718   24.3217 C.3     1  UNL1        0.0854
     11 C           3.1557    1.0825   25.1312 C.2     1  UNL1        0.2261
     12 O           2.3926   -0.1311   24.6898 O.2     1  UNL1       -0.2748
     13 N           2.7547    1.8067   26.3820 N.am    1  UNL1       -0.2839
     14 H           3.2556    2.6032   26.6717 H       1  UNL1        0.1549
     15 C           1.5904    1.3174   27.1915 C.ar    1  UNL1        0.0503
     16 C           1.8086    0.3264   28.2961 C.ar    1  UNL1        0.0147
     17 C           0.6444   -0.1628   29.1055 C.ar    1  UNL1        0.0013
     18 C          -0.7380    0.3390   28.8103 C.ar    1  UNL1        0.0001
     19 C          -0.9562    1.3300   27.7057 C.ar    1  UNL1        0.0013
     20 C           0.2080    1.8192   26.8963 C.ar    1  UNL1        0.0147
     21 O           1.6024   -0.2490   20.7324 O.3     1  UNL1       -0.2589
     22 C           2.8410   -0.1226   19.8958 C.3     1  UNL1        0.1732
     23 C           3.3447   -1.4244   20.4449 C.ar    1  UNL1        0.0120
     24 C           3.4094   -2.6357   19.5626 C.ar    1  UNL1       -0.0013
     25 C           3.9132   -3.9375   20.1117 C.ar    1  UNL1       -0.0002
     26 C           4.3523   -4.0280   21.5432 C.ar    1  UNL1       -0.0000
     27 C           4.2876   -2.8166   22.4255 C.ar    1  UNL1       -0.0002
     28 C           3.7839   -1.5148   21.8764 C.ar    1  UNL1       -0.0013
     29 C           2.3372    1.1792   19.3467 C.ar    1  UNL1        0.0120
     30 C           1.1079    1.2053   18.4876 C.ar    1  UNL1       -0.0013
     31 C           0.6041    2.5072   17.9385 C.ar    1  UNL1       -0.0002
     32 C           1.3297    3.7828   18.2485 C.ar    1  UNL1       -0.0000
     33 C           2.5591    3.7567   19.1075 C.ar    1  UNL1       -0.0002
     34 C           3.0628    2.4550   19.6566 C.ar    1  UNL1       -0.0013
     35 C           4.0795    0.0038   19.0592 C.ar    1  UNL1        0.0120
     36 C           3.9989   -0.1597   17.5703 C.ar    1  UNL1       -0.0013
     37 C           5.2375   -0.0332   16.7337 C.ar    1  UNL1       -0.0002
     38 C           6.5568    0.2567   17.3860 C.ar    1  UNL1       -0.0000
     39 C           6.6374    0.4202   18.8749 C.ar    1  UNL1       -0.0002
     40 C           5.3989    0.2938   19.7115 C.ar    1  UNL1       -0.0013
@<TRIPOS>BOND
     1     1     2    2
     2     2     5    1
     3     5     6    1
     4     6     7    1
     5     7     8    1
     6     8     9    1
     7     9    10    1
     8    10    11    1
     9    11    12    2
    10    11    13   am
    11    13    15    1
    12    15    16   ar
    13    16    17   ar
    14    17    18   ar
    15    18    19   ar
    16    19    20   ar
    17     2     3   am
    18     3    21    1
    19    21    22    1
    20    22    23    1
    21    23    24   ar
    22    24    25   ar
    23    25    26   ar
    24    26    27   ar
    25    27    28   ar
    26    22    29    1
    27    29    30   ar
    28    30    31   ar
    29    31    32   ar
    30    32    33   ar
    31    33    34   ar
    32    22    35    1
    33    35    36   ar
    34    36    37   ar
    35    37    38   ar
    36    38    39   ar
    37    39    40   ar
    38    20    15   ar
    39    28    23   ar
    40    34    29   ar
    41    40    35   ar
    42    13    14    1
    43     3     4    1
@<TRIPOS>MOLECULE
*****
 40 43 0 0 0
SMALL
GASTEIGER

@<TRIPOS>ATOM
      1 O          -9.2780  -17.9982   26.0455 O.2     1  UNL1       -0.2730
      2 C          -8.7371  -16.8817   25.2024 C.2     1  UNL1        0.2445
      3 N          -8.1545  -17.1761   23.8519 N.am    1  UNL1       -0.1924
      4 H          -7.7995  -16.4433   23.2986 H       1  UNL1        0.1825
      5 C          -8.7788  -15.4707   25.7099 C.3     1  UNL1        0.0871
      6 C          -8.3710  -15.1690   27.1215 C.3     1  UNL1        0.0096
      7 C          -6.9171  -15.1103   27.4858 C.3     1  UNL1        0.0005
      8 C          -5.9080  -15.8604   26.6677 C.3     1  UNL1        0.0005
      9 C          -5.0301  -15.1237   25.7000 C.3     1  UNL1        0.0096
     10 C          -5.2892  -15.2242   24.2260 C.3     1  UNL1        0.0854
     11 C          -4.5701  -16.2545   23.4065 C.2     1  UNL1        0.2261
     12 O          -5.0787  -17.6649   23.3606 O.2     1  UNL1       -0.2748
     13 N          -3.3424  -15.8743   22.6331 N.am    1  UNL1       -0.2839
     14 H          -3.0086  -14.9486   22.6633 H       1  UNL1        0.1549
     15 C          -2.6232  -16.9046   21.8137 C.ar    1  UNL1        0.0503
     16 C          -2.3626  -16.6565   20.3575 C.ar    1  UNL1        0.0147
     17 C          -1.6435  -17.6867   19.5381 C.ar    1  UNL1        0.0013
     18 C          -1.1850  -18.9651   20.1749 C.ar    1  UNL1        0.0001
     19 C          -1.4456  -19.2133   21.6311 C.ar    1  UNL1        0.0013
     20 C          -2.1648  -18.1830   22.4505 C.ar    1  UNL1        0.0147
     21 O          -8.1128  -18.5871   23.3445 O.3     1  UNL1       -0.2589
     22 C          -8.7088  -18.9218   22.0093 C.3     1  UNL1        0.1732
     23 C          -7.3558  -19.3319   21.5081 C.ar    1  UNL1        0.0120
     24 C          -6.6599  -20.5161   22.1109 C.ar    1  UNL1       -0.0013
     25 C          -5.3069  -20.9261   21.6096 C.ar    1  UNL1       -0.0002
     26 C          -4.6498  -20.1519   20.5057 C.ar    1  UNL1       -0.0000
     27 C          -5.3457  -18.9677   19.9029 C.ar    1  UNL1       -0.0002
     28 C          -6.6987  -18.5576   20.4041 C.ar    1  UNL1       -0.0013
     29 C         -10.0618  -18.5118   22.5105 C.ar    1  UNL1        0.0120
     30 C         -10.6057  -17.1544   22.1765 C.ar    1  UNL1       -0.0013
     31 C         -11.9588  -16.7444   22.6778 C.ar    1  UNL1       -0.0002
     32 C         -12.7679  -17.6918   23.5130 C.ar    1  UNL1       -0.0000
     33 C         -12.2240  -19.0493   23.8470 C.ar    1  UNL1       -0.0002
     34 C         -10.8711  -19.4593   23.3458 C.ar    1  UNL1       -0.0013
     35 C          -9.3049  -19.2566   20.6742 C.ar    1  UNL1        0.0120
     36 C         -10.5730  -18.5895   20.2304 C.ar    1  UNL1       -0.0013
     37 C         -11.1690  -18.9243   18.8952 C.ar    1  UNL1       -0.0002
     38 C         -10.4969  -19.9262   18.0038 C.ar    1  UNL1       -0.0000
     39 C          -9.2289  -20.5933   18.4476 C.ar    1  UNL1       -0.0002
     40 C          -8.6328  -20.2585   19.7827 C.ar    1  UNL1       -0.0013
@<TRIPOS>BOND
     1     1     2    2
     2     2     5    1
     3     5     6    1
     4     6     7    1
     5     7     8    1
     6     8     9    1
     7     9    10    1
     8    10    11    1
     9    11    12    2
    10    11    13   am
    11    13    15    1
    12    15    16   ar
    13    16    17   ar
    14    17    18   ar
    15    18    19   ar
    16    19    20   ar
    17     2     3   am
    18     3    21    1
    19    21    22    1
    20    22    23    1
    21    23    24   ar
    22    24    25   ar
    23    25    26   ar
    24    26    27   ar
    25    27    28   ar
    26    22    29    1
    27    29    30   ar
    28    30    31   ar
    29    31    32   ar
    30    32    33   ar
    31    33    34   ar
    32    22    35    1
    33    35    36   ar
    34    36    37   ar
    35    37    38   ar
    36    38    39   ar
    37    39    40   ar
    38    20    15   ar
    39    28    23   ar
    40    34    29   ar
    41    40    35   ar
    42    13    14    1
    43     3     4    1
