@<TRIPOS>MOLECULE
*****
 25 29 0 0 0
SMALL
GASTEIGER

@<TRIPOS>ATOM
      1 O           7.0783   -4.6499   20.6695 O.2     1  UNL1       -0.2523
      2 C           6.3134   -3.6997   21.5424 C.2     1  UNL1        0.3072
      3 N           6.4246   -3.7974   23.0350 N.am    1  UNL1       -0.2639
      4 C           7.2567   -4.7880   23.7942 C.3     1  UNL1        0.0967
      5 C           7.0697   -4.5244   25.2589 C.3     1  UNL1        0.0430
      6 C           7.4683   -4.9737   26.6334 C.3     1  UNL1        0.0939
      7 N           6.7671   -4.0979   27.6290 N.pl3   1  UNL1       -0.2931
      8 C           5.9350   -3.1072   26.8698 C.3     1  UNL1        0.0939
      9 C           6.1220   -3.3708   25.4051 C.3     1  UNL1        0.0430
     10 C           5.7234   -2.9215   24.0306 C.3     1  UNL1        0.0967
     11 N           5.4371   -2.6519   20.9225 N.am    1  UNL1       -0.2640
     12 C           4.6166   -1.6378   21.6632 C.3     1  UNL1        0.0950
     13 C           3.8999   -0.7934   20.6516 C.3     1  UNL1        0.0232
     14 C           4.2773   -1.2856   19.2858 C.3     1  UNL1        0.0200
     15 C           3.3272   -0.1369   19.1184 C.3     1  UNL1        0.0017
     16 C           3.1175    0.0807   17.6492 C.3     1  UNL1        0.0001
     17 C           3.9380   -0.9334   16.9086 C.3     1  UNL1        0.0001
     18 C           4.6547   -1.7778   17.9201 C.3     1  UNL1        0.0017
     19 C           5.2274   -2.4343   19.4533 C.3     1  UNL1        0.0949
     20 C           6.8783   -4.1955   29.1216 C.ar    1  UNL1        0.1317
     21 C           6.9976   -2.9494   29.9480 C.ar    1  UNL1        0.0343
     22 C           7.1089   -3.0470   31.4406 C.ar    1  UNL1        0.0045
     23 C           7.1009   -4.3908   32.1070 C.ar    1  UNL1        0.0208
     24 C           6.9816   -5.6370   31.2807 C.ar    1  UNL1        0.1003
     25 N           6.8703   -5.5393   29.7880 N.ar    1  UNL1       -0.2292
@<TRIPOS>BOND
     1     1     2    2
     2     2     3   am
     3     3     4    1
     4     5     4    1
     5     5     6    1
     6     6     7    1
     7     7    20    1
     8    20    21   ar
     9    21    22   ar
    10    22    23   ar
    11    23    24   ar
    12    24    25   ar
    13     7     8    1
    14     9     8    1
    15     9    10    1
    16     2    11   am
    17    11    12    1
    18    12    13    1
    19    13    14    1
    20    14    15    1
    21    15    16    1
    22    16    17    1
    23    17    18    1
    24    14    19    1
    25    10     3    1
    26    19    11    1
    27     9     5    1
    28    18    14    1
    29    25    20   ar
@<TRIPOS>MOLECULE
*****
 25 29 0 0 0
SMALL
GASTEIGER

@<TRIPOS>ATOM
      1 O           8.9914   -5.9652   24.1506 O.2     1  UNL1       -0.2523
      2 C           7.8568   -5.1807   24.7396 C.2     1  UNL1        0.3072
      3 N           6.9560   -4.3794   23.8472 N.am    1  UNL1       -0.2639
      4 C           7.0657   -4.2671   22.3554 C.3     1  UNL1        0.0967
      5 C           5.9648   -3.3681   21.8761 C.3     1  UNL1        0.0430
      6 C           5.3523   -2.7430   20.6579 C.3     1  UNL1        0.0939
      7 N           4.1836   -1.9134   21.1005 N.pl3   1  UNL1       -0.2931
      8 C           4.0738   -2.0257   22.5922 C.3     1  UNL1        0.0939
      9 C           5.1747   -2.9247   23.0716 C.3     1  UNL1        0.0430
     10 C           5.7873   -3.5498   24.2898 C.3     1  UNL1        0.0967
     11 N           7.6230   -5.1974   26.2212 N.am    1  UNL1       -0.2640
     12 C           6.5348   -4.4665   26.9503 C.3     1  UNL1        0.0950
     13 C           6.6756   -4.7653   28.4135 C.3     1  UNL1        0.0232
     14 C           7.8508   -5.6809   28.5887 C.3     1  UNL1        0.0200
     15 C           7.2653   -5.4138   29.9436 C.3     1  UNL1        0.0017
     16 C           8.0786   -6.1643   30.9561 C.3     1  UNL1        0.0001
     17 C           9.1668   -6.8953   30.2270 C.3     1  UNL1        0.0001
     18 C           9.0260   -6.5964   28.7638 C.3     1  UNL1        0.0017
     19 C           8.4363   -5.9479   27.2337 C.3     1  UNL1        0.0949
     20 C           3.2827   -1.1122   20.2080 C.ar    1  UNL1        0.1317
     21 C           1.8691   -0.8331   20.6248 C.ar    1  UNL1        0.0343
     22 C           0.9683   -0.0318   19.7324 C.ar    1  UNL1        0.0045
     23 C           1.4811    0.4904   18.4231 C.ar    1  UNL1        0.0208
     24 C           2.8947    0.2114   18.0063 C.ar    1  UNL1        0.1003
     25 N           3.7955   -0.5899   18.8987 N.ar    1  UNL1       -0.2292
@<TRIPOS>BOND
     1     1     2    2
     2     2     3   am
     3     3     4    1
     4     5     4    1
     5     5     6    1
     6     6     7    1
     7     7    20    1
     8    20    21   ar
     9    21    22   ar
    10    22    23   ar
    11    23    24   ar
    12    24    25   ar
    13     7     8    1
    14     9     8    1
    15     9    10    1
    16     2    11   am
    17    11    12    1
    18    12    13    1
    19    13    14    1
    20    14    15    1
    21    15    16    1
    22    16    17    1
    23    17    18    1
    24    14    19    1
    25    10     3    1
    26    19    11    1
    27     9     5    1
    28    18    14    1
    29    25    20   ar
@<TRIPOS>MOLECULE
*****
 25 29 0 0 0
SMALL
GASTEIGER

@<TRIPOS>ATOM
      1 O           8.0463   -6.3048   30.8656 O.2     1  UNL1       -0.2523
      2 C           7.3738   -5.2467   30.0421 C.2     1  UNL1        0.3072
      3 N           6.6639   -4.1101   30.7161 N.am    1  UNL1       -0.2639
      4 C           6.5434   -3.8996   32.1963 C.3     1  UNL1        0.0967
      5 C           5.7550   -2.6439   32.4233 C.3     1  UNL1        0.0430
      6 C           5.1932   -1.7377   33.4783 C.3     1  UNL1        0.0939
      7 N           4.4793   -0.6121   32.7904 N.pl3   1  UNL1       -0.2931
      8 C           4.5998   -0.8226   31.3101 C.3     1  UNL1        0.0939
      9 C           5.3882   -2.0783   31.0832 C.3     1  UNL1        0.0430
     10 C           5.9499   -2.9845   30.0281 C.3     1  UNL1        0.0967
     11 N           7.4111   -5.3253   28.5447 N.am    1  UNL1       -0.2640
     12 C           6.7873   -4.3463   27.5946 C.3     1  UNL1        0.0950
     13 C           7.0694   -4.8126   26.1971 C.3     1  UNL1        0.0232
     14 C           7.8675   -6.0797   26.2834 C.3     1  UNL1        0.0200
     15 C           7.6563   -5.7628   24.8325 C.3     1  UNL1        0.0017
     16 C           8.3239   -6.8341   24.0222 C.3     1  UNL1        0.0001
     17 C           8.9477   -7.8130   24.9722 C.3     1  UNL1        0.0001
     18 C           8.6656   -7.3468   26.3697 C.3     1  UNL1        0.0017
     19 C           8.0787   -6.3965   27.7343 C.3     1  UNL1        0.0949
     20 C           3.7694    0.5245   33.4643 C.ar    1  UNL1        0.1317
     21 C           2.6685    1.2506   32.7497 C.ar    1  UNL1        0.0343
     22 C           1.9587    2.3872   33.4236 C.ar    1  UNL1        0.0045
     23 C           2.3497    2.7978   34.8123 C.ar    1  UNL1        0.0208
     24 C           3.4506    2.0717   35.5270 C.ar    1  UNL1        0.1003
     25 N           4.1605    0.9351   34.8530 N.ar    1  UNL1       -0.2292
@<TRIPOS>BOND
     1     1     2    2
     2     2     3   am
     3     3     4    1
     4     5     4    1
     5     5     6    1
     6     6     7    1
     7     7    20    1
     8    20    21   ar
     9    21    22   ar
    10    22    23   ar
    11    23    24   ar
    12    24    25   ar
    13     7     8    1
    14     9     8    1
    15     9    10    1
    16     2    11   am
    17    11    12    1
    18    12    13    1
    19    13    14    1
    20    14    15    1
    21    15    16    1
    22    16    17    1
    23    17    18    1
    24    14    19    1
    25    10     3    1
    26    19    11    1
    27     9     5    1
    28    18    14    1
    29    25    20   ar
@<TRIPOS>MOLECULE
*****
 25 29 0 0 0
SMALL
GASTEIGER

@<TRIPOS>ATOM
      1 O           7.5939   -3.7643   20.4070 O.2     1  UNL1       -0.2523
      2 C           6.6515   -3.3970   21.5146 C.2     1  UNL1        0.3072
      3 N           6.9225   -3.8614   22.9149 N.am    1  UNL1       -0.2639
      4 C           8.0887   -4.6946   23.3573 C.3     1  UNL1        0.0967
      5 C           7.9618   -4.9224   24.8344 C.3     1  UNL1        0.0430
      6 C           8.6042   -5.5780   26.0208 C.3     1  UNL1        0.0939
      7 N           7.7564   -5.2909   27.2245 N.pl3   1  UNL1       -0.2931
      8 C           6.5902   -4.4578   26.7821 C.3     1  UNL1        0.0939
      9 C           6.7171   -4.2300   25.3050 C.3     1  UNL1        0.0430
     10 C           6.0748   -3.5743   24.1186 C.3     1  UNL1        0.0967
     11 N           5.4381   -2.5651   21.2219 N.am    1  UNL1       -0.2640
     12 C           4.4113   -2.1216   22.2213 C.3     1  UNL1        0.0950
     13 C           3.3770   -1.3131   21.4955 C.3     1  UNL1        0.0232
     14 C           3.7647   -1.2570   20.0475 C.3     1  UNL1        0.0200
     15 C           2.4908   -0.4832   20.2166 C.3     1  UNL1        0.0017
     16 C           2.0913    0.0511   18.8732 C.3     1  UNL1        0.0001
     17 C           3.1181   -0.3925   17.8738 C.3     1  UNL1        0.0001
     18 C           4.1524   -1.2009   18.5996 C.3     1  UNL1        0.0017
     19 C           5.0385   -2.0308   19.8784 C.3     1  UNL1        0.0949
     20 C           8.0274   -5.7554   28.6248 C.ar    1  UNL1        0.1317
     21 C           9.2650   -6.5476   28.9260 C.ar    1  UNL1        0.0343
     22 C           9.5359   -7.0120   30.3263 C.ar    1  UNL1        0.0045
     23 C           8.5693   -6.6843   31.4255 C.ar    1  UNL1        0.0208
     24 C           7.3317   -5.8921   31.1243 C.ar    1  UNL1        0.1003
     25 N           7.0607   -5.4276   29.7240 N.ar    1  UNL1       -0.2292
@<TRIPOS>BOND
     1     1     2    2
     2     2     3   am
     3     3     4    1
     4     5     4    1
     5     5     6    1
     6     6     7    1
     7     7    20    1
     8    20    21   ar
     9    21    22   ar
    10    22    23   ar
    11    23    24   ar
    12    24    25   ar
    13     7     8    1
    14     9     8    1
    15     9    10    1
    16     2    11   am
    17    11    12    1
    18    12    13    1
    19    13    14    1
    20    14    15    1
    21    15    16    1
    22    16    17    1
    23    17    18    1
    24    14    19    1
    25    10     3    1
    26    19    11    1
    27     9     5    1
    28    18    14    1
    29    25    20   ar
@<TRIPOS>MOLECULE
*****
 25 29 0 0 0
SMALL
GASTEIGER

@<TRIPOS>ATOM
      1 O           5.2949   -4.3453   20.6615 O.2     1  UNL1       -0.2523
      2 C           4.8941   -3.3245   21.6848 C.2     1  UNL1        0.3072
      3 N           3.9015   -2.2571   21.3307 N.am    1  UNL1       -0.2639
      4 C           3.2289   -2.0848   20.0010 C.3     1  UNL1        0.0967
      5 C           2.3190   -0.8958   20.0925 C.3     1  UNL1        0.0430
      6 C           1.3410   -0.0545   19.3273 C.3     1  UNL1        0.0939
      7 N           0.8468    1.0280   20.2406 N.pl3   1  UNL1       -0.2931
      8 C           1.5194    0.8557   21.5702 C.3     1  UNL1        0.0939
      9 C           2.4293   -0.3333   21.4787 C.3     1  UNL1        0.0430
     10 C           3.4073   -1.1746   22.2439 C.3     1  UNL1        0.0967
     11 N           5.4859   -3.3711   23.0624 N.am    1  UNL1       -0.2640
     12 C           5.1829   -2.4230   24.1846 C.3     1  UNL1        0.0950
     13 C           5.9943   -2.8399   25.3754 C.3     1  UNL1        0.0232
     14 C           6.7988   -4.0456   24.9891 C.3     1  UNL1        0.0200
     15 C           7.1130   -3.7173   26.4186 C.3     1  UNL1        0.0017
     16 C           8.1117   -4.7201   26.9157 C.3     1  UNL1        0.0001
     17 C           8.4147   -5.6681   25.7934 C.3     1  UNL1        0.0001
     18 C           7.6033   -5.2512   24.6027 C.3     1  UNL1        0.0017
     19 C           6.4846   -4.3739   23.5595 C.3     1  UNL1        0.0949
     20 C          -0.1458    2.0954   19.8864 C.ar    1  UNL1        0.1317
     21 C           0.0350    2.9023   18.6350 C.ar    1  UNL1        0.0343
     22 C          -0.9575    3.9697   18.2808 C.ar    1  UNL1        0.0045
     23 C          -2.1310    4.2302   19.1781 C.ar    1  UNL1        0.0208
     24 C          -2.3118    3.4233   20.4295 C.ar    1  UNL1        0.1003
     25 N          -1.3192    2.3559   20.7837 N.ar    1  UNL1       -0.2292
@<TRIPOS>BOND
     1     1     2    2
     2     2     3   am
     3     3     4    1
     4     5     4    1
     5     5     6    1
     6     6     7    1
     7     7    20    1
     8    20    21   ar
     9    21    22   ar
    10    22    23   ar
    11    23    24   ar
    12    24    25   ar
    13     7     8    1
    14     9     8    1
    15     9    10    1
    16     2    11   am
    17    11    12    1
    18    12    13    1
    19    13    14    1
    20    14    15    1
    21    15    16    1
    22    16    17    1
    23    17    18    1
    24    14    19    1
    25    10     3    1
    26    19    11    1
    27     9     5    1
    28    18    14    1
    29    25    20   ar
@<TRIPOS>MOLECULE
*****
 25 29 0 0 0
SMALL
GASTEIGER

@<TRIPOS>ATOM
      1 O           0.2068    3.8226   17.5261 O.2     1  UNL1       -0.2523
      2 C          -0.2058    3.0408   18.7378 C.2     1  UNL1        0.3072
      3 N          -1.3626    3.5053   19.5721 N.am    1  UNL1       -0.2639
      4 C          -2.1973    4.7258   19.3202 C.3     1  UNL1        0.0967
      5 C          -3.2383    4.8058   20.3972 C.3     1  UNL1        0.0430
      6 C          -4.3976    5.6095   20.9071 C.3     1  UNL1        0.0939
      7 N          -4.9227    4.9351   22.1398 N.pl3   1  UNL1       -0.2931
      8 C          -4.0879    3.7146   22.3917 C.3     1  UNL1        0.0939
      9 C          -3.0469    3.6346   21.3148 C.3     1  UNL1        0.0430
     10 C          -1.8876    2.8309   20.8048 C.3     1  UNL1        0.0967
     11 N           0.5384    1.7943   19.1153 N.am    1  UNL1       -0.2640
     12 C           0.2428    0.9134   20.2928 C.3     1  UNL1        0.0950
     13 C           1.2305   -0.2155   20.2868 C.3     1  UNL1        0.0232
     14 C           2.1366   -0.0323   19.1055 C.3     1  UNL1        0.0200
     15 C           2.5644   -1.2744   19.8295 C.3     1  UNL1        0.0017
     16 C           3.7348   -1.8588   19.0957 C.3     1  UNL1        0.0001
     17 C           4.0305   -0.9779   17.9181 C.3     1  UNL1        0.0001
     18 C           3.0427    0.1510   17.9242 C.3     1  UNL1        0.0017
     19 C           1.7088    1.2099   18.3814 C.3     1  UNL1        0.0949
     20 C          -6.0795    5.3996   22.9741 C.ar    1  UNL1        0.1317
     21 C          -7.2453    4.4870   23.2143 C.ar    1  UNL1        0.0343
     22 C          -8.4021    4.9515   24.0486 C.ar    1  UNL1        0.0045
     23 C          -8.3930    6.3288   24.6428 C.ar    1  UNL1        0.0208
     24 C          -7.2271    7.2414   24.4026 C.ar    1  UNL1        0.1003
     25 N          -6.0704    6.7769   23.5683 N.ar    1  UNL1       -0.2292
@<TRIPOS>BOND
     1     1     2    2
     2     2     3   am
     3     3     4    1
     4     5     4    1
     5     5     6    1
     6     6     7    1
     7     7    20    1
     8    20    21   ar
     9    21    22   ar
    10    22    23   ar
    11    23    24   ar
    12    24    25   ar
    13     7     8    1
    14     9     8    1
    15     9    10    1
    16     2    11   am
    17    11    12    1
    18    12    13    1
    19    13    14    1
    20    14    15    1
    21    15    16    1
    22    16    17    1
    23    17    18    1
    24    14    19    1
    25    10     3    1
    26    19    11    1
    27     9     5    1
    28    18    14    1
    29    25    20   ar
@<TRIPOS>MOLECULE
*****
 25 29 0 0 0
SMALL
GASTEIGER

@<TRIPOS>ATOM
      1 O           0.8157    0.7302   18.3867 O.2     1  UNL1       -0.2523
      2 C           1.1591    0.5273   19.8327 C.2     1  UNL1        0.3072
      3 N           0.4632    1.3334   20.8890 N.am    1  UNL1       -0.2639
      4 C          -0.5917    2.3732   20.6525 C.3     1  UNL1        0.0967
      5 C          -1.0069    2.9237   21.9846 C.3     1  UNL1        0.0430
      6 C          -1.9154    3.9065   22.6618 C.3     1  UNL1        0.0939
      7 N          -1.6786    3.8143   24.1401 N.pl3   1  UNL1       -0.2931
      8 C          -0.6238    2.7744   24.3767 C.3     1  UNL1        0.0939
      9 C          -0.2086    2.2240   23.0445 C.3     1  UNL1        0.0430
     10 C           0.6999    1.2411   22.3674 C.3     1  UNL1        0.0967
     11 N           2.1984   -0.4817   20.2223 N.am    1  UNL1       -0.2640
     12 C           2.6446   -0.7930   21.6201 C.3     1  UNL1        0.0950
     13 C           3.6959   -1.8602   21.5442 C.3     1  UNL1        0.0232
     14 C           3.8995   -2.2085   20.0995 C.3     1  UNL1        0.0200
     15 C           4.8250   -3.0605   20.9165 C.3     1  UNL1        0.0017
     16 C           5.6005   -3.9353   19.9767 C.3     1  UNL1        0.0001
     17 C           5.1543   -3.6240   18.5788 C.3     1  UNL1        0.0001
     18 C           4.1030   -2.5568   18.6547 C.3     1  UNL1        0.0017
     19 C           2.9739   -1.3565   19.2824 C.3     1  UNL1        0.0949
     20 C          -2.3745    4.6203   25.1965 C.ar    1  UNL1        0.1317
     21 C          -3.5092    4.0198   25.9723 C.ar    1  UNL1        0.0343
     22 C          -4.2051    4.8259   27.0287 C.ar    1  UNL1        0.0045
     23 C          -3.7663    6.2326   27.3093 C.ar    1  UNL1        0.0208
     24 C          -2.6317    6.8331   26.5335 C.ar    1  UNL1        0.1003
     25 N          -1.9358    6.0270   25.4772 N.ar    1  UNL1       -0.2292
@<TRIPOS>BOND
     1     1     2    2
     2     2     3   am
     3     3     4    1
     4     5     4    1
     5     5     6    1
     6     6     7    1
     7     7    20    1
     8    20    21   ar
     9    21    22   ar
    10    22    23   ar
    11    23    24   ar
    12    24    25   ar
    13     7     8    1
    14     9     8    1
    15     9    10    1
    16     2    11   am
    17    11    12    1
    18    12    13    1
    19    13    14    1
    20    14    15    1
    21    15    16    1
    22    16    17    1
    23    17    18    1
    24    14    19    1
    25    10     3    1
    26    19    11    1
    27     9     5    1
    28    18    14    1
    29    25    20   ar
@<TRIPOS>MOLECULE
*****
 25 29 0 0 0
SMALL
GASTEIGER

@<TRIPOS>ATOM
      1 O         -14.1083    2.6075   18.2281 O.2     1  UNL1       -0.2523
      2 C         -14.7201    1.3981   18.8707 C.2     1  UNL1        0.3072
      3 N         -14.0422    0.0648   18.7576 N.am    1  UNL1       -0.2639
      4 C         -12.7555   -0.2118   18.0378 C.3     1  UNL1        0.0967
      5 C         -12.4500   -1.6734   18.1797 C.3     1  UNL1        0.0430
      6 C         -11.4661   -2.7478   17.8226 C.3     1  UNL1        0.0939
      7 N         -11.9558   -4.0385   18.4093 N.pl3   1  UNL1       -0.2931
      8 C         -13.2425   -3.7619   19.1290 C.3     1  UNL1        0.0939
      9 C         -13.5479   -2.3002   18.9871 C.3     1  UNL1        0.0430
     10 C         -14.5319   -1.2259   19.3443 C.3     1  UNL1        0.0967
     11 N         -16.0098    1.5220   19.6265 N.am    1  UNL1       -0.2640
     12 C         -16.7370    0.4071   20.3181 C.3     1  UNL1        0.0950
     13 C         -17.9754    0.9786   20.9424 C.3     1  UNL1        0.0232
     14 C         -18.0136    2.4466   20.6368 C.3     1  UNL1        0.0200
     15 C         -19.2284    2.1108   21.4501 C.3     1  UNL1        0.0017
     16 C         -20.0173    3.3712   21.6470 C.3     1  UNL1        0.0001
     17 C         -19.2901    4.4861   20.9554 C.3     1  UNL1        0.0001
     18 C         -18.0517    3.9147   20.3311 C.3     1  UNL1        0.0017
     19 C         -16.7987    2.7825   19.8235 C.3     1  UNL1        0.0949
     20 C         -11.2779   -5.3718   18.2961 C.ar    1  UNL1        0.1317
     21 C         -10.0652   -5.6695   19.1271 C.ar    1  UNL1        0.0343
     22 C          -9.3873   -7.0028   19.0140 C.ar    1  UNL1        0.0045
     23 C          -9.9221   -8.0384   18.0697 C.ar    1  UNL1        0.0208
     24 C         -11.1348   -7.7406   17.2387 C.ar    1  UNL1        0.1003
     25 N         -11.8127   -6.4074   17.3519 N.ar    1  UNL1       -0.2292
@<TRIPOS>BOND
     1     1     2    2
     2     2     3   am
     3     3     4    1
     4     5     4    1
     5     5     6    1
     6     6     7    1
     7     7    20    1
     8    20    21   ar
     9    21    22   ar
    10    22    23   ar
    11    23    24   ar
    12    24    25   ar
    13     7     8    1
    14     9     8    1
    15     9    10    1
    16     2    11   am
    17    11    12    1
    18    12    13    1
    19    13    14    1
    20    14    15    1
    21    15    16    1
    22    16    17    1
    23    17    18    1
    24    14    19    1
    25    10     3    1
    26    19    11    1
    27     9     5    1
    28    18    14    1
    29    25    20   ar
@<TRIPOS>MOLECULE
*****
 25 29 0 0 0
SMALL
GASTEIGER

@<TRIPOS>ATOM
      1 O           4.1507   -1.0894   25.2638 O.2     1  UNL1       -0.2523
      2 C           3.1388   -0.5673   24.2874 C.2     1  UNL1        0.3072
      3 N           2.0790    0.3902   24.7454 N.am    1  UNL1       -0.2639
      4 C           1.9062    0.9125   26.1409 C.3     1  UNL1        0.0967
      5 C           0.7263    1.8386   26.1464 C.3     1  UNL1        0.0430
      6 C          -0.1098    2.7337   27.0123 C.3     1  UNL1        0.0939
      7 N          -1.1830    3.3370   26.1553 N.pl3   1  UNL1       -0.2931
      8 C          -1.0102    2.8147   24.7598 C.3     1  UNL1        0.0939
      9 C           0.1697    1.8886   24.7543 C.3     1  UNL1        0.0430
     10 C           1.0058    0.9935   23.8885 C.3     1  UNL1        0.0967
     11 N           3.1869   -1.0027   22.8528 N.am    1  UNL1       -0.2640
     12 C           2.2474   -0.5675   21.7674 C.3     1  UNL1        0.0950
     13 C           2.6627   -1.2456   20.4955 C.3     1  UNL1        0.0232
     14 C           3.8589   -2.0999   20.7947 C.3     1  UNL1        0.0200
     15 C           3.5349   -2.2500   19.3378 C.3     1  UNL1        0.0017
     16 C           4.5308   -3.1970   18.7368 C.3     1  UNL1        0.0001
     17 C           5.4703   -3.6322   19.8222 C.3     1  UNL1        0.0001
     18 C           5.0550   -2.9541   21.0941 C.3     1  UNL1        0.0017
     19 C           4.1828   -1.9497   22.2517 C.3     1  UNL1        0.0949
     20 C          -2.2429    4.2945   26.6134 C.ar    1  UNL1        0.1317
     21 C          -3.6919    3.9368   26.4643 C.ar    1  UNL1        0.0343
     22 C          -4.7518    4.8943   26.9223 C.ar    1  UNL1        0.0045
     23 C          -4.3626    6.2095   27.5296 C.ar    1  UNL1        0.0208
     24 C          -2.9136    6.5672   27.6787 C.ar    1  UNL1        0.1003
     25 N          -1.8537    5.6097   27.2207 N.ar    1  UNL1       -0.2292
@<TRIPOS>BOND
     1     1     2    2
     2     2     3   am
     3     3     4    1
     4     5     4    1
     5     5     6    1
     6     6     7    1
     7     7    20    1
     8    20    21   ar
     9    21    22   ar
    10    22    23   ar
    11    23    24   ar
    12    24    25   ar
    13     7     8    1
    14     9     8    1
    15     9    10    1
    16     2    11   am
    17    11    12    1
    18    12    13    1
    19    13    14    1
    20    14    15    1
    21    15    16    1
    22    16    17    1
    23    17    18    1
    24    14    19    1
    25    10     3    1
    26    19    11    1
    27     9     5    1
    28    18    14    1
    29    25    20   ar
