@<TRIPOS>MOLECULE
*****
 24 27 0 0 0
SMALL
GASTEIGER

@<TRIPOS>ATOM
      1 C          -6.7431  -19.8420   19.3477 C.ar    1  UNL1        0.0366
      2 C          -8.1741  -19.3929   19.3753 C.ar    1  UNL1       -0.0014
      3 C          -8.9079  -19.3065   20.6808 C.ar    1  UNL1       -0.0245
      4 C          -8.2108  -19.6691   21.9584 C.ar    1  UNL1       -0.0217
      5 C          -6.7799  -20.1181   21.9308 C.ar    1  UNL1        0.0324
      6 C          -6.0460  -20.2046   20.6254 C.ar    1  UNL1        0.1382
      7 C          -8.7533  -19.6534   23.3568 C.3     1  UNL1        0.0434
      8 C         -10.1270  -19.2713   23.8228 C.3     1  UNL1        0.0768
      9 N         -11.2972  -18.8104   23.0056 N.3     1  UNL1       -0.2734
     10 C         -11.3830  -18.6179   21.5204 C.3     1  UNL1        0.0768
     11 C         -10.3197  -18.8386   20.4858 C.3     1  UNL1        0.0433
     12 C         -12.5471  -18.5012   23.7752 C.3     1  UNL1        0.0575
     13 C         -13.8262  -17.7776   23.4746 C.3     1  UNL1        0.0160
     14 C         -14.3147  -18.0639   24.8636 C.3     1  UNL1        0.0028
     15 C         -13.0355  -18.7875   25.1642 C.3     1  UNL1        0.0160
     16 O          -4.6151  -20.6537   20.5977 O.3     1  UNL1       -0.4755
     17 C          -3.6106  -19.9071   19.7709 C.3     1  UNL1        0.2054
     18 C          -2.8648  -18.7480   20.3629 C.3     1  UNL1        0.0465
     19 C          -1.7283  -18.1236   19.6089 C.3     1  UNL1        0.0208
     20 C          -0.9825  -16.9646   20.2010 C.3     1  UNL1        0.0687
     21 N          -1.3733  -16.4300   21.5468 N.3     1  UNL1       -0.2975
     22 C          -2.5098  -17.0544   22.3008 C.3     1  UNL1        0.0687
     23 C          -3.2555  -18.2134   21.7087 C.3     1  UNL1        0.0208
     24 H          -1.6119  -15.4471   21.4153 H       1  UNL1        0.1232
@<TRIPOS>BOND
     1     1     2   ar
     2     2     3   ar
     3     3     4   ar
     4     4     5   ar
     5     5     6   ar
     6     6    16    1
     7    16    17    1
     8    17    18    1
     9    18    19    1
    10    19    20    1
    11    20    21    1
    12    21    22    1
    13    22    23    1
    14     4     7    1
    15     7     8    1
    16     8     9    1
    17     9    12    1
    18    12    13    1
    19    13    14    1
    20    14    15    1
    21     9    10    1
    22    10    11    1
    23     6     1   ar
    24    23    18    1
    25    15    12    1
    26    11     3    1
    27    21    24    1
@<TRIPOS>MOLECULE
*****
 24 27 0 0 0
SMALL
GASTEIGER

@<TRIPOS>ATOM
      1 C          -4.4004  -19.1099   22.2073 C.ar    1  UNL1        0.0366
      2 C          -5.7701  -19.6858   22.0016 C.ar    1  UNL1       -0.0014
      3 C          -6.9777  -18.9410   22.4886 C.ar    1  UNL1       -0.0245
      4 C          -6.8156  -17.6206   23.1813 C.ar    1  UNL1       -0.0217
      5 C          -5.4459  -17.0446   23.3870 C.ar    1  UNL1        0.0324
      6 C          -4.2383  -17.7893   22.9000 C.ar    1  UNL1        0.1382
      7 C          -7.8779  -16.7209   23.7402 C.3     1  UNL1        0.0434
      8 C          -9.3647  -16.9198   23.7444 C.3     1  UNL1        0.0768
      9 N         -10.1563  -18.0672   23.1908 N.3     1  UNL1       -0.2734
     10 C          -9.6568  -19.2994   22.4962 C.3     1  UNL1        0.0768
     11 C          -8.2422  -19.6882   22.1837 C.3     1  UNL1        0.0433
     12 C         -11.6443  -17.9698   23.3532 C.3     1  UNL1        0.0575
     13 C         -12.7514  -17.2933   22.6004 C.3     1  UNL1        0.0160
     14 C         -13.7487  -17.8320   23.5829 C.3     1  UNL1        0.0028
     15 C         -12.6416  -18.5085   24.3356 C.3     1  UNL1        0.0160
     16 O          -2.8686  -17.2135   23.1056 O.3     1  UNL1       -0.4755
     17 C          -2.2819  -16.2892   22.0802 C.3     1  UNL1        0.2054
     18 C          -1.7910  -16.8350   20.7720 C.3     1  UNL1        0.0465
     19 C          -0.3589  -17.2565   20.6253 C.3     1  UNL1        0.0208
     20 C           0.1319  -17.8023   19.3172 C.3     1  UNL1        0.0687
     21 N          -0.8091  -17.9264   18.1559 N.3     1  UNL1       -0.2975
     22 C          -2.2412  -17.5049   18.3025 C.3     1  UNL1        0.0687
     23 C          -2.7321  -16.9591   19.6106 C.3     1  UNL1        0.0208
     24 H          -0.8179  -18.9106   17.8879 H       1  UNL1        0.1232
@<TRIPOS>BOND
     1     1     2   ar
     2     2     3   ar
     3     3     4   ar
     4     4     5   ar
     5     5     6   ar
     6     6    16    1
     7    16    17    1
     8    17    18    1
     9    18    19    1
    10    19    20    1
    11    20    21    1
    12    21    22    1
    13    22    23    1
    14     4     7    1
    15     7     8    1
    16     8     9    1
    17     9    12    1
    18    12    13    1
    19    13    14    1
    20    14    15    1
    21     9    10    1
    22    10    11    1
    23     6     1   ar
    24    23    18    1
    25    15    12    1
    26    11     3    1
    27    21    24    1
@<TRIPOS>MOLECULE
*****
 24 27 0 0 0
SMALL
GASTEIGER

@<TRIPOS>ATOM
      1 C          -4.7298  -15.9339   24.3756 C.ar    1  UNL1        0.0366
      2 C          -6.1714  -15.5685   24.5713 C.ar    1  UNL1       -0.0014
      3 C          -7.2447  -16.3503   23.8735 C.ar    1  UNL1       -0.0245
      4 C          -6.8764  -17.4973   22.9800 C.ar    1  UNL1       -0.0217
      5 C          -5.4349  -17.8628   22.7842 C.ar    1  UNL1        0.0324
      6 C          -4.3615  -17.0811   23.4820 C.ar    1  UNL1        0.1382
      7 C          -7.7820  -18.4006   22.1962 C.3     1  UNL1        0.0434
      8 C          -9.2796  -18.3796   22.1125 C.3     1  UNL1        0.0768
      9 N         -10.2413  -17.4504   22.7917 N.3     1  UNL1       -0.2734
     10 C          -9.9432  -16.3126   23.7226 C.3     1  UNL1        0.0768
     11 C          -8.6096  -15.8230   24.2040 C.3     1  UNL1        0.0433
     12 C         -11.6933  -17.6908   22.5019 C.3     1  UNL1        0.0575
     13 C         -12.5186  -17.8227   21.2563 C.3     1  UNL1        0.0160
     14 C         -13.7467  -18.0307   22.0920 C.3     1  UNL1        0.0028
     15 C         -12.9214  -17.8988   23.3376 C.3     1  UNL1        0.0160
     16 O          -2.9200  -17.4464   23.2863 O.3     1  UNL1       -0.4755
     17 C          -2.5516  -18.5929   22.3918 C.3     1  UNL1        0.2054
     18 C          -2.0728  -18.3304   20.9947 C.3     1  UNL1        0.0465
     19 C          -3.0056  -18.5162   19.8348 C.3     1  UNL1        0.0208
     20 C          -2.5267  -18.2537   18.4378 C.3     1  UNL1        0.0687
     21 N          -1.1151  -17.8054   18.2006 N.3     1  UNL1       -0.2975
     22 C          -0.1823  -17.6195   19.3605 C.3     1  UNL1        0.0687
     23 C          -0.6612  -17.8820   20.7576 C.3     1  UNL1        0.0208
     24 H          -1.1682  -16.9080   17.7188 H       1  UNL1        0.1232
@<TRIPOS>BOND
     1     1     2   ar
     2     2     3   ar
     3     3     4   ar
     4     4     5   ar
     5     5     6   ar
     6     6    16    1
     7    16    17    1
     8    17    18    1
     9    18    19    1
    10    19    20    1
    11    20    21    1
    12    21    22    1
    13    22    23    1
    14     4     7    1
    15     7     8    1
    16     8     9    1
    17     9    12    1
    18    12    13    1
    19    13    14    1
    20    14    15    1
    21     9    10    1
    22    10    11    1
    23     6     1   ar
    24    23    18    1
    25    15    12    1
    26    11     3    1
    27    21    24    1
@<TRIPOS>MOLECULE
*****
 24 27 0 0 0
SMALL
GASTEIGER

@<TRIPOS>ATOM
      1 C          -9.2402  -16.5794   24.9653 C.ar    1  UNL1        0.0366
      2 C          -7.8449  -16.0743   24.7463 C.ar    1  UNL1       -0.0014
      3 C          -6.9085  -16.8243   23.8458 C.ar    1  UNL1       -0.0245
      4 C          -7.3675  -18.0792   23.1644 C.ar    1  UNL1       -0.0217
      5 C          -8.7627  -18.5843   23.3834 C.ar    1  UNL1        0.0324
      6 C          -9.6992  -17.8344   24.2838 C.ar    1  UNL1        0.1382
      7 C          -6.6011  -18.9722   22.2342 C.3     1  UNL1        0.0434
      8 C          -5.1864  -18.8307   21.7557 C.3     1  UNL1        0.0768
      9 N          -4.1889  -17.7614   22.0893 N.3     1  UNL1       -0.2734
     10 C          -4.3595  -16.5693   22.9837 C.3     1  UNL1        0.0768
     11 C          -5.5698  -16.1523   23.7655 C.3     1  UNL1        0.0433
     12 C          -2.8427  -17.9028   21.4430 C.3     1  UNL1        0.0575
     13 C          -1.7487  -16.9537   21.0524 C.3     1  UNL1        0.0160
     14 C          -0.9388  -18.1026   20.5290 C.3     1  UNL1        0.0028
     15 C          -2.0328  -19.0517   20.9195 C.3     1  UNL1        0.0160
     16 O         -11.0945  -18.3394   24.5028 O.3     1  UNL1       -0.4755
     17 C         -12.1622  -18.0570   23.4879 C.3     1  UNL1        0.2054
     18 C         -11.7837  -17.6602   22.0916 C.3     1  UNL1        0.0465
     19 C         -11.7371  -16.2101   21.7106 C.3     1  UNL1        0.0208
     20 C         -11.3586  -15.8135   20.3144 C.3     1  UNL1        0.0687
     21 N         -11.0267  -16.8667   19.2993 N.3     1  UNL1       -0.2975
     22 C         -11.0733  -18.3167   19.6804 C.3     1  UNL1        0.0687
     23 C         -11.4518  -18.7134   21.0766 C.3     1  UNL1        0.0208
     24 H         -10.0774  -16.6771   18.9779 H       1  UNL1        0.1232
@<TRIPOS>BOND
     1     1     2   ar
     2     2     3   ar
     3     3     4   ar
     4     4     5   ar
     5     5     6   ar
     6     6    16    1
     7    16    17    1
     8    17    18    1
     9    18    19    1
    10    19    20    1
    11    20    21    1
    12    21    22    1
    13    22    23    1
    14     4     7    1
    15     7     8    1
    16     8     9    1
    17     9    12    1
    18    12    13    1
    19    13    14    1
    20    14    15    1
    21     9    10    1
    22    10    11    1
    23     6     1   ar
    24    23    18    1
    25    15    12    1
    26    11     3    1
    27    21    24    1
@<TRIPOS>MOLECULE
*****
 24 27 0 0 0
SMALL
GASTEIGER

@<TRIPOS>ATOM
      1 C          -5.5646  -17.8508   22.5568 C.ar    1  UNL1        0.0366
      2 C          -6.7611  -17.0882   23.0438 C.ar    1  UNL1       -0.0014
      3 C          -8.0959  -17.7664   23.1365 C.ar    1  UNL1       -0.0245
      4 C          -8.2342  -19.2069   22.7423 C.ar    1  UNL1       -0.0217
      5 C          -7.0379  -19.9695   22.2554 C.ar    1  UNL1        0.0324
      6 C          -5.7030  -19.2915   22.1626 C.ar    1  UNL1        0.1382
      7 C          -9.4630  -20.0671   22.7582 C.3     1  UNL1        0.0434
      8 C         -10.8570  -19.6989   23.1723 C.3     1  UNL1        0.0768
      9 N         -11.3663  -18.3798   23.6727 N.3     1  UNL1       -0.2734
     10 C         -10.6076  -17.1029   23.8826 C.3     1  UNL1        0.0768
     11 C          -9.1521  -16.8299   23.6440 C.3     1  UNL1        0.0433
     12 C         -12.8277  -18.3310   24.0074 C.3     1  UNL1        0.0575
     13 C         -14.0816  -18.0274   23.2421 C.3     1  UNL1        0.0160
     14 C         -14.8944  -18.2620   24.4808 C.3     1  UNL1        0.0028
     15 C         -13.6405  -18.5655   25.2461 C.3     1  UNL1        0.0160
     16 O          -4.5066  -20.0540   21.6756 O.3     1  UNL1       -0.4755
     17 C          -4.1193  -19.9967   20.2276 C.3     1  UNL1        0.2054
     18 C          -2.9468  -19.1661   19.7971 C.3     1  UNL1        0.0465
     19 C          -3.0394  -18.3217   18.5608 C.3     1  UNL1        0.0208
     20 C          -1.8668  -17.4911   18.1304 C.3     1  UNL1        0.0687
     21 N          -0.6018  -17.5049   18.9362 N.3     1  UNL1       -0.2975
     22 C          -0.5092  -18.3493   20.1726 C.3     1  UNL1        0.0687
     23 C          -1.6818  -19.1798   20.6029 C.3     1  UNL1        0.0208
     24 H          -0.4250  -16.5422   19.2233 H       1  UNL1        0.1232
@<TRIPOS>BOND
     1     1     2   ar
     2     2     3   ar
     3     3     4   ar
     4     4     5   ar
     5     5     6   ar
     6     6    16    1
     7    16    17    1
     8    17    18    1
     9    18    19    1
    10    19    20    1
    11    20    21    1
    12    21    22    1
    13    22    23    1
    14     4     7    1
    15     7     8    1
    16     8     9    1
    17     9    12    1
    18    12    13    1
    19    13    14    1
    20    14    15    1
    21     9    10    1
    22    10    11    1
    23     6     1   ar
    24    23    18    1
    25    15    12    1
    26    11     3    1
    27    21    24    1
@<TRIPOS>MOLECULE
*****
 24 27 0 0 0
SMALL
GASTEIGER

@<TRIPOS>ATOM
      1 C         -14.2290    1.0227   18.5564 C.ar    1  UNL1        0.0366
      2 C         -12.9392    0.3069   18.2838 C.ar    1  UNL1       -0.0014
      3 C         -12.8140   -1.1561   18.5906 C.ar    1  UNL1       -0.0245
      4 C         -13.9784   -1.9032   19.1699 C.ar    1  UNL1       -0.0217
      5 C         -15.2682   -1.1875   19.4425 C.ar    1  UNL1        0.0324
      6 C         -15.3935    0.2754   19.1358 C.ar    1  UNL1        0.1382
      7 C         -14.0658   -3.3525   19.5466 C.3     1  UNL1        0.0434
      8 C         -13.0101   -4.4126   19.4369 C.3     1  UNL1        0.0768
      9 N         -11.6066   -4.2851   18.9235 N.3     1  UNL1       -0.2734
     10 C         -10.9119   -3.0661   18.3929 C.3     1  UNL1        0.0768
     11 C         -11.4492   -1.6736   18.2447 C.3     1  UNL1        0.0433
     12 C         -10.7896   -5.5430   18.9432 C.3     1  UNL1        0.0575
     13 C         -11.0495   -6.9819   18.6086 C.3     1  UNL1        0.0160
     14 C          -9.6343   -7.3219   18.9711 C.3     1  UNL1        0.0028
     15 C          -9.3744   -5.8829   19.3056 C.3     1  UNL1        0.0160
     16 O         -16.6832    0.9912   19.4083 O.3     1  UNL1       -0.4755
     17 C         -16.6690    2.4388   19.8012 C.3     1  UNL1        0.2054
     18 C         -16.6898    2.8227   21.2511 C.3     1  UNL1        0.0465
     19 C         -17.4007    1.9546   22.2467 C.3     1  UNL1        0.0208
     20 C         -17.4215    2.3386   23.6965 C.3     1  UNL1        0.0687
     21 N         -16.7315    3.5905   24.1508 N.3     1  UNL1       -0.2975
     22 C         -16.0207    4.4586   23.1553 C.3     1  UNL1        0.0687
     23 C         -15.9999    4.0746   21.7054 C.3     1  UNL1        0.0208
     24 H         -16.0384    3.3096   24.8444 H       1  UNL1        0.1232
@<TRIPOS>BOND
     1     1     2   ar
     2     2     3   ar
     3     3     4   ar
     4     4     5   ar
     5     5     6   ar
     6     6    16    1
     7    16    17    1
     8    17    18    1
     9    18    19    1
    10    19    20    1
    11    20    21    1
    12    21    22    1
    13    22    23    1
    14     4     7    1
    15     7     8    1
    16     8     9    1
    17     9    12    1
    18    12    13    1
    19    13    14    1
    20    14    15    1
    21     9    10    1
    22    10    11    1
    23     6     1   ar
    24    23    18    1
    25    15    12    1
    26    11     3    1
    27    21    24    1
@<TRIPOS>MOLECULE
*****
 24 27 0 0 0
SMALL
GASTEIGER

@<TRIPOS>ATOM
      1 C           0.2869    2.4548   22.9498 C.ar    1  UNL1        0.0366
      2 C           0.3788    1.6341   21.6976 C.ar    1  UNL1       -0.0014
      3 C           1.3676    0.5096   21.6087 C.ar    1  UNL1       -0.0245
      4 C           2.2644    0.2059   22.7720 C.ar    1  UNL1       -0.0217
      5 C           2.1725    1.0266   24.0242 C.ar    1  UNL1        0.0324
      6 C           1.1837    2.1511   24.1131 C.ar    1  UNL1        0.1382
      7 C           3.3114   -0.8616   22.8921 C.3     1  UNL1        0.0434
      8 C           3.7201   -1.8889   21.8783 C.3     1  UNL1        0.0768
      9 N           3.1828   -2.1024   20.4943 N.3     1  UNL1       -0.2734
     10 C           2.1040   -1.3415   19.7821 C.3     1  UNL1        0.0768
     11 C           1.2962   -0.1790   20.2780 C.3     1  UNL1        0.0433
     12 C           3.8067   -3.2255   19.7201 C.3     1  UNL1        0.0575
     13 C           5.0547   -3.3859   18.9034 C.3     1  UNL1        0.0160
     14 C           4.6891   -4.8138   18.6250 C.3     1  UNL1        0.0028
     15 C           3.4412   -4.6534   19.4417 C.3     1  UNL1        0.0160
     16 O           1.0918    2.9718   25.3653 O.3     1  UNL1       -0.4755
     17 C          -0.0563    2.7726   26.3099 C.3     1  UNL1        0.2054
     18 C          -0.0121    1.6657   27.3212 C.3     1  UNL1        0.0465
     19 C           1.2988    1.0336   27.6845 C.3     1  UNL1        0.0208
     20 C           1.3429   -0.0734   28.6958 C.3     1  UNL1        0.0687
     21 N           0.0762   -0.5482   29.3438 N.3     1  UNL1       -0.2975
     22 C          -1.2347    0.0839   28.9804 C.3     1  UNL1        0.0687
     23 C          -1.2788    1.1908   27.9691 C.3     1  UNL1        0.0208
     24 H           0.1949   -0.4230   30.3491 H       1  UNL1        0.1232
@<TRIPOS>BOND
     1     1     2   ar
     2     2     3   ar
     3     3     4   ar
     4     4     5   ar
     5     5     6   ar
     6     6    16    1
     7    16    17    1
     8    17    18    1
     9    18    19    1
    10    19    20    1
    11    20    21    1
    12    21    22    1
    13    22    23    1
    14     4     7    1
    15     7     8    1
    16     8     9    1
    17     9    12    1
    18    12    13    1
    19    13    14    1
    20    14    15    1
    21     9    10    1
    22    10    11    1
    23     6     1   ar
    24    23    18    1
    25    15    12    1
    26    11     3    1
    27    21    24    1
@<TRIPOS>MOLECULE
*****
 24 27 0 0 0
SMALL
GASTEIGER

@<TRIPOS>ATOM
      1 C         -11.1469   -6.8133   17.8751 C.ar    1  UNL1        0.0366
      2 C         -12.1771   -7.8261   17.4711 C.ar    1  UNL1       -0.0014
      3 C         -13.5745   -7.7297   18.0078 C.ar    1  UNL1       -0.0245
      4 C         -13.9417   -6.6206   18.9484 C.ar    1  UNL1       -0.0217
      5 C         -12.9116   -5.6078   19.3525 C.ar    1  UNL1        0.0324
      6 C         -11.5142   -5.7042   18.8158 C.ar    1  UNL1        0.1382
      7 C         -15.2664   -6.3426   19.5949 C.3     1  UNL1        0.0434
      8 C         -16.5511   -7.1053   19.4603 C.3     1  UNL1        0.0768
      9 N         -16.8282   -8.3340   18.6460 N.3     1  UNL1       -0.2734
     10 C         -15.8893   -9.1039   17.7652 C.3     1  UNL1        0.0768
     11 C         -14.4412   -8.8349   17.4812 C.3     1  UNL1        0.0433
     12 C         -18.2298   -8.8631   18.7227 C.3     1  UNL1        0.0575
     13 C         -19.0174   -9.8931   17.9685 C.3     1  UNL1        0.0160
     14 C         -20.2119   -9.6114   18.8310 C.3     1  UNL1        0.0028
     15 C         -19.4242   -8.5814   19.5852 C.3     1  UNL1        0.0160
     16 O         -10.4841   -4.6915   19.2197 O.3     1  UNL1       -0.4755
     17 C          -9.9051   -3.7610   18.1954 C.3     1  UNL1        0.2054
     18 C         -10.6513   -2.5206   17.8021 C.3     1  UNL1        0.0465
     19 C         -11.5944   -1.8733   18.7724 C.3     1  UNL1        0.0208
     20 C         -12.3405   -0.6329   18.3791 C.3     1  UNL1        0.0687
     21 N         -12.1435   -0.0398   17.0155 N.3     1  UNL1       -0.2975
     22 C         -11.2004   -0.6871   16.0452 C.3     1  UNL1        0.0687
     23 C         -10.4543   -1.9275   16.4386 C.3     1  UNL1        0.0208
     24 H         -11.8132    0.9151   17.1547 H       1  UNL1        0.1232
@<TRIPOS>BOND
     1     1     2   ar
     2     2     3   ar
     3     3     4   ar
     4     4     5   ar
     5     5     6   ar
     6     6    16    1
     7    16    17    1
     8    17    18    1
     9    18    19    1
    10    19    20    1
    11    20    21    1
    12    21    22    1
    13    22    23    1
    14     4     7    1
    15     7     8    1
    16     8     9    1
    17     9    12    1
    18    12    13    1
    19    13    14    1
    20    14    15    1
    21     9    10    1
    22    10    11    1
    23     6     1   ar
    24    23    18    1
    25    15    12    1
    26    11     3    1
    27    21    24    1
@<TRIPOS>MOLECULE
*****
 24 27 0 0 0
SMALL
GASTEIGER

@<TRIPOS>ATOM
      1 C         -11.2644   -5.8115   18.9434 C.ar    1  UNL1        0.0366
      2 C         -10.9604   -4.3428   18.9180 C.ar    1  UNL1       -0.0014
      3 C         -12.0723   -3.3495   18.7531 C.ar    1  UNL1       -0.0245
      4 C         -13.4880   -3.8249   18.6136 C.ar    1  UNL1       -0.0217
      5 C         -13.7921   -5.2935   18.6391 C.ar    1  UNL1        0.0324
      6 C         -12.6802   -6.2868   18.8040 C.ar    1  UNL1        0.1382
      7 C         -14.7355   -3.0100   18.4407 C.3     1  UNL1        0.0434
      8 C         -14.8752   -1.5184   18.3646 C.3     1  UNL1        0.0768
      9 N         -13.8019   -0.4735   18.4425 N.3     1  UNL1       -0.2734
     10 C         -12.3239   -0.6618   18.6159 C.3     1  UNL1        0.0768
     11 C         -11.5542   -1.9418   18.7541 C.3     1  UNL1        0.0433
     12 C         -14.2684    0.9480   18.3326 C.3     1  UNL1        0.0575
     13 C         -13.9041    2.1202   17.4705 C.3     1  UNL1        0.0160
     14 C         -14.9280    2.9582   18.1772 C.3     1  UNL1        0.0028
     15 C         -15.2922    1.7860   19.0393 C.3     1  UNL1        0.0160
     16 O         -12.9841   -7.7555   18.8294 O.3     1  UNL1       -0.4755
     17 C         -14.0230   -8.3224   17.9078 C.3     1  UNL1        0.2054
     18 C         -15.2745   -8.9284   18.4706 C.3     1  UNL1        0.0465
     19 C         -16.0691   -8.1851   19.5031 C.3     1  UNL1        0.0208
     20 C         -17.3205   -8.7911   20.0658 C.3     1  UNL1        0.0687
     21 N         -17.7773  -10.1404   19.5961 N.3     1  UNL1       -0.2975
     22 C         -16.9827  -10.8837   18.5636 C.3     1  UNL1        0.0687
     23 C         -15.7312  -10.2777   18.0009 C.3     1  UNL1        0.0208
     24 H         -18.7148  -10.0172   19.2136 H       1  UNL1        0.1232
@<TRIPOS>BOND
     1     1     2   ar
     2     2     3   ar
     3     3     4   ar
     4     4     5   ar
     5     5     6   ar
     6     6    16    1
     7    16    17    1
     8    17    18    1
     9    18    19    1
    10    19    20    1
    11    20    21    1
    12    21    22    1
    13    22    23    1
    14     4     7    1
    15     7     8    1
    16     8     9    1
    17     9    12    1
    18    12    13    1
    19    13    14    1
    20    14    15    1
    21     9    10    1
    22    10    11    1
    23     6     1   ar
    24    23    18    1
    25    15    12    1
    26    11     3    1
    27    21    24    1
