@<TRIPOS>MOLECULE
*****
 27 29 0 0 0
SMALL
GASTEIGER

@<TRIPOS>ATOM
      1 N          -8.2630  -17.1856   22.6944 N.pl3   1  UNL1       -0.3035
      2 C          -4.3061  -20.1432   20.8300 C.2     1  UNL1        0.4050
      3 O          -4.0915  -21.1707   19.7585 O.2     1  UNL1       -0.2262
      4 N          -5.6619  -19.5303   21.0206 N.am    1  UNL1       -0.2443
      5 C          -6.8916  -19.8437   20.2207 C.3     1  UNL1        0.0986
      6 C          -8.0156  -19.0035   20.7504 C.3     1  UNL1        0.0431
      7 C          -7.4807  -18.1708   21.8776 C.3     1  UNL1        0.0947
      8 C          -6.0260  -18.4964   22.0446 C.3     1  UNL1        0.1164
      9 C          -2.1039  -18.8101   21.1811 C.3     1  UNL1        0.2573
     10 O          -3.1650  -19.7285   21.7108 O.3     1  UNL1       -0.4304
     11 C          -9.6809  -17.4885   23.0791 C.ar    1  UNL1        0.0490
     12 C          -9.9747  -18.5925   24.0512 C.ar    1  UNL1        0.0153
     13 C         -11.3925  -18.8955   24.4359 C.ar    1  UNL1        0.0124
     14 C         -12.5164  -18.0945   23.8486 C.ar    1  UNL1        0.0791
     15 C         -12.2227  -16.9905   22.8765 C.ar    1  UNL1        0.0685
     16 CL        -13.3467  -16.1895   22.2892 Cl      1  UNL1       -0.0815
     17 C         -10.8049  -16.6875   22.4918 C.ar    1  UNL1        0.0266
     18 C         -13.9343  -18.3974   24.2333 C.1     1  UNL1        0.1013
     19 N         -15.3521  -18.7004   24.6180 N.1     1  UNL1       -0.1908
     20 C          -7.6276  -15.8974   23.1265 C.3     1  UNL1        0.1174
     21 C          -7.3219  -15.6610   24.5759 C.ar    1  UNL1       -0.0064
     22 C          -8.4399  -15.5500   25.5698 C.ar    1  UNL1       -0.0029
     23 C          -8.1342  -15.3137   27.0191 C.ar    1  UNL1       -0.0003
     24 C          -6.7105  -15.1884   27.4746 C.ar    1  UNL1       -0.0003
     25 C          -5.5925  -15.2994   26.4807 C.ar    1  UNL1       -0.0045
     26 C          -5.8982  -15.5357   25.0314 C.ar    1  UNL1       -0.0242
     27 C          -4.7803  -15.6468   24.0375 C.3     1  UNL1        0.0308
@<TRIPOS>BOND
     1     9    10    1
     2    10     2    1
     3     2     3    2
     4     2     4   am
     5     4     5    1
     6     5     6    1
     7     6     7    1
     8     7     1    1
     9     1    20    1
    10    20    21    1
    11    21    22   ar
    12    22    23   ar
    13    23    24   ar
    14    24    25   ar
    15    25    26   ar
    16    26    27    1
    17     1    11    1
    18    11    12   ar
    19    12    13   ar
    20    13    14   ar
    21    14    18    1
    22    18    19    3
    23    14    15   ar
    24    15    16    1
    25    15    17   ar
    26     7     8    1
    27     8     4    1
    28    26    21   ar
    29    17    11   ar
@<TRIPOS>MOLECULE
*****
 27 29 0 0 0
SMALL
GASTEIGER

@<TRIPOS>ATOM
      1 N          -7.7859  -18.7088   21.5975 N.pl3   1  UNL1       -0.3035
      2 C          -2.5687  -19.5167   21.5069 C.2     1  UNL1        0.4050
      3 O          -1.5966  -20.4507   20.8492 O.2     1  UNL1       -0.2262
      4 N          -4.0380  -19.6510   21.2365 N.am    1  UNL1       -0.2443
      5 C          -4.6798  -20.6653   20.3367 C.3     1  UNL1        0.0986
      6 C          -6.1619  -20.4357   20.3624 C.3     1  UNL1        0.0431
      7 C          -6.4361  -19.2796   21.2781 C.3     1  UNL1        0.0947
      8 C          -5.1235  -18.7947   21.8182 C.3     1  UNL1        0.1164
      9 C          -2.0468  -17.0172   21.9867 C.3     1  UNL1        0.2573
     10 O          -2.0715  -18.4484   22.4351 O.3     1  UNL1       -0.4304
     11 C          -7.9835  -17.9052   22.8486 C.ar    1  UNL1        0.0490
     12 C          -9.0618  -18.2834   23.8204 C.ar    1  UNL1        0.0153
     13 C          -9.2594  -17.4799   25.0715 C.ar    1  UNL1        0.0124
     14 C          -8.3787  -16.2982   25.3508 C.ar    1  UNL1        0.0791
     15 C          -7.3004  -15.9201   24.3791 C.ar    1  UNL1        0.0685
     16 CL         -6.4197  -14.7384   24.6585 Cl      1  UNL1       -0.0815
     17 C          -7.1028  -16.7236   23.1280 C.ar    1  UNL1        0.0266
     18 C          -8.5763  -15.4947   26.6020 C.1     1  UNL1        0.1013
     19 N          -8.7738  -14.6911   27.8531 N.1     1  UNL1       -0.1908
     20 C          -8.9382  -18.9414   20.6657 C.3     1  UNL1        0.1174
     21 C         -10.2247  -18.1957   20.8632 C.ar    1  UNL1       -0.0064
     22 C         -10.3315  -16.7599   20.4424 C.ar    1  UNL1       -0.0029
     23 C         -11.6180  -16.0143   20.6399 C.ar    1  UNL1       -0.0003
     24 C         -12.7976  -16.7044   21.2580 C.ar    1  UNL1       -0.0003
     25 C         -12.6908  -18.1402   21.6788 C.ar    1  UNL1       -0.0045
     26 C         -11.4044  -18.8858   21.4814 C.ar    1  UNL1       -0.0242
     27 C         -11.2975  -20.3217   21.9021 C.3     1  UNL1        0.0308
@<TRIPOS>BOND
     1     9    10    1
     2    10     2    1
     3     2     3    2
     4     2     4   am
     5     4     5    1
     6     5     6    1
     7     6     7    1
     8     7     1    1
     9     1    20    1
    10    20    21    1
    11    21    22   ar
    12    22    23   ar
    13    23    24   ar
    14    24    25   ar
    15    25    26   ar
    16    26    27    1
    17     1    11    1
    18    11    12   ar
    19    12    13   ar
    20    13    14   ar
    21    14    18    1
    22    18    19    3
    23    14    15   ar
    24    15    16    1
    25    15    17   ar
    26     7     8    1
    27     8     4    1
    28    26    21   ar
    29    17    11   ar
@<TRIPOS>MOLECULE
*****
 27 29 0 0 0
SMALL
GASTEIGER

@<TRIPOS>ATOM
      1 N          -8.0368  -18.1670   22.0537 N.pl3   1  UNL1       -0.3035
      2 C          -2.9086  -19.3697   21.6855 C.2     1  UNL1        0.4050
      3 O          -2.0448  -20.3585   20.9601 O.2     1  UNL1       -0.2262
      4 N          -4.3952  -19.3841   21.4858 N.am    1  UNL1       -0.2443
      5 C          -5.1565  -20.3231   20.5976 C.3     1  UNL1        0.0986
      6 C          -6.6133  -19.9814   20.7022 C.3     1  UNL1        0.0431
      7 C          -6.7524  -18.8313   21.6551 C.3     1  UNL1        0.0947
      8 C          -5.3816  -18.4622   22.1394 C.3     1  UNL1        0.1164
      9 C          -2.1199  -16.9422   22.1703 C.3     1  UNL1        0.2573
     10 O          -2.2858  -18.3665   22.6105 O.3     1  UNL1       -0.4304
     11 C          -8.1031  -17.3590   23.3158 C.ar    1  UNL1        0.0490
     12 C          -7.5737  -15.9557   23.3366 C.ar    1  UNL1        0.0153
     13 C          -7.6400  -15.1477   24.5986 C.ar    1  UNL1        0.0124
     14 C          -8.2358  -15.7430   25.8398 C.ar    1  UNL1        0.0791
     15 C          -8.7652  -17.1463   25.8189 C.ar    1  UNL1        0.0685
     16 CL         -9.3610  -17.7416   27.0602 Cl      1  UNL1       -0.0815
     17 C          -8.6989  -17.9543   24.5569 C.ar    1  UNL1        0.0266
     18 C          -8.3021  -14.9350   27.1019 C.1     1  UNL1        0.1013
     19 N          -8.3684  -14.1270   28.3639 N.1     1  UNL1       -0.1908
     20 C          -9.2549  -18.3106   21.1902 C.3     1  UNL1        0.1174
     21 C         -10.5999  -17.9069   21.7176 C.ar    1  UNL1       -0.0064
     22 C         -11.4210  -18.8844   22.5050 C.ar    1  UNL1       -0.0029
     23 C         -12.7660  -18.4807   23.0324 C.ar    1  UNL1       -0.0003
     24 C         -13.2897  -17.0993   22.7723 C.ar    1  UNL1       -0.0003
     25 C         -12.4686  -16.1218   21.9849 C.ar    1  UNL1       -0.0045
     26 C         -11.1237  -16.5256   21.4575 C.ar    1  UNL1       -0.0242
     27 C         -10.3025  -15.5480   20.6700 C.3     1  UNL1        0.0308
@<TRIPOS>BOND
     1     9    10    1
     2    10     2    1
     3     2     3    2
     4     2     4   am
     5     4     5    1
     6     5     6    1
     7     6     7    1
     8     7     1    1
     9     1    20    1
    10    20    21    1
    11    21    22   ar
    12    22    23   ar
    13    23    24   ar
    14    24    25   ar
    15    25    26   ar
    16    26    27    1
    17     1    11    1
    18    11    12   ar
    19    12    13   ar
    20    13    14   ar
    21    14    18    1
    22    18    19    3
    23    14    15   ar
    24    15    16    1
    25    15    17   ar
    26     7     8    1
    27     8     4    1
    28    26    21   ar
    29    17    11   ar
@<TRIPOS>MOLECULE
*****
 27 29 0 0 0
SMALL
GASTEIGER

@<TRIPOS>ATOM
      1 N         -13.6998   -4.2810   18.9176 N.pl3   1  UNL1       -0.3035
      2 C         -16.8636   -0.0736   19.3277 C.2     1  UNL1        0.4050
      3 O         -17.5369    0.9080   18.4150 O.2     1  UNL1       -0.2262
      4 N         -16.0113   -1.1672   18.7554 N.am    1  UNL1       -0.2443
      5 C         -15.7412   -1.4039   17.2990 C.3     1  UNL1        0.0986
      6 C         -14.8424   -2.5991   17.1825 C.3     1  UNL1        0.0431
      7 C         -14.5570   -3.1012   18.5669 C.3     1  UNL1        0.0947
      8 C         -15.2794   -2.2162   19.5390 C.3     1  UNL1        0.1164
      9 C         -17.2194    1.3861   21.4474 C.3     1  UNL1        0.2573
     10 O         -17.0426    0.0385   20.8128 O.3     1  UNL1       -0.4304
     11 C         -14.2666   -5.6679   18.8453 C.ar    1  UNL1        0.0490
     12 C         -13.4946   -6.7591   18.1646 C.ar    1  UNL1        0.0153
     13 C         -14.0614   -8.1460   18.0923 C.ar    1  UNL1        0.0124
     14 C         -15.4002   -8.4417   18.7007 C.ar    1  UNL1        0.0791
     15 C         -16.1722   -7.3505   19.3814 C.ar    1  UNL1        0.0685
     16 CL        -17.5111   -7.6463   19.9898 Cl      1  UNL1       -0.0815
     17 C         -15.6054   -5.9636   19.4537 C.ar    1  UNL1        0.0266
     18 C         -15.9671   -9.8286   18.6284 C.1     1  UNL1        0.1013
     19 N         -16.5338  -11.2155   18.5561 N.1     1  UNL1       -0.1908
     20 C         -12.2756   -4.0740   19.3407 C.3     1  UNL1        0.1174
     21 C         -11.2077   -3.8731   18.3066 C.ar    1  UNL1       -0.0064
     22 C         -11.1925   -2.6235   17.4770 C.ar    1  UNL1       -0.0029
     23 C         -10.1246   -2.4228   16.4430 C.ar    1  UNL1       -0.0003
     24 C          -9.0719   -3.4716   16.2385 C.ar    1  UNL1       -0.0003
     25 C          -9.0871   -4.7212   17.0681 C.ar    1  UNL1       -0.0045
     26 C         -10.1550   -4.9219   18.1021 C.ar    1  UNL1       -0.0242
     27 C         -10.1702   -6.1716   18.9318 C.3     1  UNL1        0.0308
@<TRIPOS>BOND
     1     9    10    1
     2    10     2    1
     3     2     3    2
     4     2     4   am
     5     4     5    1
     6     5     6    1
     7     6     7    1
     8     7     1    1
     9     1    20    1
    10    20    21    1
    11    21    22   ar
    12    22    23   ar
    13    23    24   ar
    14    24    25   ar
    15    25    26   ar
    16    26    27    1
    17     1    11    1
    18    11    12   ar
    19    12    13   ar
    20    13    14   ar
    21    14    18    1
    22    18    19    3
    23    14    15   ar
    24    15    16    1
    25    15    17   ar
    26     7     8    1
    27     8     4    1
    28    26    21   ar
    29    17    11   ar
@<TRIPOS>MOLECULE
*****
 27 29 0 0 0
SMALL
GASTEIGER

@<TRIPOS>ATOM
      1 N         -14.8090   -4.9805   19.1275 N.pl3   1  UNL1       -0.3035
      2 C         -16.2879    0.0842   19.3320 C.2     1  UNL1        0.4050
      3 O         -16.4186    1.2462   18.3924 O.2     1  UNL1       -0.2262
      4 N         -15.8045   -1.2413   18.8228 N.am    1  UNL1       -0.2443
      5 C         -15.4166   -1.5542   17.4080 C.3     1  UNL1        0.0986
      6 C         -14.9965   -2.9929   17.3499 C.3     1  UNL1        0.0431
      7 C         -15.1247   -3.5693   18.7288 C.3     1  UNL1        0.0947
      8 C         -15.6241   -2.4868   19.6391 C.3     1  UNL1        0.1164
      9 C         -17.5646    1.3497   21.2078 C.3     1  UNL1        0.2573
     10 O         -16.6407    0.2479   20.7807 O.3     1  UNL1       -0.4304
     11 C         -15.7189   -6.0985   18.7125 C.ar    1  UNL1        0.0490
     12 C         -15.4383   -6.8663   17.4548 C.ar    1  UNL1        0.0153
     13 C         -16.3481   -7.9843   17.0398 C.ar    1  UNL1        0.0124
     14 C         -17.5386   -8.3345   17.8824 C.ar    1  UNL1        0.0791
     15 C         -17.8192   -7.5667   19.1401 C.ar    1  UNL1        0.0685
     16 CL        -19.0097   -7.9170   19.9828 Cl      1  UNL1       -0.0815
     17 C         -16.9094   -6.4487   19.5551 C.ar    1  UNL1        0.0266
     18 C         -18.4485   -9.4525   17.4674 C.1     1  UNL1        0.1013
     19 N         -19.3583  -10.5705   17.0525 N.1     1  UNL1       -0.1908
     20 C         -13.5834   -5.2737   19.9411 C.3     1  UNL1        0.1174
     21 C         -12.2688   -5.5101   19.2584 C.ar    1  UNL1       -0.0064
     22 C         -11.8511   -6.9049   18.8979 C.ar    1  UNL1       -0.0029
     23 C         -10.5366   -7.1413   18.2152 C.ar    1  UNL1       -0.0003
     24 C          -9.6398   -5.9829   17.8930 C.ar    1  UNL1       -0.0003
     25 C         -10.0575   -4.5881   18.2534 C.ar    1  UNL1       -0.0045
     26 C         -11.3720   -4.3517   18.9361 C.ar    1  UNL1       -0.0242
     27 C         -11.7898   -2.9568   19.2966 C.3     1  UNL1        0.0308
@<TRIPOS>BOND
     1     9    10    1
     2    10     2    1
     3     2     3    2
     4     2     4   am
     5     4     5    1
     6     5     6    1
     7     6     7    1
     8     7     1    1
     9     1    20    1
    10    20    21    1
    11    21    22   ar
    12    22    23   ar
    13    23    24   ar
    14    24    25   ar
    15    25    26   ar
    16    26    27    1
    17     1    11    1
    18    11    12   ar
    19    12    13   ar
    20    13    14   ar
    21    14    18    1
    22    18    19    3
    23    14    15   ar
    24    15    16    1
    25    15    17   ar
    26     7     8    1
    27     8     4    1
    28    26    21   ar
    29    17    11   ar
