@<TRIPOS>MOLECULE
*****
 30 34 0 0 0
SMALL
GASTEIGER

@<TRIPOS>ATOM
      1 C           6.7259   -4.3778   23.8976 C.ar    1  UNL1        0.1856
      2 N           7.6467   -5.1360   22.9880 N.ar    1  UNL1       -0.1274
      3 N           7.3474   -4.7237   21.5772 N.ar    1  UNL1       -0.1316
      4 C           6.2417   -3.7108   21.6148 C.ar    1  UNL1        0.1615
      5 N           5.8576   -3.4970   23.0490 N.ar    1  UNL1       -0.2944
      6 C           4.7669   -2.5279   23.3968 C.3     1  UNL1        0.1302
      7 C           4.0602   -1.7725   22.3105 C.3     1  UNL1        0.1186
      8 N           4.4442   -1.9863   20.8764 N.am    1  UNL1       -0.2688
      9 C           3.7376   -1.2310   19.7901 C.2     1  UNL1        0.2493
     10 O           4.1216   -1.4448   18.3559 O.2     1  UNL1       -0.2699
     11 C           5.5350   -2.9555   20.5285 C.3     1  UNL1        0.1343
     12 C           5.9191   -3.1693   19.0944 C.3     1  UNL1        0.0298
     13 C           6.1605   -2.1342   28.5502 C.3     1  UNL1        0.0538
     14 C           6.3986   -3.3604   27.7196 C.ar    1  UNL1        0.0786
     15 C           6.5921   -4.6908   28.3848 C.ar    1  UNL1        0.1136
     16 N           6.8302   -5.9170   27.5542 N.ar    1  UNL1       -0.2394
     17 C           6.8748   -5.8126   26.0585 C.ar    1  UNL1        0.1210
     18 C           6.6813   -4.4821   25.3933 C.ar    1  UNL1        0.1358
     19 N           6.4432   -3.2560   26.2239 N.ar    1  UNL1       -0.2434
     20 C           2.6468   -0.2619   20.1379 C.ar    1  UNL1        0.0536
     21 C           2.9774    1.1782   20.3965 C.ar    1  UNL1        0.0045
     22 C           1.8865    2.1474   20.7444 C.ar    1  UNL1        0.0006
     23 C           0.4652    1.6764   20.8337 C.ar    1  UNL1        0.0060
     24 C           0.1347    0.2363   20.5751 C.ar    1  UNL1        0.0006
     25 C           1.2254   -0.7328   20.2272 C.ar    1  UNL1        0.0045
     26 C          -0.6256    2.6455   21.1815 C.ar    1  UNL1        0.0295
     27 C          -1.6653    3.1778   20.2404 C.ar    1  UNL1        0.0070
     28 C          -2.5504    4.1137   21.0088 C.ar    1  UNL1        0.0075
     29 C          -2.0579    4.1598   22.4250 C.ar    1  UNL1        0.0354
     30 S          -0.8682    3.2524   22.5317 S.2     1  UNL1       -0.0864
@<TRIPOS>BOND
     1    13    14    1
     2    14    15   ar
     3    15    16   ar
     4    16    17   ar
     5    17    18   ar
     6    18     1    1
     7     1     2   ar
     8     2     3   ar
     9     3     4   ar
    10     4     5   ar
    11     5     6    1
    12     6     7    1
    13     7     8    1
    14     8     9   am
    15     9    10    2
    16     9    20    1
    17    20    21   ar
    18    21    22   ar
    19    22    23   ar
    20    23    26    1
    21    26    27   ar
    22    27    28   ar
    23    28    29   ar
    24    29    30   ar
    25    23    24   ar
    26    24    25   ar
    27     8    11    1
    28    11    12    1
    29    18    19   ar
    30    19    14   ar
    31     5     1   ar
    32    25    20   ar
    33    11     4    1
    34    30    26   ar
@<TRIPOS>MOLECULE
*****
 30 34 0 0 0
SMALL
GASTEIGER

@<TRIPOS>ATOM
      1 C           2.2551   -0.1153   19.2274 C.ar    1  UNL1        0.1856
      2 N           1.3959    0.6185   18.2409 N.ar    1  UNL1       -0.1274
      3 N           0.4872    1.5329   19.0078 N.ar    1  UNL1       -0.1316
      4 C           0.7848    1.3642   20.4683 C.ar    1  UNL1        0.1615
      5 N           1.8775    0.3456   20.6040 N.ar    1  UNL1       -0.2944
      6 C           2.3874   -0.0307   21.9635 C.3     1  UNL1        0.1302
      7 C           1.8046    0.6116   23.1874 C.3     1  UNL1        0.1186
      8 N           0.7119    1.6303   23.0517 N.am    1  UNL1       -0.2688
      9 C           0.1291    2.2726   24.2755 C.2     1  UNL1        0.2493
     10 O          -0.9636    3.2912   24.1397 O.2     1  UNL1       -0.2699
     11 C           0.2020    2.0066   21.6921 C.3     1  UNL1        0.1343
     12 C          -0.8907    3.0252   21.5563 C.3     1  UNL1        0.0298
     13 C           4.0057   -5.0043   19.4094 C.3     1  UNL1        0.0538
     14 C           4.1827   -3.5760   18.9866 C.ar    1  UNL1        0.0786
     15 C           5.4118   -3.1640   18.2320 C.ar    1  UNL1        0.1136
     16 N           5.5888   -1.7358   17.8092 N.ar    1  UNL1       -0.2394
     17 C           4.5365   -0.7196   18.1410 C.ar    1  UNL1        0.1210
     18 C           3.3073   -1.1316   18.8956 C.ar    1  UNL1        0.1358
     19 N           3.1304   -2.5598   19.3184 N.ar    1  UNL1       -0.2434
     20 C           0.6390    1.8963   25.6350 C.ar    1  UNL1        0.0536
     21 C           1.9920    2.3628   26.0842 C.ar    1  UNL1        0.0045
     22 C           2.5019    1.9865   27.4438 C.ar    1  UNL1        0.0006
     23 C           1.6588    1.1436   28.3541 C.ar    1  UNL1        0.0060
     24 C           0.3058    0.6771   27.9049 C.ar    1  UNL1        0.0006
     25 C          -0.2041    1.0534   26.5454 C.ar    1  UNL1        0.0045
     26 C           2.1686    0.7673   29.7138 C.ar    1  UNL1        0.0295
     27 C           2.8046   -0.5391   30.0864 C.ar    1  UNL1        0.0070
     28 C           3.1611   -0.4825   31.5423 C.ar    1  UNL1        0.0075
     29 C           2.7454    0.8589   32.0695 C.ar    1  UNL1        0.0354
     30 S           2.1320    1.6313   30.9393 S.2     1  UNL1       -0.0864
@<TRIPOS>BOND
     1    13    14    1
     2    14    15   ar
     3    15    16   ar
     4    16    17   ar
     5    17    18   ar
     6    18     1    1
     7     1     2   ar
     8     2     3   ar
     9     3     4   ar
    10     4     5   ar
    11     5     6    1
    12     6     7    1
    13     7     8    1
    14     8     9   am
    15     9    10    2
    16     9    20    1
    17    20    21   ar
    18    21    22   ar
    19    22    23   ar
    20    23    26    1
    21    26    27   ar
    22    27    28   ar
    23    28    29   ar
    24    29    30   ar
    25    23    24   ar
    26    24    25   ar
    27     8    11    1
    28    11    12    1
    29    18    19   ar
    30    19    14   ar
    31     5     1   ar
    32    25    20   ar
    33    11     4    1
    34    30    26   ar
@<TRIPOS>MOLECULE
*****
 30 34 0 0 0
SMALL
GASTEIGER

@<TRIPOS>ATOM
      1 C           6.5426   -3.9602   23.1587 C.ar    1  UNL1        0.1856
      2 N           7.4178   -4.8061   22.2820 N.ar    1  UNL1       -0.1274
      3 N           7.0734   -4.5040   20.8537 N.ar    1  UNL1       -0.1316
      4 C           5.9853   -3.4715   20.8476 C.ar    1  UNL1        0.1615
      5 N           5.6572   -3.1354   22.2722 N.ar    1  UNL1       -0.2944
      6 C           4.5948   -2.1218   22.5781 C.3     1  UNL1        0.1302
      7 C           3.8602   -1.4442   21.4594 C.3     1  UNL1        0.1186
      8 N           4.1883   -1.7802   20.0348 N.am    1  UNL1       -0.2688
      9 C           3.4538   -1.1027   18.9162 C.2     1  UNL1        0.2493
     10 O           3.7819   -1.4387   17.4916 O.2     1  UNL1       -0.2699
     11 C           5.2508   -2.7939   19.7289 C.3     1  UNL1        0.1343
     12 C           5.5789   -3.1300   18.3044 C.3     1  UNL1        0.0298
     13 C           7.3556   -6.3822   27.6834 C.3     1  UNL1        0.0538
     14 C           6.9577   -5.1533   26.9209 C.ar    1  UNL1        0.0786
     15 C           6.5683   -3.9065   27.6583 C.ar    1  UNL1        0.1136
     16 N           6.1704   -2.6775   26.8959 N.ar    1  UNL1       -0.2394
     17 C           6.1619   -2.6955   25.3960 C.ar    1  UNL1        0.1210
     18 C           6.5512   -3.9423   24.6585 C.ar    1  UNL1        0.1358
     19 N           6.9491   -5.1713   25.4210 N.ar    1  UNL1       -0.2434
     20 C           2.3913   -0.0891   19.2221 C.ar    1  UNL1        0.0536
     21 C           1.1838   -0.4854   20.0188 C.ar    1  UNL1        0.0045
     22 C           0.1213    0.5283   20.3248 C.ar    1  UNL1        0.0006
     23 C           0.2663    1.9383   19.8340 C.ar    1  UNL1        0.0060
     24 C           1.4739    2.3346   19.0372 C.ar    1  UNL1        0.0006
     25 C           2.5364    1.3210   18.7313 C.ar    1  UNL1        0.0045
     26 C          -0.7962    2.9520   20.1399 C.ar    1  UNL1        0.0295
     27 C          -1.4366    3.1821   21.4766 C.ar    1  UNL1        0.0070
     28 C          -2.4410    4.2858   21.3256 C.ar    1  UNL1        0.0075
     29 C          -2.4214    4.7380   19.8955 C.ar    1  UNL1        0.0354
     30 S          -1.4048    3.9136   19.1626 S.2     1  UNL1       -0.0864
@<TRIPOS>BOND
     1    13    14    1
     2    14    15   ar
     3    15    16   ar
     4    16    17   ar
     5    17    18   ar
     6    18     1    1
     7     1     2   ar
     8     2     3   ar
     9     3     4   ar
    10     4     5   ar
    11     5     6    1
    12     6     7    1
    13     7     8    1
    14     8     9   am
    15     9    10    2
    16     9    20    1
    17    20    21   ar
    18    21    22   ar
    19    22    23   ar
    20    23    26    1
    21    26    27   ar
    22    27    28   ar
    23    28    29   ar
    24    29    30   ar
    25    23    24   ar
    26    24    25   ar
    27     8    11    1
    28    11    12    1
    29    18    19   ar
    30    19    14   ar
    31     5     1   ar
    32    25    20   ar
    33    11     4    1
    34    30    26   ar
@<TRIPOS>MOLECULE
*****
 30 34 0 0 0
SMALL
GASTEIGER

@<TRIPOS>ATOM
      1 C           1.1832    4.7202   34.6954 C.ar    1  UNL1        0.1856
      2 N           1.1081    5.2293   36.1044 N.ar    1  UNL1       -0.1274
      3 N           1.9436    4.3305   36.9670 N.ar    1  UNL1       -0.1316
      4 C           2.5350    3.2660   36.0912 C.ar    1  UNL1        0.1615
      5 N           2.0650    3.5069   34.6873 N.ar    1  UNL1       -0.2944
      6 C           2.5008    2.5902   33.5828 C.3     1  UNL1        0.1302
      7 C           3.4066    1.4326   33.8823 C.3     1  UNL1        0.1186
      8 N           3.8765    1.1918   35.2863 N.am    1  UNL1       -0.2688
      9 C           4.7823    0.0343   35.5858 C.2     1  UNL1        0.2493
     10 O           5.2522   -0.2066   36.9898 O.2     1  UNL1       -0.2699
     11 C           3.4407    2.1085   36.3908 C.3     1  UNL1        0.1343
     12 C           3.9107    1.8676   37.7947 C.3     1  UNL1        0.0298
     13 C          -2.7840    7.3847   32.6553 C.3     1  UNL1        0.0538
     14 C          -1.4867    6.6516   32.4836 C.ar    1  UNL1        0.0786
     15 C          -0.8756    6.5176   31.1203 C.ar    1  UNL1        0.1136
     16 N           0.4217    5.7845   30.9487 N.ar    1  UNL1       -0.2394
     17 C           1.1079    5.1854   32.1404 C.ar    1  UNL1        0.1210
     18 C           0.4969    5.3194   33.5037 C.ar    1  UNL1        0.1358
     19 N          -0.8004    6.0525   33.6754 N.ar    1  UNL1       -0.2434
     20 C           5.2180   -0.8824   34.4814 C.ar    1  UNL1        0.0536
     21 C           4.3185   -1.9953   34.0315 C.ar    1  UNL1        0.0045
     22 C           4.7544   -2.9119   32.9270 C.ar    1  UNL1        0.0006
     23 C           6.0897   -2.7157   32.2725 C.ar    1  UNL1        0.0060
     24 C           6.9892   -1.6028   32.7224 C.ar    1  UNL1        0.0006
     25 C           6.5534   -0.6862   33.8268 C.ar    1  UNL1        0.0045
     26 C           6.5255   -3.6324   31.1680 C.ar    1  UNL1        0.0295
     27 C           6.5636   -3.2963   29.7066 C.ar    1  UNL1        0.0070
     28 C           7.0614   -4.5022   28.9665 C.ar    1  UNL1        0.0075
     29 C           7.3310   -5.5837   29.9704 C.ar    1  UNL1        0.0354
     30 S           6.9997   -5.0461   31.3311 S.2     1  UNL1       -0.0864
@<TRIPOS>BOND
     1    13    14    1
     2    14    15   ar
     3    15    16   ar
     4    16    17   ar
     5    17    18   ar
     6    18     1    1
     7     1     2   ar
     8     2     3   ar
     9     3     4   ar
    10     4     5   ar
    11     5     6    1
    12     6     7    1
    13     7     8    1
    14     8     9   am
    15     9    10    2
    16     9    20    1
    17    20    21   ar
    18    21    22   ar
    19    22    23   ar
    20    23    26    1
    21    26    27   ar
    22    27    28   ar
    23    28    29   ar
    24    29    30   ar
    25    23    24   ar
    26    24    25   ar
    27     8    11    1
    28    11    12    1
    29    18    19   ar
    30    19    14   ar
    31     5     1   ar
    32    25    20   ar
    33    11     4    1
    34    30    26   ar
@<TRIPOS>MOLECULE
*****
 30 34 0 0 0
SMALL
GASTEIGER

@<TRIPOS>ATOM
      1 C           6.1365   -2.8877   25.4971 C.ar    1  UNL1        0.1856
      2 N           6.6143   -4.2308   25.0303 N.ar    1  UNL1       -0.1274
      3 N           6.9277   -5.0580   26.2418 N.ar    1  UNL1       -0.1316
      4 C           6.6436   -4.2261   27.4572 C.ar    1  UNL1        0.1615
      5 N           6.1547   -2.8848   26.9970 N.ar    1  UNL1       -0.2944
      6 C           5.7892   -1.8341   28.0031 C.3     1  UNL1        0.1302
      7 C           5.9126   -2.1246   29.4696 C.3     1  UNL1        0.1186
      8 N           6.4016   -3.4659   29.9298 N.am    1  UNL1       -0.2688
      9 C           6.5250   -3.7565   31.3962 C.2     1  UNL1        0.2493
     10 O           7.0139   -5.0978   31.8564 O.2     1  UNL1       -0.2699
     11 C           6.7671   -4.5167   28.9236 C.3     1  UNL1        0.1343
     12 C           7.2560   -5.8580   29.3839 C.3     1  UNL1        0.0298
     13 C           2.8311   -0.8528   22.0427 C.3     1  UNL1        0.0538
     14 C           4.0620   -0.7302   22.8911 C.ar    1  UNL1        0.0786
     15 C           4.8711    0.5325   22.8606 C.ar    1  UNL1        0.1136
     16 N           6.1020    0.6552   23.7090 N.ar    1  UNL1       -0.2394
     17 C           6.5238   -0.4850   24.5878 C.ar    1  UNL1        0.1210
     18 C           5.7147   -1.7477   24.6183 C.ar    1  UNL1        0.1358
     19 N           4.4838   -1.8703   23.7699 N.ar    1  UNL1       -0.2434
     20 C           6.1595   -2.7058   32.4023 C.ar    1  UNL1        0.0536
     21 C           4.7753   -2.6689   32.9790 C.ar    1  UNL1        0.0045
     22 C           4.4098   -1.6181   33.9852 C.ar    1  UNL1        0.0006
     23 C           5.4285   -0.6043   34.4146 C.ar    1  UNL1        0.0060
     24 C           6.8127   -0.6412   33.8379 C.ar    1  UNL1        0.0006
     25 C           7.1782   -1.6919   32.8318 C.ar    1  UNL1        0.0045
     26 C           5.0630    0.4465   35.4208 C.ar    1  UNL1        0.0295
     27 C           4.6963    0.2043   36.8550 C.ar    1  UNL1        0.0070
     28 C           4.4067    1.5321   37.4899 C.ar    1  UNL1        0.0075
     29 C           4.5944    2.5949   36.4482 C.ar    1  UNL1        0.0354
     30 S           5.0001    1.9239   35.1693 S.2     1  UNL1       -0.0864
@<TRIPOS>BOND
     1    13    14    1
     2    14    15   ar
     3    15    16   ar
     4    16    17   ar
     5    17    18   ar
     6    18     1    1
     7     1     2   ar
     8     2     3   ar
     9     3     4   ar
    10     4     5   ar
    11     5     6    1
    12     6     7    1
    13     7     8    1
    14     8     9   am
    15     9    10    2
    16     9    20    1
    17    20    21   ar
    18    21    22   ar
    19    22    23   ar
    20    23    26    1
    21    26    27   ar
    22    27    28   ar
    23    28    29   ar
    24    29    30   ar
    25    23    24   ar
    26    24    25   ar
    27     8    11    1
    28    11    12    1
    29    18    19   ar
    30    19    14   ar
    31     5     1   ar
    32    25    20   ar
    33    11     4    1
    34    30    26   ar
@<TRIPOS>MOLECULE
*****
 30 34 0 0 0
SMALL
GASTEIGER

@<TRIPOS>ATOM
      1 C          -0.8309    3.3645   26.9924 C.ar    1  UNL1        0.1856
      2 N          -1.9159    4.3955   26.8943 N.ar    1  UNL1       -0.1274
      3 N          -2.2225    4.6090   25.4416 N.ar    1  UNL1       -0.1316
      4 C          -1.3269    3.7100   24.6418 C.ar    1  UNL1        0.1615
      5 N          -0.4668    2.9408   25.6002 N.ar    1  UNL1       -0.2944
      6 C           0.5367    1.9540   25.0815 C.3     1  UNL1        0.1302
      7 C           0.6802    1.7364   23.6043 C.3     1  UNL1        0.1186
      8 N          -0.1799    2.5055   22.6459 N.am    1  UNL1       -0.2688
      9 C          -0.0365    2.2879   21.1687 C.2     1  UNL1        0.2493
     10 O          -0.8966    3.0571   20.2103 O.2     1  UNL1       -0.2699
     11 C          -1.1835    3.4924   23.1647 C.3     1  UNL1        0.1343
     12 C          -2.0436    4.2615   22.2062 C.3     1  UNL1        0.0298
     13 C           1.8396    4.2083   31.3692 C.3     1  UNL1        0.0538
     14 C           1.1178    3.2697   30.4484 C.ar    1  UNL1        0.0786
     15 C           1.0093    1.8144   30.7952 C.ar    1  UNL1        0.1136
     16 N           0.2875    0.8758   29.8744 N.ar    1  UNL1       -0.2394
     17 C          -0.3259    1.3925   28.6068 C.ar    1  UNL1        0.1210
     18 C          -0.2175    2.8478   28.2600 C.ar    1  UNL1        0.1358
     19 N           0.5044    3.7865   29.1808 N.ar    1  UNL1       -0.2434
     20 C           0.9671    1.3011   20.6500 C.ar    1  UNL1        0.0536
     21 C           0.5803   -0.1367   20.4683 C.ar    1  UNL1        0.0045
     22 C           1.5840   -1.1235   19.9496 C.ar    1  UNL1        0.0006
     23 C           2.9742   -0.6725   19.6125 C.ar    1  UNL1        0.0060
     24 C           3.3610    0.7654   19.7942 C.ar    1  UNL1        0.0006
     25 C           2.3574    1.7522   20.3129 C.ar    1  UNL1        0.0045
     26 C           3.9779   -1.6593   19.0938 C.ar    1  UNL1        0.0295
     27 C           3.8552   -3.1532   19.1488 C.ar    1  UNL1        0.0070
     28 C           5.0819   -3.7426   18.5180 C.ar    1  UNL1        0.0075
     29 C           5.9627   -2.6128   18.0730 C.ar    1  UNL1        0.0354
     30 S           5.2803   -1.3252   18.4289 S.2     1  UNL1       -0.0864
@<TRIPOS>BOND
     1    13    14    1
     2    14    15   ar
     3    15    16   ar
     4    16    17   ar
     5    17    18   ar
     6    18     1    1
     7     1     2   ar
     8     2     3   ar
     9     3     4   ar
    10     4     5   ar
    11     5     6    1
    12     6     7    1
    13     7     8    1
    14     8     9   am
    15     9    10    2
    16     9    20    1
    17    20    21   ar
    18    21    22   ar
    19    22    23   ar
    20    23    26    1
    21    26    27   ar
    22    27    28   ar
    23    28    29   ar
    24    29    30   ar
    25    23    24   ar
    26    24    25   ar
    27     8    11    1
    28    11    12    1
    29    18    19   ar
    30    19    14   ar
    31     5     1   ar
    32    25    20   ar
    33    11     4    1
    34    30    26   ar
@<TRIPOS>MOLECULE
*****
 30 34 0 0 0
SMALL
GASTEIGER

@<TRIPOS>ATOM
      1 C         -11.9883   -0.6372   17.3797 C.ar    1  UNL1        0.1856
      2 N         -10.5122   -0.6458   17.1127 N.ar    1  UNL1       -0.1274
      3 N         -10.0622   -2.0750   17.0428 N.ar    1  UNL1       -0.1316
      4 C         -11.2600   -2.9497   17.2666 C.ar    1  UNL1        0.1615
      5 N         -12.4504   -2.0611   17.4748 N.ar    1  UNL1       -0.2944
      6 C         -13.8014   -2.6633   17.7241 C.3     1  UNL1        0.1302
      7 C         -13.9620   -4.1541   17.7652 C.3     1  UNL1        0.1186
      8 N         -12.7716   -5.0427   17.5570 N.am    1  UNL1       -0.2688
      9 C         -12.9322   -6.5335   17.5980 C.2     1  UNL1        0.2493
     10 O         -11.7418   -7.4221   17.3898 O.2     1  UNL1       -0.2699
     11 C         -11.4206   -4.4405   17.3076 C.3     1  UNL1        0.1343
     12 C         -10.2302   -5.3291   17.0994 C.3     1  UNL1        0.0298
     13 C         -15.9455    1.8258   19.6760 C.3     1  UNL1        0.0538
     14 C         -14.8294    1.8128   18.6741 C.ar    1  UNL1        0.0786
     15 C         -14.5757    3.0184   17.8183 C.ar    1  UNL1        0.1136
     16 N         -13.4595    3.0054   16.8163 N.ar    1  UNL1       -0.2394
     17 C         -12.5971    1.7868   16.6702 C.ar    1  UNL1        0.1210
     18 C         -12.8507    0.5813   17.5259 C.ar    1  UNL1        0.1358
     19 N         -13.9669    0.5943   18.5279 N.ar    1  UNL1       -0.2434
     20 C         -14.2832   -7.1357   17.8474 C.ar    1  UNL1        0.0536
     21 C         -15.0648   -7.7217   16.7091 C.ar    1  UNL1        0.0045
     22 C         -16.4158   -8.3239   16.9584 C.ar    1  UNL1        0.0006
     23 C         -16.9852   -8.3401   18.3460 C.ar    1  UNL1        0.0060
     24 C         -16.2036   -7.7541   19.4843 C.ar    1  UNL1        0.0006
     25 C         -14.8526   -7.1519   19.2350 C.ar    1  UNL1        0.0045
     26 C         -18.3362   -8.9423   18.5954 C.ar    1  UNL1        0.0295
     27 C         -19.2066   -8.6908   19.7908 C.ar    1  UNL1        0.0070
     28 C         -20.4623   -9.4948   19.6273 C.ar    1  UNL1        0.0075
     29 C         -20.3680  -10.2433   18.3308 C.ar    1  UNL1        0.0354
     30 S         -19.0539   -9.9019   17.6930 S.2     1  UNL1       -0.0864
@<TRIPOS>BOND
     1    13    14    1
     2    14    15   ar
     3    15    16   ar
     4    16    17   ar
     5    17    18   ar
     6    18     1    1
     7     1     2   ar
     8     2     3   ar
     9     3     4   ar
    10     4     5   ar
    11     5     6    1
    12     6     7    1
    13     7     8    1
    14     8     9   am
    15     9    10    2
    16     9    20    1
    17    20    21   ar
    18    21    22   ar
    19    22    23   ar
    20    23    26    1
    21    26    27   ar
    22    27    28   ar
    23    28    29   ar
    24    29    30   ar
    25    23    24   ar
    26    24    25   ar
    27     8    11    1
    28    11    12    1
    29    18    19   ar
    30    19    14   ar
    31     5     1   ar
    32    25    20   ar
    33    11     4    1
    34    30    26   ar
@<TRIPOS>MOLECULE
*****
 30 34 0 0 0
SMALL
GASTEIGER

@<TRIPOS>ATOM
      1 C           3.6492    1.2541   34.8131 C.ar    1  UNL1        0.1856
      2 N           4.6934    0.1942   35.0038 N.ar    1  UNL1       -0.1274
      3 N           4.8044   -0.5824   33.7252 N.ar    1  UNL1       -0.1316
      4 C           3.8289   -0.0024   32.7444 C.ar    1  UNL1        0.1615
      5 N           3.1149    1.1326   33.4168 N.ar    1  UNL1       -0.2944
      6 C           2.0706    1.9089   32.6707 C.3     1  UNL1        0.1302
      7 C           1.7401    1.5501   31.2521 C.3     1  UNL1        0.1186
      8 N           2.4541    0.4151   30.5798 N.am    1  UNL1       -0.2688
      9 C           2.1237    0.0564   29.1613 C.2     1  UNL1        0.2493
     10 O           2.8376   -1.0786   28.4889 O.2     1  UNL1       -0.2699
     11 C           3.4985   -0.3611   31.3259 C.3     1  UNL1        0.1343
     12 C           4.2124   -1.4961   30.6536 C.3     1  UNL1        0.0298
     13 C           1.1647    2.3868   39.2340 C.3     1  UNL1        0.0538
     14 C           1.9733    2.8255   38.0492 C.ar    1  UNL1        0.0786
     15 C           2.3481    4.2691   37.8900 C.ar    1  UNL1        0.1136
     16 N           3.1566    4.7078   36.7052 N.ar    1  UNL1       -0.2394
     17 C           3.5903    3.7027   35.6796 C.ar    1  UNL1        0.1210
     18 C           3.2155    2.2591   35.8387 C.ar    1  UNL1        0.1358
     19 N           2.4070    1.8204   37.0236 N.ar    1  UNL1       -0.2434
     20 C           1.0793    0.8326   28.4152 C.ar    1  UNL1        0.0536
     21 C          -0.3700    0.4763   28.5652 C.ar    1  UNL1        0.0045
     22 C          -1.4144    1.2526   27.8191 C.ar    1  UNL1        0.0006
     23 C          -1.0094    2.3852   26.9229 C.ar    1  UNL1        0.0060
     24 C           0.4399    2.7416   26.7729 C.ar    1  UNL1        0.0006
     25 C           1.4842    1.9654   27.5190 C.ar    1  UNL1        0.0045
     26 C          -2.0538    3.1616   26.1768 C.ar    1  UNL1        0.0295
     27 C          -3.2874    3.7754   26.7695 C.ar    1  UNL1        0.0070
     28 C          -4.0439    4.4535   25.6660 C.ar    1  UNL1        0.0075
     29 C          -3.2777    4.2588   24.3911 C.ar    1  UNL1        0.0354
     30 S          -2.0477    3.4603   24.7068 S.2     1  UNL1       -0.0864
@<TRIPOS>BOND
     1    13    14    1
     2    14    15   ar
     3    15    16   ar
     4    16    17   ar
     5    17    18   ar
     6    18     1    1
     7     1     2   ar
     8     2     3   ar
     9     3     4   ar
    10     4     5   ar
    11     5     6    1
    12     6     7    1
    13     7     8    1
    14     8     9   am
    15     9    10    2
    16     9    20    1
    17    20    21   ar
    18    21    22   ar
    19    22    23   ar
    20    23    26    1
    21    26    27   ar
    22    27    28   ar
    23    28    29   ar
    24    29    30   ar
    25    23    24   ar
    26    24    25   ar
    27     8    11    1
    28    11    12    1
    29    18    19   ar
    30    19    14   ar
    31     5     1   ar
    32    25    20   ar
    33    11     4    1
    34    30    26   ar
@<TRIPOS>MOLECULE
*****
 30 34 0 0 0
SMALL
GASTEIGER

@<TRIPOS>ATOM
      1 C         -14.2844    2.5519   17.5485 C.ar    1  UNL1        0.1856
      2 N         -13.0158    3.2972   17.2567 N.ar    1  UNL1       -0.1274
      3 N         -11.9020    2.2969   17.1618 N.ar    1  UNL1       -0.1316
      4 C         -12.4823    0.9335   17.3949 C.ar    1  UNL1        0.1615
      5 N         -13.9547    1.0911   17.6340 N.ar    1  UNL1       -0.2944
      6 C         -14.8050   -0.1159   17.8985 C.3     1  UNL1        0.1302
      7 C         -14.1829   -1.4807   17.9240 C.3     1  UNL1        0.1186
      8 N         -12.7105   -1.6383   17.6850 N.am    1  UNL1       -0.2688
      9 C         -12.0884   -3.0029   17.7105 C.2     1  UNL1        0.2493
     10 O         -10.6160   -3.1605   17.4714 O.2     1  UNL1       -0.2699
     11 C         -11.8602   -0.4311   17.4204 C.3     1  UNL1        0.1343
     12 C         -10.3878   -0.5888   17.1814 C.3     1  UNL1        0.0298
     13 C         -18.2246    3.9499   20.6340 C.3     1  UNL1        0.0538
     14 C         -17.6142    3.8596   19.2669 C.ar    1  UNL1        0.0786
     15 C         -18.3634    4.3780   18.0753 C.ar    1  UNL1        0.1136
     16 N         -17.7530    4.2878   16.7081 N.ar    1  UNL1       -0.2394
     17 C         -16.3933    3.6790   16.5326 C.ar    1  UNL1        0.1210
     18 C         -15.6441    3.1606   17.7242 C.ar    1  UNL1        0.1358
     19 N         -16.2545    3.2509   19.0913 N.ar    1  UNL1       -0.2434
     20 C         -12.9387   -4.2099   17.9750 C.ar    1  UNL1        0.0536
     21 C         -13.1053   -4.7174   19.3767 C.ar    1  UNL1        0.0045
     22 C         -13.9556   -5.9245   19.6413 C.ar    1  UNL1        0.0006
     23 C         -14.6393   -6.6240   18.5041 C.ar    1  UNL1        0.0060
     24 C         -14.4728   -6.1166   17.1024 C.ar    1  UNL1        0.0006
     25 C         -13.6225   -4.9095   16.8379 C.ar    1  UNL1        0.0045
     26 C         -15.4897   -7.8311   18.7686 C.ar    1  UNL1        0.0295
     27 C         -16.6029   -7.9232   19.7698 C.ar    1  UNL1        0.0070
     28 C         -17.1773   -9.3070   19.6983 C.ar    1  UNL1        0.0075
     29 C         -16.4191  -10.0702   18.6530 C.ar    1  UNL1        0.0354
     30 S         -15.3760   -9.1580   18.0784 S.2     1  UNL1       -0.0864
@<TRIPOS>BOND
     1    13    14    1
     2    14    15   ar
     3    15    16   ar
     4    16    17   ar
     5    17    18   ar
     6    18     1    1
     7     1     2   ar
     8     2     3   ar
     9     3     4   ar
    10     4     5   ar
    11     5     6    1
    12     6     7    1
    13     7     8    1
    14     8     9   am
    15     9    10    2
    16     9    20    1
    17    20    21   ar
    18    21    22   ar
    19    22    23   ar
    20    23    26    1
    21    26    27   ar
    22    27    28   ar
    23    28    29   ar
    24    29    30   ar
    25    23    24   ar
    26    24    25   ar
    27     8    11    1
    28    11    12    1
    29    18    19   ar
    30    19    14   ar
    31     5     1   ar
    32    25    20   ar
    33    11     4    1
    34    30    26   ar
