@<TRIPOS>MOLECULE
*****
 36 40 0 0 0
SMALL
GASTEIGER

@<TRIPOS>ATOM
      1 C           7.6751   -6.2625   25.2803 C.ar    1  UNL1        0.1581
      2 N           7.9187   -6.1873   23.8022 N.ar    1  UNL1       -0.1641
      3 N           7.5672   -4.8028   23.3444 N.ar    1  UNL1       -0.2463
      4 C           7.1063   -4.0223   24.5396 C.ar    1  UNL1        0.0799
      5 C           6.6346   -2.6068   24.6930 C.ar    1  UNL1        0.0188
      6 C           6.2295   -2.0934   26.0429 C.ar    1  UNL1        0.0015
      7 C           6.2962   -2.9956   27.2394 C.ar    1  UNL1        0.0001
      8 C           6.7680   -4.4111   27.0860 C.ar    1  UNL1        0.0032
      9 C           7.1730   -4.9245   25.7361 C.ar    1  UNL1        0.0413
     10 C           7.5220   -9.5248   27.3778 C.ar    1  UNL1        0.2007
     11 N           8.9448   -9.1043   27.5992 N.ar    1  UNL1       -0.0584
     12 O           9.1753   -7.8311   26.8404 O.2     1  UNL1       -0.3310
     13 C           7.8950   -7.4647   26.1501 C.ar    1  UNL1        0.2792
     14 N           6.8733   -8.5114   26.4822 N.ar    1  UNL1       -0.1880
     15 C           6.8636  -10.7444   27.9513 C.3     1  UNL1        0.1621
     16 C           4.6313  -11.9485   28.5143 C.2     1  UNL1        0.4017
     17 O           5.2596  -12.5397   29.7414 O.2     1  UNL1       -0.2264
     18 N           5.4333  -11.0509   27.6193 N.am    1  UNL1       -0.2634
     19 H           5.0209  -10.6629   26.8139 H       1  UNL1        0.1532
     20 O           3.2010  -12.2550   28.1823 O.3     1  UNL1       -0.4419
     21 C           1.8557  -13.2898   29.4549 C.3     1  UNL1        0.0437
     22 C           2.6960  -13.6647   28.2702 C.3     1  UNL1        0.1378
     23 C           3.5363  -14.0395   27.0856 C.3     1  UNL1        0.0437
     24 C           2.1911  -15.0743   28.3581 C.3     1  UNL1        0.0437
     25 C           7.6602   -4.2889   21.9382 C.3     1  UNL1        0.1538
     26 C           6.5460   -3.4633   21.3662 C.ar    1  UNL1        0.0021
     27 C           5.1233   -3.9118   21.5234 C.ar    1  UNL1       -0.0023
     28 C           4.0091   -3.0863   20.9514 C.ar    1  UNL1       -0.0005
     29 C           4.3177   -1.8124   20.2221 C.ar    1  UNL1       -0.0005
     30 C           5.7404   -1.3639   20.0649 C.ar    1  UNL1       -0.0005
     31 C           6.8546   -2.1894   20.6369 C.ar    1  UNL1       -0.0023
     32 C           3.2036   -0.9868   19.6501 C.2     1  UNL1        0.0249
     33 C           3.2966   -0.0899   18.4514 C.2     1  UNL1        0.1194
     34 N           1.9513    0.5380   18.2369 N.2     1  UNL1       -0.1510
     35 N           1.0269    0.0291   19.3029 N.2     1  UNL1       -0.1695
     36 C           1.8008   -0.9133   20.1763 C.3     1  UNL1        0.1771
@<TRIPOS>BOND
     1    21    22    1
     2    22    23    1
     3    22    24    1
     4    22    20    1
     5    20    16    1
     6    16    17    2
     7    16    18   am
     8    18    15    1
     9    15    10    1
    10    10    11   ar
    11    11    12   ar
    12    12    13   ar
    13    13     1    1
    14     1     2   ar
    15     2     3   ar
    16     3    25    1
    17    25    26    1
    18    26    27   ar
    19    27    28   ar
    20    28    29   ar
    21    29    32    1
    22    32    33    2
    23    33    34    1
    24    34    35    2
    25    35    36    1
    26    29    30   ar
    27    30    31   ar
    28     3     4   ar
    29     4     5   ar
    30     5     6   ar
    31     6     7   ar
    32     7     8   ar
    33     8     9   ar
    34    13    14   ar
    35    14    10   ar
    36     9     1   ar
    37    31    26   ar
    38     9     4   ar
    39    36    32    1
    40    18    19    1
@<TRIPOS>MOLECULE
*****
 36 40 0 0 0
SMALL
GASTEIGER

@<TRIPOS>ATOM
      1 C           7.6698   -6.3673   25.7180 C.ar    1  UNL1        0.1581
      2 N           6.9584   -5.1292   26.1775 N.ar    1  UNL1       -0.1641
      3 N           6.9083   -4.1691   25.0262 N.ar    1  UNL1       -0.2463
      4 C           7.5888   -4.8138   23.8551 C.ar    1  UNL1        0.0799
      5 C           7.8407   -4.3392   22.4546 C.ar    1  UNL1        0.0188
      6 C           8.5632   -5.2232   21.4818 C.ar    1  UNL1        0.0015
      7 C           9.0338   -6.5818   21.9094 C.ar    1  UNL1        0.0001
      8 C           8.7819   -7.0563   23.3099 C.ar    1  UNL1        0.0032
      9 C           8.0594   -6.1723   24.2827 C.ar    1  UNL1        0.0413
     10 C           7.7064   -9.7533   27.6153 C.ar    1  UNL1        0.2007
     11 N           9.0232   -9.1710   28.0359 N.ar    1  UNL1       -0.0584
     12 O           9.1698   -7.8318   27.3764 O.2     1  UNL1       -0.3310
     13 C           7.9435   -7.5863   26.5482 C.ar    1  UNL1        0.2792
     14 N           7.0391   -8.7738   26.6958 N.ar    1  UNL1       -0.1880
     15 C           7.1538  -11.0816   28.0395 C.3     1  UNL1        0.1621
     16 C           5.1626  -12.7459   28.1622 C.2     1  UNL1        0.4017
     17 O           5.9307  -13.5933   29.1328 O.2     1  UNL1       -0.2264
     18 N           5.7742  -11.4901   27.6156 N.am    1  UNL1       -0.2634
     19 H           5.2701  -10.9339   26.9786 H       1  UNL1        0.1532
     20 O           3.7830  -13.1544   27.7383 O.3     1  UNL1       -0.4419
     21 C           2.4719  -14.7644   28.1729 C.3     1  UNL1        0.0437
     22 C           2.7265  -13.4127   28.7713 C.3     1  UNL1        0.1378
     23 C           2.9812  -12.0610   29.3696 C.3     1  UNL1        0.0437
     24 C           1.6701  -13.6709   29.8043 C.3     1  UNL1        0.0437
     25 C           6.2869   -2.8040   25.0429 C.3     1  UNL1        0.1538
     26 C           5.7499   -2.2088   23.7750 C.ar    1  UNL1        0.0021
     27 C           6.4057   -0.9991   23.1777 C.ar    1  UNL1       -0.0023
     28 C           5.8689   -0.4039   21.9099 C.ar    1  UNL1       -0.0005
     29 C           4.6761   -1.0184   21.2393 C.ar    1  UNL1       -0.0005
     30 C           4.0203   -2.2280   21.8365 C.ar    1  UNL1       -0.0005
     31 C           4.5571   -2.8232   23.1043 C.ar    1  UNL1       -0.0023
     32 C           4.1391   -0.4232   19.9715 C.2     1  UNL1        0.0249
     33 C           3.4942   -1.1781   18.8471 C.2     1  UNL1        0.1194
     34 N           3.1093   -0.1900   17.7861 N.2     1  UNL1       -0.1510
     35 N           3.5163    1.1755   18.2548 N.2     1  UNL1       -0.1695
     36 C           4.1527    1.0314   19.6054 C.3     1  UNL1        0.1771
@<TRIPOS>BOND
     1    21    22    1
     2    22    23    1
     3    22    24    1
     4    22    20    1
     5    20    16    1
     6    16    17    2
     7    16    18   am
     8    18    15    1
     9    15    10    1
    10    10    11   ar
    11    11    12   ar
    12    12    13   ar
    13    13     1    1
    14     1     2   ar
    15     2     3   ar
    16     3    25    1
    17    25    26    1
    18    26    27   ar
    19    27    28   ar
    20    28    29   ar
    21    29    32    1
    22    32    33    2
    23    33    34    1
    24    34    35    2
    25    35    36    1
    26    29    30   ar
    27    30    31   ar
    28     3     4   ar
    29     4     5   ar
    30     5     6   ar
    31     6     7   ar
    32     7     8   ar
    33     8     9   ar
    34    13    14   ar
    35    14    10   ar
    36     9     1   ar
    37    31    26   ar
    38     9     4   ar
    39    36    32    1
    40    18    19    1
@<TRIPOS>MOLECULE
*****
 36 40 0 0 0
SMALL
GASTEIGER

@<TRIPOS>ATOM
      1 C           0.0720    1.4922   26.0575 C.ar    1  UNL1        0.1581
      2 N           0.8424    1.1197   24.8255 N.ar    1  UNL1       -0.1641
      3 N           0.2710    1.8888   23.6714 N.ar    1  UNL1       -0.2463
      4 C          -0.8525    2.7366   24.1900 C.ar    1  UNL1        0.0799
      5 C          -1.7794    3.7001   23.5100 C.ar    1  UNL1        0.0188
      6 C          -2.8293    4.4184   24.3047 C.ar    1  UNL1        0.0015
      7 C          -2.9523    4.1734   25.7794 C.ar    1  UNL1        0.0001
      8 C          -2.0254    3.2099   26.4595 C.ar    1  UNL1        0.0032
      9 C          -0.9755    2.4915   25.6648 C.ar    1  UNL1        0.0413
     10 C           1.3927    0.0253   29.3996 C.ar    1  UNL1        0.2007
     11 N          -0.0520    0.2520   29.7333 N.ar    1  UNL1       -0.0584
     12 O          -0.7226    0.8291   28.5220 O.2     1  UNL1       -0.3310
     13 C           0.3077    0.9591   27.4396 C.ar    1  UNL1        0.2792
     14 N           1.6149    0.4623   27.9820 N.ar    1  UNL1       -0.1880
     15 C           2.4325   -0.5393   30.3215 C.3     1  UNL1        0.1621
     16 C           3.5360   -0.4629   32.6723 C.2     1  UNL1        0.4017
     17 O           3.7688   -1.9434   32.6112 O.2     1  UNL1       -0.2264
     18 N           2.8678    0.2392   31.5275 N.am    1  UNL1       -0.2634
     19 H           2.7150    1.2110   31.5676 H       1  UNL1        0.1532
     20 O           3.9713    0.3156   33.8784 O.3     1  UNL1       -0.4419
     21 C           4.7041   -0.5391   35.6763 C.3     1  UNL1        0.0437
     22 C           5.3321    0.0881   34.4670 C.3     1  UNL1        0.1378
     23 C           5.9600    0.7152   33.2577 C.3     1  UNL1        0.0437
     24 C           6.6928   -0.1394   35.0555 C.3     1  UNL1        0.0437
     25 C           0.7406    1.8218   22.2484 C.3     1  UNL1        0.1538
     26 C           1.5475    0.6474   21.7793 C.ar    1  UNL1        0.0021
     27 C           1.1271   -0.1104   20.5550 C.ar    1  UNL1       -0.0023
     28 C           1.9338   -1.2847   20.0859 C.ar    1  UNL1       -0.0005
     29 C           3.1610   -1.7013   20.8412 C.ar    1  UNL1       -0.0005
     30 C           3.5814   -0.9435   22.0656 C.ar    1  UNL1       -0.0005
     31 C           2.7746    0.2308   22.5347 C.ar    1  UNL1       -0.0023
     32 C           3.9678   -2.8756   20.3722 C.2     1  UNL1        0.0249
     33 C           3.5366   -3.8930   19.3579 C.2     1  UNL1        0.1194
     34 N           4.6498   -4.8849   19.1940 N.2     1  UNL1       -0.1510
     35 N           5.7691   -4.4806   20.1070 N.2     1  UNL1       -0.1695
     36 C           5.3476   -3.2388   20.8352 C.3     1  UNL1        0.1771
@<TRIPOS>BOND
     1    21    22    1
     2    22    23    1
     3    22    24    1
     4    22    20    1
     5    20    16    1
     6    16    17    2
     7    16    18   am
     8    18    15    1
     9    15    10    1
    10    10    11   ar
    11    11    12   ar
    12    12    13   ar
    13    13     1    1
    14     1     2   ar
    15     2     3   ar
    16     3    25    1
    17    25    26    1
    18    26    27   ar
    19    27    28   ar
    20    28    29   ar
    21    29    32    1
    22    32    33    2
    23    33    34    1
    24    34    35    2
    25    35    36    1
    26    29    30   ar
    27    30    31   ar
    28     3     4   ar
    29     4     5   ar
    30     5     6   ar
    31     6     7   ar
    32     7     8   ar
    33     8     9   ar
    34    13    14   ar
    35    14    10   ar
    36     9     1   ar
    37    31    26   ar
    38     9     4   ar
    39    36    32    1
    40    18    19    1
@<TRIPOS>MOLECULE
*****
 36 40 0 0 0
SMALL
GASTEIGER

@<TRIPOS>ATOM
      1 C           7.2900   -5.1844   27.0907 C.ar    1  UNL1        0.1581
      2 N           6.8241   -4.3219   25.9554 N.ar    1  UNL1       -0.1641
      3 N           6.2429   -3.0665   26.5353 N.ar    1  UNL1       -0.2463
      4 C           6.3497   -3.1532   28.0290 C.ar    1  UNL1        0.0799
      5 C           5.9412   -2.2093   29.1208 C.ar    1  UNL1        0.0188
      6 C           6.1800   -2.5744   30.5560 C.ar    1  UNL1        0.0015
      7 C           6.8271   -3.8834   30.8993 C.ar    1  UNL1        0.0001
      8 C           7.2356   -4.8272   29.8074 C.ar    1  UNL1        0.0032
      9 C           6.9969   -4.4621   28.3722 C.ar    1  UNL1        0.0413
     10 C           8.4890   -8.8688   27.3226 C.ar    1  UNL1        0.2007
     11 N           9.3702   -8.3456   26.2272 N.ar    1  UNL1       -0.0584
     12 O           9.0283   -6.9017   26.0070 O.2     1  UNL1       -0.3310
     13 C           7.9358   -6.5326   26.9663 C.ar    1  UNL1        0.2792
     14 N           7.6026   -7.7482   27.7793 N.ar    1  UNL1       -0.1880
     15 C           8.4935  -10.2669   27.8658 C.3     1  UNL1        0.1621
     16 C           7.2833  -12.5547   28.0924 C.2     1  UNL1        0.4017
     17 O           8.6051  -13.2338   28.2963 O.2     1  UNL1       -0.2264
     18 N           7.2275  -11.0712   27.8771 N.am    1  UNL1       -0.2634
     19 H           6.3599  -10.6255   27.7433 H       1  UNL1        0.1532
     20 O           6.0172  -13.3590   28.1037 O.3     1  UNL1       -0.4419
     21 C           4.8602  -12.2452   29.4896 C.3     1  UNL1        0.0437
     22 C           4.6877  -12.6658   28.0601 C.3     1  UNL1        0.1378
     23 C           4.5153  -13.0864   26.6306 C.3     1  UNL1        0.0437
     24 C           3.3583  -11.9726   28.0165 C.3     1  UNL1        0.0437
     25 C           5.6577   -1.9249   25.7580 C.3     1  UNL1        0.1538
     26 C           5.7201   -1.9279   24.2592 C.ar    1  UNL1        0.0021
     27 C           4.7393   -2.7429   23.4694 C.ar    1  UNL1       -0.0023
     28 C           4.8016   -2.7460   21.9707 C.ar    1  UNL1       -0.0005
     29 C           5.8448   -1.9340   21.2618 C.ar    1  UNL1       -0.0005
     30 C           6.8256   -1.1191   22.0517 C.ar    1  UNL1       -0.0005
     31 C           6.7633   -1.1160   23.5503 C.ar    1  UNL1       -0.0023
     32 C           5.9072   -1.9370   19.7632 C.2     1  UNL1        0.0249
     33 C           7.1313   -2.1840   18.9321 C.2     1  UNL1        0.1194
     34 N           6.7370   -2.0932   17.4877 N.2     1  UNL1       -0.1510
     35 N           5.2693   -1.7901   17.4260 N.2     1  UNL1       -0.1695
     36 C           4.7564   -1.6936   18.8323 C.3     1  UNL1        0.1771
@<TRIPOS>BOND
     1    21    22    1
     2    22    23    1
     3    22    24    1
     4    22    20    1
     5    20    16    1
     6    16    17    2
     7    16    18   am
     8    18    15    1
     9    15    10    1
    10    10    11   ar
    11    11    12   ar
    12    12    13   ar
    13    13     1    1
    14     1     2   ar
    15     2     3   ar
    16     3    25    1
    17    25    26    1
    18    26    27   ar
    19    27    28   ar
    20    28    29   ar
    21    29    32    1
    22    32    33    2
    23    33    34    1
    24    34    35    2
    25    35    36    1
    26    29    30   ar
    27    30    31   ar
    28     3     4   ar
    29     4     5   ar
    30     5     6   ar
    31     6     7   ar
    32     7     8   ar
    33     8     9   ar
    34    13    14   ar
    35    14    10   ar
    36     9     1   ar
    37    31    26   ar
    38     9     4   ar
    39    36    32    1
    40    18    19    1
@<TRIPOS>MOLECULE
*****
 36 40 0 0 0
SMALL
GASTEIGER

@<TRIPOS>ATOM
      1 C          -1.4757    3.4668   21.5606 C.ar    1  UNL1        0.1581
      2 N          -0.8093    3.9198   22.8257 N.ar    1  UNL1       -0.1641
      3 N          -1.8814    4.2717   23.8140 N.ar    1  UNL1       -0.2463
      4 C          -3.2105    4.0360   23.1596 C.ar    1  UNL1        0.0799
      5 C          -4.6166    4.2102   23.6520 C.ar    1  UNL1        0.0188
      6 C          -5.7719    3.8869   22.7517 C.ar    1  UNL1        0.0015
      7 C          -5.5211    3.3894   21.3590 C.ar    1  UNL1        0.0001
      8 C          -4.1150    3.2153   20.8666 C.ar    1  UNL1        0.0032
      9 C          -2.9597    3.5386   21.7669 C.ar    1  UNL1        0.0413
     10 C           0.6170    1.7756   18.7630 C.ar    1  UNL1        0.2007
     11 N          -0.0368    2.8908   18.0020 N.ar    1  UNL1       -0.0584
     12 O          -0.9003    3.6600   18.9574 O.2     1  UNL1       -0.3310
     13 C          -0.7802    3.0203   20.3088 C.ar    1  UNL1        0.2792
     14 N           0.1575    1.8557   20.1886 N.ar    1  UNL1       -0.1880
     15 C           1.5638    0.7590   18.1976 C.3     1  UNL1        0.1621
     16 C           3.4749   -0.9635   18.5595 C.2     1  UNL1        0.4017
     17 O           3.7270   -0.9945   17.0811 O.2     1  UNL1       -0.2264
     18 N           2.3934   -0.0867   19.1177 N.am    1  UNL1       -0.2634
     19 H           2.2280   -0.0664   20.0880 H       1  UNL1        0.1532
     20 O           4.3044   -1.8092   19.4796 O.3     1  UNL1       -0.4419
     21 C           3.1993   -3.6160   19.3596 C.3     1  UNL1        0.0437
     22 C           4.6262   -3.2267   19.1094 C.3     1  UNL1        0.1378
     23 C           6.0531   -2.8374   18.8592 C.3     1  UNL1        0.0437
     24 C           4.9480   -4.6442   18.7392 C.3     1  UNL1        0.0437
     25 C          -1.6630    4.7714   25.2113 C.3     1  UNL1        0.1538
     26 C          -0.9926    3.8929   26.2258 C.ar    1  UNL1        0.0021
     27 C          -1.1860    2.4063   26.1753 C.ar    1  UNL1       -0.0023
     28 C          -0.5157    1.5279   27.1897 C.ar    1  UNL1       -0.0005
     29 C           0.3479    2.1361   28.2546 C.ar    1  UNL1       -0.0005
     30 C           0.5413    3.6227   28.3052 C.ar    1  UNL1       -0.0005
     31 C          -0.1289    4.5012   27.2908 C.ar    1  UNL1       -0.0023
     32 C           1.0183    1.2577   29.2691 C.2     1  UNL1        0.0249
     33 C           1.3576   -0.1927   29.0927 C.2     1  UNL1        0.1194
     34 N           2.0160   -0.6712   30.3527 N.2     1  UNL1       -0.1510
     35 N           2.0836    0.4834   31.3078 N.2     1  UNL1       -0.1695
     36 C           1.4670    1.6756   30.6381 C.3     1  UNL1        0.1771
@<TRIPOS>BOND
     1    21    22    1
     2    22    23    1
     3    22    24    1
     4    22    20    1
     5    20    16    1
     6    16    17    2
     7    16    18   am
     8    18    15    1
     9    15    10    1
    10    10    11   ar
    11    11    12   ar
    12    12    13   ar
    13    13     1    1
    14     1     2   ar
    15     2     3   ar
    16     3    25    1
    17    25    26    1
    18    26    27   ar
    19    27    28   ar
    20    28    29   ar
    21    29    32    1
    22    32    33    2
    23    33    34    1
    24    34    35    2
    25    35    36    1
    26    29    30   ar
    27    30    31   ar
    28     3     4   ar
    29     4     5   ar
    30     5     6   ar
    31     6     7   ar
    32     7     8   ar
    33     8     9   ar
    34    13    14   ar
    35    14    10   ar
    36     9     1   ar
    37    31    26   ar
    38     9     4   ar
    39    36    32    1
    40    18    19    1
@<TRIPOS>MOLECULE
*****
 36 40 0 0 0
SMALL
GASTEIGER

@<TRIPOS>ATOM
      1 C          -1.2034    3.1650   19.6229 C.ar    1  UNL1        0.1581
      2 N          -2.1290    2.8177   20.7511 N.ar    1  UNL1       -0.1641
      3 N          -3.5081    3.2732   20.3761 N.ar    1  UNL1       -0.2463
      4 C          -3.4349    3.9020   19.0162 C.ar    1  UNL1        0.0799
      5 C          -4.4812    4.5268   18.1417 C.ar    1  UNL1        0.0188
      6 C          -4.1031    5.0847   16.8016 C.ar    1  UNL1        0.0015
      7 C          -2.6787    5.0178   16.3361 C.ar    1  UNL1        0.0001
      8 C          -1.6324    4.3930   17.2107 C.ar    1  UNL1        0.0032
      9 C          -2.0105    3.8351   18.5507 C.ar    1  UNL1        0.0413
     10 C           2.4300    1.9822   18.9409 C.ar    1  UNL1        0.2007
     11 N           2.6471    2.9536   20.0631 N.ar    1  UNL1       -0.0584
     12 O           1.3125    3.5149   20.4552 O.2     1  UNL1       -0.3310
     13 C           0.2705    2.8904   19.5753 C.ar    1  UNL1        0.2792
     14 N           0.9611    1.9432   18.6395 N.ar    1  UNL1       -0.1880
     15 C           3.4946    1.1891   18.2429 C.3     1  UNL1        0.1621
     16 C           4.0592   -1.2926   17.7210 C.2     1  UNL1        0.4017
     17 O           3.9497   -1.0087   16.2522 O.2     1  UNL1       -0.2264
     18 N           3.8317   -0.1937   18.7163 N.am    1  UNL1       -0.2634
     19 H           3.9035   -0.3801   19.6804 H       1  UNL1        0.1532
     20 O           4.3963   -2.6754   18.1945 O.3     1  UNL1       -0.4419
     21 C           6.4991   -2.4170   18.0867 C.3     1  UNL1        0.0437
     22 C           5.5407   -2.8860   19.1410 C.3     1  UNL1        0.1378
     23 C           4.5823   -3.3551   20.1953 C.3     1  UNL1        0.0437
     24 C           6.6850   -3.0967   20.0876 C.3     1  UNL1        0.0437
     25 C          -4.7435    3.1258   21.2139 C.3     1  UNL1        0.1538
     26 C          -4.8268    3.7983   22.5522 C.ar    1  UNL1        0.0021
     27 C          -4.8576    5.2955   22.6386 C.ar    1  UNL1       -0.0023
     28 C          -4.9409    5.9680   23.9768 C.ar    1  UNL1       -0.0005
     29 C          -4.9934    5.1432   25.2286 C.ar    1  UNL1       -0.0005
     30 C          -4.9627    3.6460   25.1422 C.ar    1  UNL1       -0.0005
     31 C          -4.8794    2.9735   23.8040 C.ar    1  UNL1       -0.0023
     32 C          -5.0767    5.8157   26.5668 C.2     1  UNL1        0.0249
     33 C          -6.3339    6.0996   27.3342 C.2     1  UNL1        0.1194
     34 N          -5.9516    6.7816   28.6143 N.2     1  UNL1       -0.1510
     35 N          -4.4581    6.9193   28.6381 N.2     1  UNL1       -0.1695
     36 C          -3.9174    6.3223   27.3727 C.3     1  UNL1        0.1771
@<TRIPOS>BOND
     1    21    22    1
     2    22    23    1
     3    22    24    1
     4    22    20    1
     5    20    16    1
     6    16    17    2
     7    16    18   am
     8    18    15    1
     9    15    10    1
    10    10    11   ar
    11    11    12   ar
    12    12    13   ar
    13    13     1    1
    14     1     2   ar
    15     2     3   ar
    16     3    25    1
    17    25    26    1
    18    26    27   ar
    19    27    28   ar
    20    28    29   ar
    21    29    32    1
    22    32    33    2
    23    33    34    1
    24    34    35    2
    25    35    36    1
    26    29    30   ar
    27    30    31   ar
    28     3     4   ar
    29     4     5   ar
    30     5     6   ar
    31     6     7   ar
    32     7     8   ar
    33     8     9   ar
    34    13    14   ar
    35    14    10   ar
    36     9     1   ar
    37    31    26   ar
    38     9     4   ar
    39    36    32    1
    40    18    19    1
@<TRIPOS>MOLECULE
*****
 36 40 0 0 0
SMALL
GASTEIGER

@<TRIPOS>ATOM
      1 C           7.2278   -4.3811   24.5366 C.ar    1  UNL1        0.1581
      2 N           7.1289   -3.1352   25.3661 N.ar    1  UNL1       -0.1641
      3 N           7.3347   -3.5169   26.8020 N.ar    1  UNL1       -0.2463
      4 C           7.5607   -4.9986   26.8600 C.ar    1  UNL1        0.0799
      5 C           7.8181   -5.9305   28.0069 C.ar    1  UNL1        0.0188
      6 C           8.0095   -7.3965   27.7536 C.ar    1  UNL1        0.0015
      7 C           7.9435   -7.9306   26.3534 C.ar    1  UNL1        0.0001
      8 C           7.6861   -6.9987   25.2066 C.ar    1  UNL1        0.0032
      9 C           7.4947   -5.5327   25.4599 C.ar    1  UNL1        0.0413
     10 C           6.2033   -4.2345   20.7957 C.ar    1  UNL1        0.2007
     11 N           7.5270   -4.9346   20.7066 N.ar    1  UNL1       -0.0584
     12 O           8.0718   -5.0747   22.0971 O.2     1  UNL1       -0.3310
     13 C           7.0850   -4.4612   23.0456 C.ar    1  UNL1        0.2792
     14 N           5.9302   -3.9420   22.2413 N.ar    1  UNL1       -0.1880
     15 C           5.3098   -3.8879   19.6419 C.3     1  UNL1        0.1621
     16 C           5.7286   -1.7134   18.2832 C.2     1  UNL1        0.4017
     17 O           6.8052   -2.4081   17.5032 O.2     1  UNL1       -0.2264
     18 N           4.9809   -2.4533   19.3525 N.am    1  UNL1       -0.2634
     19 H           4.2743   -1.9974   19.8644 H       1  UNL1        0.1532
     20 O           5.3998   -0.2788   17.9938 O.3     1  UNL1       -0.4419
     21 C           3.6429   -0.6650   16.8693 C.3     1  UNL1        0.0437
     22 C           3.9767    0.1915   18.0547 C.3     1  UNL1        0.1378
     23 C           4.3105    1.0480   19.2400 C.3     1  UNL1        0.0437
     24 C           2.5537    0.6618   18.1155 C.3     1  UNL1        0.0437
     25 C           7.3174   -2.5812   27.9743 C.3     1  UNL1        0.1538
     26 C           6.0320   -1.9354   28.3996 C.ar    1  UNL1        0.0021
     27 C           5.9046   -1.3533   29.7762 C.ar    1  UNL1       -0.0023
     28 C           4.6193   -0.7076   30.2015 C.ar    1  UNL1       -0.0005
     29 C           3.4614   -0.6438   29.2502 C.ar    1  UNL1       -0.0005
     30 C           3.5887   -1.2259   27.8736 C.ar    1  UNL1       -0.0005
     31 C           4.8740   -1.8716   27.4482 C.ar    1  UNL1       -0.0023
     32 C           2.1760    0.0019   29.6754 C.2     1  UNL1        0.0249
     33 C           0.8411   -0.1715   29.0138 C.2     1  UNL1        0.1194
     34 N          -0.1600    0.6539   29.7665 N.2     1  UNL1       -0.1510
     35 N           0.5562    1.3375   30.8933 N.2     1  UNL1       -0.1695
     36 C           1.9999    0.9345   30.8371 C.3     1  UNL1        0.1771
@<TRIPOS>BOND
     1    21    22    1
     2    22    23    1
     3    22    24    1
     4    22    20    1
     5    20    16    1
     6    16    17    2
     7    16    18   am
     8    18    15    1
     9    15    10    1
    10    10    11   ar
    11    11    12   ar
    12    12    13   ar
    13    13     1    1
    14     1     2   ar
    15     2     3   ar
    16     3    25    1
    17    25    26    1
    18    26    27   ar
    19    27    28   ar
    20    28    29   ar
    21    29    32    1
    22    32    33    2
    23    33    34    1
    24    34    35    2
    25    35    36    1
    26    29    30   ar
    27    30    31   ar
    28     3     4   ar
    29     4     5   ar
    30     5     6   ar
    31     6     7   ar
    32     7     8   ar
    33     8     9   ar
    34    13    14   ar
    35    14    10   ar
    36     9     1   ar
    37    31    26   ar
    38     9     4   ar
    39    36    32    1
    40    18    19    1
@<TRIPOS>MOLECULE
*****
 36 40 0 0 0
SMALL
GASTEIGER

@<TRIPOS>ATOM
      1 C          -1.0902    2.5026   25.8108 C.ar    1  UNL1        0.1581
      2 N           0.0130    2.7193   24.8178 N.ar    1  UNL1       -0.1641
      3 N           1.2314    1.9988   25.3140 N.ar    1  UNL1       -0.2463
      4 C           0.8813    1.3367   26.6137 C.ar    1  UNL1        0.0799
      5 C           1.6837    0.4906   27.5572 C.ar    1  UNL1        0.0188
      6 C           1.0512   -0.0442   28.8077 C.ar    1  UNL1        0.0015
      7 C          -0.3837    0.2672   29.1148 C.ar    1  UNL1        0.0001
      8 C          -1.1860    1.1133   28.1713 C.ar    1  UNL1        0.0032
      9 C          -0.5535    1.6481   26.9207 C.ar    1  UNL1        0.0413
     10 C          -4.6088    3.8024   24.8129 C.ar    1  UNL1        0.2007
     11 N          -4.6547    3.9573   26.3042 N.ar    1  UNL1       -0.0584
     12 O          -3.3422    3.4893   26.8595 O.2     1  UNL1       -0.3310
     13 C          -2.4851    3.0451   25.7114 C.ar    1  UNL1        0.2792
     14 N          -3.2678    3.2386   24.4466 N.ar    1  UNL1       -0.1880
     15 C          -5.7102    4.1501   23.8560 C.3     1  UNL1        0.1621
     16 C          -4.8644    4.2234   21.4005 C.2     1  UNL1        0.4017
     17 O          -4.6313    2.7421   21.4366 O.2     1  UNL1       -0.2264
     18 N          -5.4039    4.9275   22.6102 N.am    1  UNL1       -0.2634
     19 H          -5.5569    5.8997   22.5865 H       1  UNL1        0.1532
     20 O          -4.5581    5.0007   20.1547 O.3     1  UNL1       -0.4419
     21 C          -3.1247    4.2993   18.7571 C.3     1  UNL1        0.0437
     22 C          -4.6233    4.3279   18.8157 C.3     1  UNL1        0.1378
     23 C          -6.1219    4.3565   18.8744 C.3     1  UNL1        0.0437
     24 C          -4.6886    3.6551   17.4767 C.3     1  UNL1        0.0437
     25 C           2.5657    1.9490   24.6305 C.3     1  UNL1        0.1538
     26 C           2.8949    0.8113   23.7099 C.ar    1  UNL1        0.0021
     27 C           3.5699   -0.4162   24.2462 C.ar    1  UNL1       -0.0023
     28 C           3.8991   -1.5538   23.3257 C.ar    1  UNL1       -0.0005
     29 C           3.5533   -1.4639   21.8689 C.ar    1  UNL1       -0.0005
     30 C           2.8783   -0.2364   21.3326 C.ar    1  UNL1       -0.0005
     31 C           2.5491    0.9012   22.2531 C.ar    1  UNL1       -0.0023
     32 C           3.8824   -2.6016   20.9484 C.2     1  UNL1        0.0249
     33 C           3.4803   -2.7147   19.5077 C.2     1  UNL1        0.1194
     34 N           4.0209   -4.0089   18.9758 N.2     1  UNL1       -0.1510
     35 N           4.7571   -4.6956   20.0877 N.2     1  UNL1       -0.1695
     36 C           4.6716   -3.8259   21.3068 C.3     1  UNL1        0.1771
@<TRIPOS>BOND
     1    21    22    1
     2    22    23    1
     3    22    24    1
     4    22    20    1
     5    20    16    1
     6    16    17    2
     7    16    18   am
     8    18    15    1
     9    15    10    1
    10    10    11   ar
    11    11    12   ar
    12    12    13   ar
    13    13     1    1
    14     1     2   ar
    15     2     3   ar
    16     3    25    1
    17    25    26    1
    18    26    27   ar
    19    27    28   ar
    20    28    29   ar
    21    29    32    1
    22    32    33    2
    23    33    34    1
    24    34    35    2
    25    35    36    1
    26    29    30   ar
    27    30    31   ar
    28     3     4   ar
    29     4     5   ar
    30     5     6   ar
    31     6     7   ar
    32     7     8   ar
    33     8     9   ar
    34    13    14   ar
    35    14    10   ar
    36     9     1   ar
    37    31    26   ar
    38     9     4   ar
    39    36    32    1
    40    18    19    1
@<TRIPOS>MOLECULE
*****
 36 40 0 0 0
SMALL
GASTEIGER

@<TRIPOS>ATOM
      1 C           7.0978   -4.1170   25.6612 C.ar    1  UNL1        0.1581
      2 N           6.7804   -3.3997   24.3826 N.ar    1  UNL1       -0.1641
      3 N           7.3057   -4.2249   23.2455 N.ar    1  UNL1       -0.2463
      4 C           7.9477   -5.4522   23.8212 C.ar    1  UNL1        0.0799
      5 C           8.6327   -6.6219   23.1789 C.ar    1  UNL1        0.0188
      6 C           9.1892   -7.7248   24.0295 C.ar    1  UNL1        0.0015
      7 C           9.0607   -7.6582   25.5225 C.ar    1  UNL1        0.0001
      8 C           8.3757   -6.4885   26.1649 C.ar    1  UNL1        0.0032
      9 C           7.8192   -5.3856   25.3142 C.ar    1  UNL1        0.0413
     10 C           6.6586   -3.4654   29.4623 C.ar    1  UNL1        0.2007
     11 N           5.7917   -2.3879   28.8813 N.ar    1  UNL1       -0.0584
     12 O           5.8506   -2.5009   27.3868 O.2     1  UNL1       -0.3310
     13 C           6.7541   -3.6482   27.0439 C.ar    1  UNL1        0.2792
     14 N           7.2534   -4.2442   28.3266 N.ar    1  UNL1       -0.1880
     15 C           6.8901   -3.7194   30.9223 C.3     1  UNL1        0.1621
     16 C           5.8941   -2.2147   32.7914 C.2     1  UNL1        0.4017
     17 O           7.0698   -1.2907   32.6742 O.2     1  UNL1       -0.2264
     18 N           5.8042   -3.4291   31.9155 N.am    1  UNL1       -0.2634
     19 H           5.0325   -4.0356   31.9925 H       1  UNL1        0.1532
     20 O           4.8082   -1.9244   33.7847 O.3     1  UNL1       -0.4419
     21 C           3.7278   -0.4764   32.6727 C.3     1  UNL1        0.0437
     22 C           4.3719   -0.5098   34.0270 C.3     1  UNL1        0.1378
     23 C           5.0159   -0.5433   35.3813 C.3     1  UNL1        0.0437
     24 C           3.9356    0.9046   34.2694 C.3     1  UNL1        0.0437
     25 C           7.2064   -3.8828   21.7884 C.3     1  UNL1        0.1538
     26 C           6.0367   -3.0921   21.2816 C.ar    1  UNL1        0.0021
     27 C           4.9031   -3.7895   20.5899 C.ar    1  UNL1       -0.0023
     28 C           3.7335   -2.9990   20.0831 C.ar    1  UNL1       -0.0005
     29 C           3.6975   -1.5108   20.2681 C.ar    1  UNL1       -0.0005
     30 C           4.8311   -0.8134   20.9597 C.ar    1  UNL1       -0.0005
     31 C           6.0008   -1.6039   21.4665 C.ar    1  UNL1       -0.0023
     32 C           2.5279   -0.7201   19.7613 C.2     1  UNL1        0.0249
     33 C           2.4399   -0.0290   18.4329 C.2     1  UNL1        0.1194
     34 N           1.0985    0.6365   18.3446 N.2     1  UNL1       -0.1510
     35 N           0.3574    0.3567   19.6184 N.2     1  UNL1       -0.1695
     36 C           1.2408   -0.4818   20.4940 C.3     1  UNL1        0.1771
@<TRIPOS>BOND
     1    21    22    1
     2    22    23    1
     3    22    24    1
     4    22    20    1
     5    20    16    1
     6    16    17    2
     7    16    18   am
     8    18    15    1
     9    15    10    1
    10    10    11   ar
    11    11    12   ar
    12    12    13   ar
    13    13     1    1
    14     1     2   ar
    15     2     3   ar
    16     3    25    1
    17    25    26    1
    18    26    27   ar
    19    27    28   ar
    20    28    29   ar
    21    29    32    1
    22    32    33    2
    23    33    34    1
    24    34    35    2
    25    35    36    1
    26    29    30   ar
    27    30    31   ar
    28     3     4   ar
    29     4     5   ar
    30     5     6   ar
    31     6     7   ar
    32     7     8   ar
    33     8     9   ar
    34    13    14   ar
    35    14    10   ar
    36     9     1   ar
    37    31    26   ar
    38     9     4   ar
    39    36    32    1
    40    18    19    1
