@<TRIPOS>MOLECULE
*****
 34 37 0 0 0
SMALL
GASTEIGER

@<TRIPOS>ATOM
      1 C           6.2834   -2.4530   27.6220 C.ar    1  UNL1        0.1665
      2 N           5.4524   -1.2097   27.7381 N.ar    1  UNL1       -0.1866
      3 C           5.0070   -0.7285   29.0871 C.ar    1  UNL1        0.2814
      4 O           4.1759    0.5149   29.2032 O.2     1  UNL1       -0.2651
      5 C           5.3925   -1.4907   30.3202 C.ar    1  UNL1        0.0699
      6 C           4.9470   -1.0095   31.6693 C.ar    1  UNL1        0.0096
      7 C           5.3326   -1.7717   32.9024 C.ar    1  UNL1        0.0777
      8 C           6.1637   -3.0151   32.7863 C.ar    1  UNL1        0.0797
      9 C           6.6091   -3.4963   31.4372 C.ar    1  UNL1        0.2960
     10 C           6.2236   -2.7341   30.2042 C.ar    1  UNL1        0.1059
     11 S           6.6690   -3.2152   28.8551 S.2     1  UNL1       -0.0466
     12 N           7.6199   -3.8966   23.5748 N.3     1  UNL1       -0.2698
     13 C           7.1975   -4.8845   24.6216 C.3     1  UNL1        0.0939
     14 C           6.7521   -4.4032   25.9707 C.3     1  UNL1        0.1100
     15 N           6.7289   -2.9342   26.2729 N.pl3   1  UNL1       -0.2852
     16 C           7.1513   -1.9464   25.2262 C.3     1  UNL1        0.1100
     17 C           7.5968   -2.4276   23.8770 C.3     1  UNL1        0.0939
     18 C           8.0654   -4.3778   22.2257 C.3     1  UNL1        0.0722
     19 N           6.3121   -1.4752   17.2759 N.2     1  UNL1       -0.0917
     20 C           6.7505   -2.2008   18.5133 C.2     1  UNL1        0.0748
     21 C           5.7409   -2.9194   19.3586 C.3     1  UNL1        0.0447
     22 C           6.1792   -3.6451   20.5962 C.3     1  UNL1        0.0074
     23 C           7.6270   -3.6522   20.9883 C.3     1  UNL1        0.0167
     24 C           8.6366   -2.9336   20.1429 C.3     1  UNL1        0.0074
     25 C           8.1983   -2.2080   18.9055 C.3     1  UNL1        0.0447
     26 C           3.9380   -0.4349   17.4536 C.3     1  UNL1        0.2885
     27 O           4.8643   -1.4681   16.8838 O.2     1  UNL1       -0.3737
     28 C           4.8872   -1.2906   34.2514 C.3     1  UNL1        0.4188
     29 F           4.4417   -0.8094   35.6006 F       1  UNL1       -0.1659
     30 F           5.8866   -0.1742   34.1833 F       1  UNL1       -0.1659
     31 F           3.8878   -2.4071   34.3196 F       1  UNL1       -0.1659
     32 N           7.4401   -4.7396   31.3212 N.pl3   1  UNL1        0.0814
     33 O           6.7754   -6.0714   31.1352 O.2     1  UNL1        0.0415
     34 O           8.9359   -4.6512   31.3912 O.co2   1  UNL1       -0.5760
@<TRIPOS>UNITY_ATOM_ATTR
32 1
charge 1
34 1
charge -1
@<TRIPOS>BOND
     1    26    27    1
     2    27    19    1
     3    19    20    2
     4    20    21    1
     5    21    22    1
     6    22    23    1
     7    23    18    1
     8    18    12    1
     9    12    13    1
    10    13    14    1
    11    14    15    1
    12    15     1    1
    13     1     2   ar
    14     2     3   ar
    15     3     4    2
    16     3     5   ar
    17     5     6   ar
    18     6     7   ar
    19     7    28    1
    20    28    29    1
    21    28    30    1
    22    28    31    1
    23     7     8   ar
    24     8     9   ar
    25     9    32    1
    26    32    33    2
    27    32    34    1
    28     9    10   ar
    29    10    11   ar
    30    15    16    1
    31    16    17    1
    32    23    24    1
    33    24    25    1
    34    25    20    1
    35    17    12    1
    36    11     1   ar
    37    10     5   ar
@<TRIPOS>MOLECULE
*****
 34 37 0 0 0
SMALL
GASTEIGER

@<TRIPOS>ATOM
      1 C           2.9712    0.0940   24.9436 C.ar    1  UNL1        0.1665
      2 N           3.9820   -0.9689   25.2571 N.ar    1  UNL1       -0.1866
      3 C           4.4459   -1.9039   24.1798 C.ar    1  UNL1        0.2814
      4 O           5.4568   -2.9669   24.4932 O.2     1  UNL1       -0.2651
      5 C           3.8989   -1.7759   22.7889 C.ar    1  UNL1        0.0699
      6 C           4.3628   -2.7109   21.7116 C.ar    1  UNL1        0.0096
      7 C           3.8158   -2.5829   20.3207 C.ar    1  UNL1        0.0777
      8 C           2.8049   -1.5199   20.0073 C.ar    1  UNL1        0.0797
      9 C           2.3410   -0.5850   21.0846 C.ar    1  UNL1        0.2960
     10 C           2.8880   -0.7130   22.4754 C.ar    1  UNL1        0.1059
     11 S           2.4242    0.2220   23.5528 S.2     1  UNL1       -0.0466
     12 N           1.5794    2.8989   28.1756 N.3     1  UNL1       -0.2698
     13 C           0.6062    1.9589   27.5279 C.3     1  UNL1        0.0939
     14 C           1.0701    1.0240   26.4506 C.3     1  UNL1        0.1100
     15 N           2.5073    1.0290   26.0210 N.pl3   1  UNL1       -0.2852
     16 C           3.4805    1.9688   26.6686 C.3     1  UNL1        0.1100
     17 C           3.0165    2.9038   27.7460 C.3     1  UNL1        0.0939
     18 C           1.1155    3.8338   29.2529 C.3     1  UNL1        0.0722
     19 N           2.0251    2.4522   35.0204 N.2     1  UNL1       -0.0917
     20 C           1.7977    2.7976   33.5785 C.2     1  UNL1        0.0748
     21 C           1.3121    4.1662   33.2028 C.3     1  UNL1        0.0447
     22 C           1.0847    4.5116   31.7608 C.3     1  UNL1        0.0074
     23 C           1.3429    3.4884   30.6948 C.3     1  UNL1        0.0167
     24 C           1.8284    2.1198   31.0706 C.3     1  UNL1        0.0074
     25 C           2.0558    1.7744   32.5125 C.3     1  UNL1        0.0447
     26 C           2.4646    3.3715   37.4103 C.3     1  UNL1        0.2885
     27 O           1.7669    3.4754   36.0864 O.2     1  UNL1       -0.3737
     28 C           4.2797   -3.5178   19.2434 C.3     1  UNL1        0.4188
     29 F           4.7436   -4.4527   18.1660 F       1  UNL1       -0.1659
     30 F           5.6571   -2.9297   19.3261 F       1  UNL1       -0.1659
     31 F           2.9023   -4.1058   19.1606 F       1  UNL1       -0.1659
     32 N           1.3302    0.4780   20.7711 N.pl3   1  UNL1        0.0814
     33 O          -0.1320    0.1432   20.7625 O.2     1  UNL1        0.0415
     34 O           1.7814    1.8756   20.4662 O.co2   1  UNL1       -0.5760
@<TRIPOS>UNITY_ATOM_ATTR
32 1
charge 1
34 1
charge -1
@<TRIPOS>BOND
     1    26    27    1
     2    27    19    1
     3    19    20    2
     4    20    21    1
     5    21    22    1
     6    22    23    1
     7    23    18    1
     8    18    12    1
     9    12    13    1
    10    13    14    1
    11    14    15    1
    12    15     1    1
    13     1     2   ar
    14     2     3   ar
    15     3     4    2
    16     3     5   ar
    17     5     6   ar
    18     6     7   ar
    19     7    28    1
    20    28    29    1
    21    28    30    1
    22    28    31    1
    23     7     8   ar
    24     8     9   ar
    25     9    32    1
    26    32    33    2
    27    32    34    1
    28     9    10   ar
    29    10    11   ar
    30    15    16    1
    31    16    17    1
    32    23    24    1
    33    24    25    1
    34    25    20    1
    35    17    12    1
    36    11     1   ar
    37    10     5   ar
@<TRIPOS>MOLECULE
*****
 34 37 0 0 0
SMALL
GASTEIGER

@<TRIPOS>ATOM
      1 C           3.9028   -0.8900   25.7132 C.ar    1  UNL1        0.1665
      2 N           2.8612    0.1892   25.7255 N.ar    1  UNL1       -0.1866
      3 C           2.1832    0.5917   24.4494 C.ar    1  UNL1        0.2814
      4 O           1.1415    1.6710   24.4616 O.2     1  UNL1       -0.2651
      5 C           2.5469   -0.0851   23.1611 C.ar    1  UNL1        0.0699
      6 C           1.8689    0.3175   21.8850 C.ar    1  UNL1        0.0096
      7 C           2.2325   -0.3593   20.5967 C.ar    1  UNL1        0.0777
      8 C           3.2742   -1.4387   20.5845 C.ar    1  UNL1        0.0797
      9 C           3.9521   -1.8411   21.8606 C.ar    1  UNL1        0.2960
     10 C           3.5885   -1.1643   23.1489 C.ar    1  UNL1        0.1059
     11 S           4.2664   -1.5668   24.4249 S.2     1  UNL1       -0.0466
     12 N           5.9367   -2.0976   29.5415 N.3     1  UNL1       -0.2698
     13 C           4.8560   -1.0575   29.5620 C.3     1  UNL1        0.0939
     14 C           4.1781   -0.6550   28.2860 C.3     1  UNL1        0.1100
     15 N           4.5808   -1.2926   26.9893 N.pl3   1  UNL1       -0.2852
     16 C           5.6614   -2.3326   26.9687 C.3     1  UNL1        0.1100
     17 C           6.3394   -2.7352   28.2448 C.3     1  UNL1        0.0939
     18 C           6.6147   -2.5001   30.8175 C.3     1  UNL1        0.0722
     19 N           4.6537   -0.3489   36.0641 N.2     1  UNL1       -0.0917
     20 C           5.1439   -0.8867   34.7525 C.2     1  UNL1        0.0748
     21 C           6.4434   -0.4016   34.1816 C.3     1  UNL1        0.0447
     22 C           6.9337   -0.9394   32.8699 C.3     1  UNL1        0.0074
     23 C           6.1244   -1.9623   32.1291 C.3     1  UNL1        0.0167
     24 C           4.8249   -2.4473   32.7000 C.3     1  UNL1        0.0074
     25 C           4.3346   -1.9095   34.0117 C.3     1  UNL1        0.0447
     26 C           4.7891    1.6186   37.7555 C.3     1  UNL1        0.2885
     27 O           5.4630    0.6740   36.8049 O.2     1  UNL1       -0.3737
     28 C           1.5546    0.0431   19.3207 C.3     1  UNL1        0.4188
     29 F           0.8767    0.4456   18.0445 F       1  UNL1       -0.1659
     30 F           2.8828    0.0730   18.6244 F       1  UNL1       -0.1659
     31 F           0.2263    0.0133   20.0169 F       1  UNL1       -0.1659
     32 N           4.9938   -2.9204   21.8483 N.pl3   1  UNL1        0.0814
     33 O           4.5867   -4.3573   21.9893 O.2     1  UNL1        0.0415
     34 O           6.4425   -2.5629   21.6951 O.co2   1  UNL1       -0.5760
@<TRIPOS>UNITY_ATOM_ATTR
32 1
charge 1
34 1
charge -1
@<TRIPOS>BOND
     1    26    27    1
     2    27    19    1
     3    19    20    2
     4    20    21    1
     5    21    22    1
     6    22    23    1
     7    23    18    1
     8    18    12    1
     9    12    13    1
    10    13    14    1
    11    14    15    1
    12    15     1    1
    13     1     2   ar
    14     2     3   ar
    15     3     4    2
    16     3     5   ar
    17     5     6   ar
    18     6     7   ar
    19     7    28    1
    20    28    29    1
    21    28    30    1
    22    28    31    1
    23     7     8   ar
    24     8     9   ar
    25     9    32    1
    26    32    33    2
    27    32    34    1
    28     9    10   ar
    29    10    11   ar
    30    15    16    1
    31    16    17    1
    32    23    24    1
    33    24    25    1
    34    25    20    1
    35    17    12    1
    36    11     1   ar
    37    10     5   ar
@<TRIPOS>MOLECULE
*****
 34 37 0 0 0
SMALL
GASTEIGER

@<TRIPOS>ATOM
      1 C          -2.8086    3.5676   20.6034 C.ar    1  UNL1        0.1665
      2 N          -4.0070    3.4603   19.7078 N.ar    1  UNL1       -0.1866
      3 C          -5.3794    3.7129   20.2580 C.ar    1  UNL1        0.2814
      4 O          -6.5780    3.6056   19.3624 O.2     1  UNL1       -0.2651
      5 C          -5.5533    4.0729   21.7038 C.ar    1  UNL1        0.0699
      6 C          -6.9258    4.3255   22.2539 C.ar    1  UNL1        0.0096
      7 C          -7.0997    4.6855   23.6997 C.ar    1  UNL1        0.0777
      8 C          -5.9011    4.7928   24.5953 C.ar    1  UNL1        0.0797
      9 C          -4.5287    4.5401   24.0451 C.ar    1  UNL1        0.2960
     10 C          -4.3548    4.1802   22.5993 C.ar    1  UNL1        0.1059
     11 S          -2.9825    3.9275   22.0492 S.2     1  UNL1       -0.0466
     12 N           1.3087    2.8096   18.9530 N.3     1  UNL1       -0.2698
     13 C           0.2992    3.5595   18.1352 C.3     1  UNL1        0.0939
     14 C          -1.0732    3.8121   18.6854 C.3     1  UNL1        0.1100
     15 N          -1.4361    3.3149   20.0533 N.pl3   1  UNL1       -0.2852
     16 C          -0.4267    2.5651   20.8710 C.3     1  UNL1        0.1100
     17 C           0.9458    2.3124   20.3208 C.3     1  UNL1        0.0939
     18 C           2.6811    2.5570   18.4028 C.3     1  UNL1        0.0722
     19 N           5.4242   -2.6718   19.4677 N.2     1  UNL1       -0.0917
     20 C           4.7385   -1.3646   19.2015 C.2     1  UNL1        0.0748
     21 C           3.7397   -1.2549   18.0878 C.3     1  UNL1        0.0447
     22 C           3.0538    0.0524   17.8215 C.3     1  UNL1        0.0074
     23 C           3.3669    1.2498   18.6690 C.3     1  UNL1        0.0167
     24 C           4.3657    1.1400   19.7827 C.3     1  UNL1        0.0074
     25 C           5.0515   -0.1672   20.0489 C.3     1  UNL1        0.0447
     26 C           4.1064   -4.8789   19.0904 C.3     1  UNL1        0.2885
     27 O           5.1112   -3.8693   18.6202 O.2     1  UNL1       -0.3737
     28 C          -8.4720    4.9381   24.2498 C.3     1  UNL1        0.4188
     29 F          -9.8445    5.1908   24.8001 F       1  UNL1       -0.1659
     30 F          -8.0227    6.2767   24.7559 F       1  UNL1       -0.1659
     31 F          -8.9214    3.5995   23.7437 F       1  UNL1       -0.1659
     32 N          -3.3303    4.6474   24.9407 N.pl3   1  UNL1        0.0814
     33 O          -2.6203    5.9604   25.0895 O.2     1  UNL1        0.0415
     34 O          -2.8417    3.4418   25.6875 O.co2   1  UNL1       -0.5760
@<TRIPOS>UNITY_ATOM_ATTR
32 1
charge 1
34 1
charge -1
@<TRIPOS>BOND
     1    26    27    1
     2    27    19    1
     3    19    20    2
     4    20    21    1
     5    21    22    1
     6    22    23    1
     7    23    18    1
     8    18    12    1
     9    12    13    1
    10    13    14    1
    11    14    15    1
    12    15     1    1
    13     1     2   ar
    14     2     3   ar
    15     3     4    2
    16     3     5   ar
    17     5     6   ar
    18     6     7   ar
    19     7    28    1
    20    28    29    1
    21    28    30    1
    22    28    31    1
    23     7     8   ar
    24     8     9   ar
    25     9    32    1
    26    32    33    2
    27    32    34    1
    28     9    10   ar
    29    10    11   ar
    30    15    16    1
    31    16    17    1
    32    23    24    1
    33    24    25    1
    34    25    20    1
    35    17    12    1
    36    11     1   ar
    37    10     5   ar
@<TRIPOS>MOLECULE
*****
 34 37 0 0 0
SMALL
GASTEIGER

@<TRIPOS>ATOM
      1 C           6.0945   -2.3575   30.0280 C.ar    1  UNL1        0.1665
      2 N           6.5598   -3.6436   30.6439 N.ar    1  UNL1       -0.1866
      3 C           6.9749   -4.7878   29.7673 C.ar    1  UNL1        0.2814
      4 O           7.4402   -6.0740   30.3832 O.2     1  UNL1       -0.2651
      5 C           6.9248   -4.6459   28.2749 C.ar    1  UNL1        0.0699
      6 C           7.3399   -5.7901   27.3983 C.ar    1  UNL1        0.0096
      7 C           7.2898   -5.6482   25.9059 C.ar    1  UNL1        0.0777
      8 C           6.8245   -4.3620   25.2900 C.ar    1  UNL1        0.0797
      9 C           6.4093   -3.2178   26.1666 C.ar    1  UNL1        0.2960
     10 C           6.4595   -3.3597   27.6590 C.ar    1  UNL1        0.1059
     11 S           6.0443   -2.2155   28.5356 S.2     1  UNL1       -0.0466
     12 N           4.8490    1.0753   32.6578 N.3     1  UNL1       -0.2698
     13 C           3.8109    0.1671   32.0681 C.3     1  UNL1        0.0939
     14 C           4.2261   -0.9771   31.1916 C.3     1  UNL1        0.1100
     15 N           5.6793   -1.2132   30.9046 N.pl3   1  UNL1       -0.2852
     16 C           6.7174   -0.3050   31.4942 C.3     1  UNL1        0.1100
     17 C           6.3022    0.8392   32.3708 C.3     1  UNL1        0.0939
     18 C           4.4338    2.2195   33.5343 C.3     1  UNL1        0.0722
     19 N           2.9008    1.2186   39.2481 N.2     1  UNL1       -0.0917
     20 C           3.2841    1.4688   37.8197 C.2     1  UNL1        0.0748
     21 C           2.7050    2.6394   37.0819 C.3     1  UNL1        0.0447
     22 C           3.0883    2.8897   35.6533 C.3     1  UNL1        0.0074
     23 C           4.0505    1.9693   34.9627 C.3     1  UNL1        0.0167
     24 C           4.6296    0.7987   35.7006 C.3     1  UNL1        0.0074
     25 C           4.2464    0.5485   37.1291 C.3     1  UNL1        0.0447
     26 C           0.4626    1.8876   39.8463 C.3     1  UNL1        0.2885
     27 O           1.9385    2.1390   39.9387 O.2     1  UNL1       -0.3737
     28 C           7.7049   -6.7924   25.0293 C.3     1  UNL1        0.4188
     29 F           8.1201   -7.9367   24.1527 F       1  UNL1       -0.1659
     30 F           7.6996   -7.7058   26.2191 F       1  UNL1       -0.1659
     31 F           7.7102   -5.8790   23.8395 F       1  UNL1       -0.1659
     32 N           5.9441   -1.9317   25.5508 N.pl3   1  UNL1        0.0814
     33 O           4.4915   -1.7350   25.2320 O.2     1  UNL1        0.0415
     34 O           6.9312   -0.8421   25.2537 O.co2   1  UNL1       -0.5760
@<TRIPOS>UNITY_ATOM_ATTR
32 1
charge 1
34 1
charge -1
@<TRIPOS>BOND
     1    26    27    1
     2    27    19    1
     3    19    20    2
     4    20    21    1
     5    21    22    1
     6    22    23    1
     7    23    18    1
     8    18    12    1
     9    12    13    1
    10    13    14    1
    11    14    15    1
    12    15     1    1
    13     1     2   ar
    14     2     3   ar
    15     3     4    2
    16     3     5   ar
    17     5     6   ar
    18     6     7   ar
    19     7    28    1
    20    28    29    1
    21    28    30    1
    22    28    31    1
    23     7     8   ar
    24     8     9   ar
    25     9    32    1
    26    32    33    2
    27    32    34    1
    28     9    10   ar
    29    10    11   ar
    30    15    16    1
    31    16    17    1
    32    23    24    1
    33    24    25    1
    34    25    20    1
    35    17    12    1
    36    11     1   ar
    37    10     5   ar
@<TRIPOS>MOLECULE
*****
 34 37 0 0 0
SMALL
GASTEIGER

@<TRIPOS>ATOM
      1 C           6.6533   -1.9180   30.8029 C.ar    1  UNL1        0.1665
      2 N           6.2812   -1.3887   29.4497 N.ar    1  UNL1       -0.1866
      3 C           6.3455   -2.2863   28.2496 C.ar    1  UNL1        0.2814
      4 O           5.9734   -1.7570   26.8963 O.2     1  UNL1       -0.2651
      5 C           6.7820   -3.7132   28.4028 C.ar    1  UNL1        0.0699
      6 C           6.8464   -4.6107   27.2026 C.ar    1  UNL1        0.0096
      7 C           7.2828   -6.0376   27.3558 C.ar    1  UNL1        0.0777
      8 C           7.6550   -6.5670   28.7091 C.ar    1  UNL1        0.0797
      9 C           7.5906   -5.6694   29.9092 C.ar    1  UNL1        0.2960
     10 C           7.1542   -4.2425   29.7560 C.ar    1  UNL1        0.1059
     11 S           7.0898   -3.3449   30.9561 S.2     1  UNL1       -0.0466
     12 N           6.4603    0.7747   34.4033 N.3     1  UNL1       -0.2698
     13 C           5.3098    0.7240   33.4420 C.3     1  UNL1        0.0939
     14 C           5.3742   -0.1735   32.2419 C.3     1  UNL1        0.1100
     15 N           6.5890   -1.0205   32.0031 N.pl3   1  UNL1       -0.2852
     16 C           7.7394   -0.9699   32.9643 C.3     1  UNL1        0.1100
     17 C           7.6750   -0.0723   34.1644 C.3     1  UNL1        0.0939
     18 C           6.3959    1.6722   35.6034 C.3     1  UNL1        0.0722
     19 N           1.0823    3.1251   37.9812 N.2     1  UNL1       -0.0917
     20 C           2.4107    2.7619   37.3867 C.2     1  UNL1        0.0748
     21 C           2.9933    1.4009   37.6279 C.3     1  UNL1        0.0447
     22 C           4.3217    1.0376   37.0334 C.3     1  UNL1        0.0074
     23 C           5.0675    2.0354   36.1978 C.3     1  UNL1        0.0167
     24 C           4.4848    3.3965   35.9567 C.3     1  UNL1        0.0074
     25 C           3.1565    3.7597   36.5511 C.3     1  UNL1        0.0447
     26 C           0.4997    2.1266   40.3079 C.3     1  UNL1        0.2885
     27 O           0.3365    2.1273   38.8168 O.2     1  UNL1       -0.3737
     28 C           7.3472   -6.9352   26.1557 C.3     1  UNL1        0.4188
     29 F           7.4116   -7.8329   24.9557 F       1  UNL1       -0.1659
     30 F           7.5461   -8.1206   27.0530 F       1  UNL1       -0.1659
     31 F           7.1483   -5.7498   25.2585 F       1  UNL1       -0.1659
     32 N           7.9628   -6.1987   31.2624 N.pl3   1  UNL1        0.0814
     33 O           6.8904   -6.5752   32.2414 O.2     1  UNL1        0.0415
     34 O           9.4073   -6.3516   31.6367 O.co2   1  UNL1       -0.5760
@<TRIPOS>UNITY_ATOM_ATTR
32 1
charge 1
34 1
charge -1
@<TRIPOS>BOND
     1    26    27    1
     2    27    19    1
     3    19    20    2
     4    20    21    1
     5    21    22    1
     6    22    23    1
     7    23    18    1
     8    18    12    1
     9    12    13    1
    10    13    14    1
    11    14    15    1
    12    15     1    1
    13     1     2   ar
    14     2     3   ar
    15     3     4    2
    16     3     5   ar
    17     5     6   ar
    18     6     7   ar
    19     7    28    1
    20    28    29    1
    21    28    30    1
    22    28    31    1
    23     7     8   ar
    24     8     9   ar
    25     9    32    1
    26    32    33    2
    27    32    34    1
    28     9    10   ar
    29    10    11   ar
    30    15    16    1
    31    16    17    1
    32    23    24    1
    33    24    25    1
    34    25    20    1
    35    17    12    1
    36    11     1   ar
    37    10     5   ar
@<TRIPOS>MOLECULE
*****
 34 37 0 0 0
SMALL
GASTEIGER

@<TRIPOS>ATOM
      1 C           7.1635   -3.7428   27.5883 C.ar    1  UNL1        0.1665
      2 N           7.8811   -4.4668   28.6887 N.ar    1  UNL1       -0.1866
      3 C           7.5647   -4.1562   30.1216 C.ar    1  UNL1        0.2814
      4 O           8.2822   -4.8802   31.2221 O.2     1  UNL1       -0.2651
      5 C           6.5308   -3.1216   30.4542 C.ar    1  UNL1        0.0699
      6 C           6.2144   -2.8110   31.8873 C.ar    1  UNL1        0.0096
      7 C           5.1805   -1.7764   32.2198 C.ar    1  UNL1        0.0777
      8 C           4.4629   -1.0524   31.1194 C.ar    1  UNL1        0.0797
      9 C           4.7793   -1.3630   29.6864 C.ar    1  UNL1        0.2960
     10 C           5.8132   -2.3976   29.3538 C.ar    1  UNL1        0.1059
     11 S           6.1296   -2.7082   27.9209 S.2     1  UNL1       -0.0466
     12 N           8.1126   -4.6744   23.2892 N.3     1  UNL1       -0.2698
     13 C           7.9854   -3.2485   23.7373 C.3     1  UNL1        0.0939
     14 C           7.6690   -2.9380   25.1703 C.3     1  UNL1        0.1100
     15 N           7.4799   -4.0533   26.1553 N.pl3   1  UNL1       -0.2852
     16 C           7.6071   -5.4792   25.7073 C.3     1  UNL1        0.1100
     17 C           7.9234   -5.7898   24.2742 C.3     1  UNL1        0.0939
     18 C           8.4289   -4.9849   21.8563 C.3     1  UNL1        0.0722
     19 N           6.5357   -1.3154   17.5031 N.2     1  UNL1       -0.0917
     20 C           7.0090   -2.2328   18.5914 C.2     1  UNL1        0.0748
     21 C           6.0345   -3.1358   19.2876 C.3     1  UNL1        0.0447
     22 C           6.5078   -4.0532   20.3760 C.3     1  UNL1        0.0074
     23 C           7.9556   -4.0676   20.7680 C.3     1  UNL1        0.0167
     24 C           8.9301   -3.1645   20.0716 C.3     1  UNL1        0.0074
     25 C           8.4568   -2.2471   18.9834 C.3     1  UNL1        0.0447
     26 C           4.2047   -0.1687   17.5446 C.3     1  UNL1        0.2885
     27 O           5.0879   -1.3011   17.1111 O.2     1  UNL1       -0.3737
     28 C           4.8641   -1.4658   33.6528 C.3     1  UNL1        0.4188
     29 F           4.5477   -1.1553   35.0858 F       1  UNL1       -0.1659
     30 F           4.2474   -2.8240   33.8110 F       1  UNL1       -0.1659
     31 F           5.4808   -0.1077   33.4946 F       1  UNL1       -0.1659
     32 N           4.0617   -0.6390   28.5860 N.pl3   1  UNL1        0.0814
     33 O           4.5867    0.6740   28.0852 O.2     1  UNL1        0.0415
     34 O           2.8193   -1.2278   27.9864 O.co2   1  UNL1       -0.5760
@<TRIPOS>UNITY_ATOM_ATTR
32 1
charge 1
34 1
charge -1
@<TRIPOS>BOND
     1    26    27    1
     2    27    19    1
     3    19    20    2
     4    20    21    1
     5    21    22    1
     6    22    23    1
     7    23    18    1
     8    18    12    1
     9    12    13    1
    10    13    14    1
    11    14    15    1
    12    15     1    1
    13     1     2   ar
    14     2     3   ar
    15     3     4    2
    16     3     5   ar
    17     5     6   ar
    18     6     7   ar
    19     7    28    1
    20    28    29    1
    21    28    30    1
    22    28    31    1
    23     7     8   ar
    24     8     9   ar
    25     9    32    1
    26    32    33    2
    27    32    34    1
    28     9    10   ar
    29    10    11   ar
    30    15    16    1
    31    16    17    1
    32    23    24    1
    33    24    25    1
    34    25    20    1
    35    17    12    1
    36    11     1   ar
    37    10     5   ar
@<TRIPOS>MOLECULE
*****
 34 37 0 0 0
SMALL
GASTEIGER

@<TRIPOS>ATOM
      1 C           1.8826    0.7157   20.2149 C.ar    1  UNL1        0.1665
      2 N           1.9686    0.1772   21.6122 N.ar    1  UNL1       -0.1866
      3 C           3.0476   -0.7998   21.9744 C.ar    1  UNL1        0.2814
      4 O           3.1336   -1.3383   23.3718 O.2     1  UNL1       -0.2651
      5 C           4.0406   -1.2383   20.9392 C.ar    1  UNL1        0.0699
      6 C           5.1196   -2.2153   21.3015 C.ar    1  UNL1        0.0096
      7 C           6.1127   -2.6539   20.2663 C.ar    1  UNL1        0.0777
      8 C           6.0267   -2.1154   18.8689 C.ar    1  UNL1        0.0797
      9 C           4.9477   -1.1384   18.5067 C.ar    1  UNL1        0.2960
     10 C           3.9546   -0.6999   19.5419 C.ar    1  UNL1        0.1059
     11 S           2.8756    0.2771   19.1797 S.2     1  UNL1       -0.0466
     12 N          -1.3545    3.6467   19.1281 N.3     1  UNL1       -0.2698
     13 C          -0.3066    3.2786   18.1199 C.3     1  UNL1        0.0939
     14 C           0.7724    2.3016   18.4821 C.3     1  UNL1        0.1100
     15 N           0.8036    1.6927   19.8526 N.pl3   1  UNL1       -0.2852
     16 C          -0.2442    2.0608   20.8609 C.3     1  UNL1        0.1100
     17 C          -1.3233    3.0378   20.4986 C.3     1  UNL1        0.0939
     18 C          -2.4334    4.6237   18.7659 C.3     1  UNL1        0.0722
     19 N          -7.4641    4.8822   22.0254 N.2     1  UNL1       -0.0917
     20 C          -6.2064    4.8176   21.2106 C.2     1  UNL1        0.0748
     21 C          -5.0712    5.7517   21.5081 C.3     1  UNL1        0.0447
     22 C          -3.8135    5.6871   20.6932 C.3     1  UNL1        0.0074
     23 C          -3.6911    4.6883   19.5808 C.3     1  UNL1        0.0167
     24 C          -4.8264    3.7542   19.2833 C.3     1  UNL1        0.0074
     25 C          -6.0840    3.8188   20.0981 C.3     1  UNL1        0.0447
     26 C          -7.3547    5.4549   24.5573 C.3     1  UNL1        0.2885
     27 O          -7.5865    5.8810   23.1378 O.2     1  UNL1       -0.3737
     28 C           7.1917   -3.6309   20.6285 C.3     1  UNL1        0.4188
     29 F           8.2708   -4.6079   20.9907 F       1  UNL1       -0.1659
     30 F           8.0700   -3.0586   19.5557 F       1  UNL1       -0.1659
     31 F           6.3134   -4.2031   21.7013 F       1  UNL1       -0.1659
     32 N           4.8617   -0.5999   17.1094 N.pl3   1  UNL1        0.0814
     33 O           5.7821    0.5008   16.6718 O.2     1  UNL1        0.0415
     34 O           3.8554   -1.1621   16.1496 O.co2   1  UNL1       -0.5760
@<TRIPOS>UNITY_ATOM_ATTR
32 1
charge 1
34 1
charge -1
@<TRIPOS>BOND
     1    26    27    1
     2    27    19    1
     3    19    20    2
     4    20    21    1
     5    21    22    1
     6    22    23    1
     7    23    18    1
     8    18    12    1
     9    12    13    1
    10    13    14    1
    11    14    15    1
    12    15     1    1
    13     1     2   ar
    14     2     3   ar
    15     3     4    2
    16     3     5   ar
    17     5     6   ar
    18     6     7   ar
    19     7    28    1
    20    28    29    1
    21    28    30    1
    22    28    31    1
    23     7     8   ar
    24     8     9   ar
    25     9    32    1
    26    32    33    2
    27    32    34    1
    28     9    10   ar
    29    10    11   ar
    30    15    16    1
    31    16    17    1
    32    23    24    1
    33    24    25    1
    34    25    20    1
    35    17    12    1
    36    11     1   ar
    37    10     5   ar
@<TRIPOS>MOLECULE
*****
 34 37 0 0 0
SMALL
GASTEIGER

@<TRIPOS>ATOM
      1 C          -1.8639    3.3931   22.2718 C.ar    1  UNL1        0.1665
      2 N          -1.9052    3.4401   23.7705 N.ar    1  UNL1       -0.1866
      3 C          -3.1847    3.7806   24.4752 C.ar    1  UNL1        0.2814
      4 O          -3.2260    3.8276   25.9740 O.2     1  UNL1       -0.2651
      5 C          -4.4231    4.0742   23.6813 C.ar    1  UNL1        0.0699
      6 C          -5.7027    4.4148   24.3861 C.ar    1  UNL1        0.0096
      7 C          -6.9410    4.7083   23.5922 C.ar    1  UNL1        0.0777
      8 C          -6.8997    4.6613   22.0934 C.ar    1  UNL1        0.0797
      9 C          -5.6202    4.3208   21.3887 C.ar    1  UNL1        0.2960
     10 C          -4.3818    4.0272   22.1826 C.ar    1  UNL1        0.1059
     11 S          -3.1023    3.6866   21.4779 S.2     1  UNL1       -0.0466
     12 N           1.9748    2.3714   20.1574 N.3     1  UNL1       -0.2698
     13 C           0.6575    2.1038   19.4915 C.3     1  UNL1        0.0939
     14 C          -0.6220    2.4444   20.1963 C.3     1  UNL1        0.1100
     15 N          -0.5843    3.0525   21.5670 N.pl3   1  UNL1       -0.2852
     16 C           0.7329    3.3201   22.2329 C.3     1  UNL1        0.1100
     17 C           2.0125    2.9795   21.5281 C.3     1  UNL1        0.0939
     18 C           3.2543    2.0308   19.4526 C.3     1  UNL1        0.0722
     19 N           4.7661   -3.7107   18.5871 N.2     1  UNL1       -0.0917
     20 C           4.3881   -2.2754   18.8034 C.2     1  UNL1        0.0748
     21 C           3.8938   -1.8242   20.1458 C.3     1  UNL1        0.0447
     22 C           3.5158   -0.3887   20.3622 C.3     1  UNL1        0.0074
     23 C           3.6323    0.5954   19.2362 C.3     1  UNL1        0.0167
     24 C           4.1266    0.1442   17.8938 C.3     1  UNL1        0.0074
     25 C           4.5046   -1.2912   17.6774 C.3     1  UNL1        0.0447
     26 C           3.3722   -5.4544   19.9162 C.3     1  UNL1        0.2885
     27 O           4.6497   -4.6949   19.7131 O.2     1  UNL1       -0.3737
     28 C          -8.2206    5.0489   24.2969 C.3     1  UNL1        0.4188
     29 F          -9.5002    5.3894   25.0016 F       1  UNL1       -0.1659
     30 F          -8.8573    3.8106   23.7391 F       1  UNL1       -0.1659
     31 F          -7.5838    6.2872   24.8547 F       1  UNL1       -0.1659
     32 N          -5.5789    4.2738   19.8900 N.pl3   1  UNL1        0.0814
     33 O          -5.1791    5.4924   19.1121 O.2     1  UNL1        0.0415
     34 O          -5.9375    3.0082   19.1692 O.co2   1  UNL1       -0.5760
@<TRIPOS>UNITY_ATOM_ATTR
32 1
charge 1
34 1
charge -1
@<TRIPOS>BOND
     1    26    27    1
     2    27    19    1
     3    19    20    2
     4    20    21    1
     5    21    22    1
     6    22    23    1
     7    23    18    1
     8    18    12    1
     9    12    13    1
    10    13    14    1
    11    14    15    1
    12    15     1    1
    13     1     2   ar
    14     2     3   ar
    15     3     4    2
    16     3     5   ar
    17     5     6   ar
    18     6     7   ar
    19     7    28    1
    20    28    29    1
    21    28    30    1
    22    28    31    1
    23     7     8   ar
    24     8     9   ar
    25     9    32    1
    26    32    33    2
    27    32    34    1
    28     9    10   ar
    29    10    11   ar
    30    15    16    1
    31    16    17    1
    32    23    24    1
    33    24    25    1
    34    25    20    1
    35    17    12    1
    36    11     1   ar
    37    10     5   ar
