@<TRIPOS>MOLECULE
*****
 37 41 0 0 0
SMALL
GASTEIGER

@<TRIPOS>ATOM
      1 N          -8.8560  -18.4817   21.2918 N.3     1  UNL1       -0.2679
      2 C          -9.5178  -19.0681   22.5034 C.3     1  UNL1        0.0978
      3 C          -8.8279  -20.1447   23.2876 C.3     1  UNL1        0.0224
      4 C          -9.4898  -20.7312   24.4993 C.3     1  UNL1        0.0065
      5 C         -10.8415  -20.2411   24.9266 C.3     1  UNL1        0.0277
      6 C         -11.5313  -19.1645   24.1424 C.ar    1  UNL1       -0.0073
      7 C         -12.8831  -18.6744   24.5698 C.ar    1  UNL1       -0.0015
      8 C         -13.5730  -17.5979   23.7855 C.ar    1  UNL1        0.0203
      9 C         -12.9111  -17.0114   22.5739 C.ar    1  UNL1        0.0985
     10 N         -11.5594  -17.5015   22.1465 N.ar    1  UNL1       -0.2471
     11 C         -10.8695  -18.5781   22.9308 C.ar    1  UNL1        0.0695
     12 C          -8.8717  -19.2305   19.9922 C.3     1  UNL1        0.0725
     13 C          -7.5808  -19.6298   19.3409 C.3     1  UNL1        0.0188
     14 C          -6.7755  -20.7630   19.9044 C.3     1  UNL1        0.0185
     15 C          -6.1052  -20.6161   21.2382 C.3     1  UNL1        0.0686
     16 N          -5.4281  -19.3272   21.5995 N.3     1  UNL1       -0.2984
     17 H          -6.0440  -18.5747   21.2917 H       1  UNL1        0.1232
     18 O           0.0697  -18.1868   20.4526 O.2     1  UNL1       -0.1730
     19 S          -1.3352  -18.4030   19.9734 S.O2    1  UNL1       -0.0099
     20 O          -0.6499  -18.1473   18.6639 O.2     1  UNL1       -0.1730
     21 C          -2.5020  -18.5305   19.0395 C.3     1  UNL1        0.1522
     22 C          -3.8664  -18.8386   19.5815 C.3     1  UNL1        0.0411
     23 C          -4.0638  -19.0192   21.0574 C.3     1  UNL1        0.0575
     24 C          -2.8969  -18.8917   21.9914 C.3     1  UNL1        0.0411
     25 C          -1.5327  -18.5836   21.4494 C.3     1  UNL1        0.1522
     26 C          -8.1784  -17.1464   21.3797 C.3     1  UNL1        0.0886
     27 C          -7.5977  -16.6844   22.6834 C.3     1  UNL1        0.0748
     28 C          -8.5046  -16.3201   23.8212 C.3     1  UNL1        0.0432
     29 C          -7.9239  -15.8581   25.1249 C.ar    1  UNL1       -0.0234
     30 C          -8.8308  -15.4939   26.2628 C.ar    1  UNL1       -0.0045
     31 C          -8.2501  -15.0319   27.5663 C.ar    1  UNL1       -0.0003
     32 C          -6.7625  -14.9342   27.7320 C.ar    1  UNL1       -0.0003
     33 C          -5.8556  -15.2985   26.5942 C.ar    1  UNL1       -0.0032
     34 C          -6.4363  -15.7604   25.2906 C.ar    1  UNL1       -0.0103
     35 C          -5.5294  -16.1247   24.1526 C.3     1  UNL1        0.0953
     36 N          -6.1101  -16.5867   22.8491 N.3     1  UNL1       -0.2934
     37 H          -5.7323  -17.5174   22.6718 H       1  UNL1        0.1236
@<TRIPOS>BOND
     1    18    19    2
     2    19    20    2
     3    19    21    1
     4    21    22    1
     5    22    23    1
     6    23    16    1
     7    16    15    1
     8    15    14    1
     9    14    13    1
    10    13    12    1
    11    12     1    1
    12     1    26    1
    13    27    26    1
    14    27    28    1
    15    28    29    1
    16    29    30   ar
    17    30    31   ar
    18    31    32   ar
    19    32    33   ar
    20    33    34   ar
    21    34    35    1
    22    35    36    1
    23     2     1    1
    24     2     3    1
    25     3     4    1
    26     4     5    1
    27     5     6    1
    28     6     7   ar
    29     7     8   ar
    30     8     9   ar
    31     9    10   ar
    32    10    11   ar
    33    23    24    1
    34    24    25    1
    35    25    19    1
    36    36    27    1
    37    11     2    1
    38    34    29   ar
    39    11     6   ar
    40    16    17    1
    41    36    37    1
@<TRIPOS>MOLECULE
*****
 37 41 0 0 0
SMALL
GASTEIGER

@<TRIPOS>ATOM
      1 N         -10.6101  -17.0763   21.0752 N.3     1  UNL1       -0.2679
      2 C         -11.3200  -17.6678   22.2569 C.3     1  UNL1        0.0978
      3 C         -12.6753  -17.1589   22.6495 C.3     1  UNL1        0.0224
      4 C         -13.3851  -17.7503   23.8311 C.3     1  UNL1        0.0065
      5 C         -12.7397  -18.8507   24.6201 C.3     1  UNL1        0.0277
      6 C         -11.3845  -19.3596   24.2275 C.ar    1  UNL1       -0.0073
      7 C         -10.7390  -20.4601   25.0165 C.ar    1  UNL1       -0.0015
      8 C          -9.3837  -20.9690   24.6239 C.ar    1  UNL1        0.0203
      9 C          -8.6738  -20.3775   23.4423 C.ar    1  UNL1        0.0985
     10 N          -9.3192  -19.2771   22.6533 N.ar    1  UNL1       -0.2471
     11 C         -10.6746  -18.7682   23.0459 C.ar    1  UNL1        0.0695
     12 C         -10.7491  -17.7096   19.7226 C.3     1  UNL1        0.0725
     13 C         -10.3448  -19.1397   19.5190 C.3     1  UNL1        0.0188
     14 C          -9.0265  -19.4628   18.8804 C.3     1  UNL1        0.0185
     15 C          -7.8377  -19.7852   19.7363 C.3     1  UNL1        0.0686
     16 N          -7.0854  -18.6828   20.4212 N.3     1  UNL1       -0.2984
     17 H          -7.2235  -17.8407   19.8623 H       1  UNL1        0.1232
     18 O          -1.6718  -19.1583   22.2399 O.2     1  UNL1       -0.1730
     19 S          -2.6557  -19.0722   21.1110 S.O2    1  UNL1       -0.0099
     20 O          -1.3775  -19.1850   20.3344 O.2     1  UNL1       -0.1730
     21 C          -3.1957  -19.0252   19.7124 C.3     1  UNL1        0.1522
     22 C          -4.6723  -18.8954   19.4824 C.3     1  UNL1        0.0411
     23 C          -5.6089  -18.8126   20.6511 C.3     1  UNL1        0.0575
     24 C          -5.0689  -18.8596   22.0498 C.3     1  UNL1        0.0411
     25 C          -3.5924  -18.9894   22.2797 C.3     1  UNL1        0.1522
     26 C          -9.7612  -15.8515   21.2462 C.3     1  UNL1        0.0886
     27 C          -8.7992  -15.7599   22.3935 C.3     1  UNL1        0.0748
     28 C          -9.3149  -15.6667   23.7990 C.3     1  UNL1        0.0432
     29 C          -8.3528  -15.5751   24.9463 C.ar    1  UNL1       -0.0234
     30 C          -8.8685  -15.4820   26.3518 C.ar    1  UNL1       -0.0045
     31 C          -7.9065  -15.3903   27.4990 C.ar    1  UNL1       -0.0003
     32 C          -6.4289  -15.3918   27.2407 C.ar    1  UNL1       -0.0003
     33 C          -5.9133  -15.4849   25.8352 C.ar    1  UNL1       -0.0032
     34 C          -6.8753  -15.5765   24.6880 C.ar    1  UNL1       -0.0103
     35 C          -6.3597  -15.6696   23.2824 C.3     1  UNL1        0.0953
     36 N          -7.3216  -15.7613   22.1352 N.3     1  UNL1       -0.2934
     37 H          -7.1098  -16.6286   21.6419 H       1  UNL1        0.1236
@<TRIPOS>BOND
     1    18    19    2
     2    19    20    2
     3    19    21    1
     4    21    22    1
     5    22    23    1
     6    23    16    1
     7    16    15    1
     8    15    14    1
     9    14    13    1
    10    13    12    1
    11    12     1    1
    12     1    26    1
    13    27    26    1
    14    27    28    1
    15    28    29    1
    16    29    30   ar
    17    30    31   ar
    18    31    32   ar
    19    32    33   ar
    20    33    34   ar
    21    34    35    1
    22    35    36    1
    23     2     1    1
    24     2     3    1
    25     3     4    1
    26     4     5    1
    27     5     6    1
    28     6     7   ar
    29     7     8   ar
    30     8     9   ar
    31     9    10   ar
    32    10    11   ar
    33    23    24    1
    34    24    25    1
    35    25    19    1
    36    36    27    1
    37    11     2    1
    38    34    29   ar
    39    11     6   ar
    40    16    17    1
    41    36    37    1
@<TRIPOS>MOLECULE
*****
 37 41 0 0 0
SMALL
GASTEIGER

@<TRIPOS>ATOM
      1 N          -6.8154  -18.3991   22.8705 N.3     1  UNL1       -0.2679
      2 C          -8.2258  -18.9057   22.9356 C.3     1  UNL1        0.0978
      3 C          -8.8721  -19.1561   24.2658 C.3     1  UNL1        0.0224
      4 C         -10.2825  -19.6626   24.3309 C.3     1  UNL1        0.0065
      5 C         -11.0465  -19.9189   23.0658 C.3     1  UNL1        0.0277
      6 C         -10.4002  -19.6685   21.7356 C.ar    1  UNL1       -0.0073
      7 C         -11.1642  -19.9247   20.4704 C.ar    1  UNL1       -0.0015
      8 C         -10.5179  -19.6743   19.1402 C.ar    1  UNL1        0.0203
      9 C          -9.1075  -19.1677   19.0751 C.ar    1  UNL1        0.0985
     10 N          -8.3435  -18.9115   20.3402 N.ar    1  UNL1       -0.2471
     11 C          -8.9898  -19.1619   21.6705 C.ar    1  UNL1        0.0695
     12 C          -6.5283  -16.9468   23.1117 C.3     1  UNL1        0.0725
     13 C          -5.9994  -16.4975   24.4416 C.3     1  UNL1        0.0188
     14 C          -6.7828  -15.5227   25.2698 C.3     1  UNL1        0.0185
     15 C          -8.0235  -14.8912   24.7112 C.3     1  UNL1        0.0686
     16 N          -9.3002  -15.6760   24.6457 N.3     1  UNL1       -0.2984
     17 H          -9.0849  -16.6166   24.9763 H       1  UNL1        0.1232
     18 O         -11.2130  -15.9830   19.2524 O.2     1  UNL1       -0.1730
     19 S         -11.4578  -16.1393   20.7240 S.O2    1  UNL1       -0.0099
     20 O         -12.8044  -16.5322   20.1928 O.2     1  UNL1       -0.1730
     21 C         -12.1703  -16.4320   22.0111 C.3     1  UNL1        0.1522
     22 C         -11.4511  -16.2776   23.3184 C.3     1  UNL1        0.0411
     23 C         -10.0194  -15.8304   23.3385 C.3     1  UNL1        0.0575
     24 C          -9.3070  -15.5377   22.0513 C.3     1  UNL1        0.0411
     25 C         -10.0262  -15.6921   20.7441 C.3     1  UNL1        0.1522
     26 C          -5.6922  -19.3448   22.5643 C.3     1  UNL1        0.0886
     27 C          -4.6838  -18.9954   21.5101 C.3     1  UNL1        0.0748
     28 C          -3.2797  -18.6429   21.9028 C.3     1  UNL1        0.0432
     29 C          -2.2714  -18.2935   20.8486 C.ar    1  UNL1       -0.0234
     30 C          -0.8673  -17.9410   21.2412 C.ar    1  UNL1       -0.0045
     31 C           0.1410  -17.5916   20.1871 C.ar    1  UNL1       -0.0003
     32 C          -0.2549  -17.5948   18.7403 C.ar    1  UNL1       -0.0003
     33 C          -1.6589  -17.9473   18.3476 C.ar    1  UNL1       -0.0032
     34 C          -2.6672  -18.2966   19.4017 C.ar    1  UNL1       -0.0103
     35 C          -4.0714  -18.6492   19.0091 C.3     1  UNL1        0.0953
     36 N          -5.0796  -18.9985   20.0632 N.3     1  UNL1       -0.2934
     37 H          -5.4134  -19.9388   19.8513 H       1  UNL1        0.1236
@<TRIPOS>BOND
     1    18    19    2
     2    19    20    2
     3    19    21    1
     4    21    22    1
     5    22    23    1
     6    23    16    1
     7    16    15    1
     8    15    14    1
     9    14    13    1
    10    13    12    1
    11    12     1    1
    12     1    26    1
    13    27    26    1
    14    27    28    1
    15    28    29    1
    16    29    30   ar
    17    30    31   ar
    18    31    32   ar
    19    32    33   ar
    20    33    34   ar
    21    34    35    1
    22    35    36    1
    23     2     1    1
    24     2     3    1
    25     3     4    1
    26     4     5    1
    27     5     6    1
    28     6     7   ar
    29     7     8   ar
    30     8     9   ar
    31     9    10   ar
    32    10    11   ar
    33    23    24    1
    34    24    25    1
    35    25    19    1
    36    36    27    1
    37    11     2    1
    38    34    29   ar
    39    11     6   ar
    40    16    17    1
    41    36    37    1
@<TRIPOS>MOLECULE
*****
 37 41 0 0 0
SMALL
GASTEIGER

@<TRIPOS>ATOM
      1 N          -6.9036  -18.5579   22.0491 N.3     1  UNL1       -0.2679
      2 C          -8.2950  -18.9791   21.6794 C.3     1  UNL1        0.0978
      3 C          -8.6329  -19.2784   20.2490 C.3     1  UNL1        0.0224
      4 C         -10.0242  -19.6996   19.8793 C.3     1  UNL1        0.0065
      5 C         -11.0777  -19.8216   20.9400 C.3     1  UNL1        0.0277
      6 C         -10.7398  -19.5224   22.3705 C.ar    1  UNL1       -0.0073
      7 C         -11.7933  -19.6444   23.4313 C.ar    1  UNL1       -0.0015
      8 C         -11.4555  -19.3452   24.8618 C.ar    1  UNL1        0.0203
      9 C         -10.0641  -18.9240   25.2315 C.ar    1  UNL1        0.0985
     10 N          -9.0106  -18.8019   24.1707 N.ar    1  UNL1       -0.2471
     11 C          -9.3485  -19.1012   22.7402 C.ar    1  UNL1        0.0695
     12 C          -6.6250  -17.1308   22.4176 C.3     1  UNL1        0.0725
     13 C          -5.9910  -16.8071   23.7379 C.3     1  UNL1        0.0188
     14 C          -6.5648  -15.7216   24.5994 C.3     1  UNL1        0.0185
     15 C          -7.7654  -14.9515   24.1351 C.3     1  UNL1        0.0686
     16 N          -9.1411  -15.5157   24.3335 N.3     1  UNL1       -0.2984
     17 H          -9.0250  -16.4222   24.7866 H       1  UNL1        0.1232
     18 O         -11.7793  -16.1951   19.2917 O.2     1  UNL1       -0.1730
     19 S         -11.8370  -16.1702   20.7904 S.O2    1  UNL1       -0.0099
     20 O         -13.2715  -16.4795   20.4797 O.2     1  UNL1       -0.1730
     21 C         -12.3929  -16.2527   22.1811 C.3     1  UNL1        0.1522
     22 C         -11.4942  -16.0346   23.3622 C.3     1  UNL1        0.0411
     23 C         -10.0397  -15.7339   23.1525 C.3     1  UNL1        0.0575
     24 C          -9.4839  -15.6514   21.7617 C.3     1  UNL1        0.0411
     25 C         -10.3825  -15.8695   20.5807 C.3     1  UNL1        0.1522
     26 C          -5.7909  -19.5637   22.0504 C.3     1  UNL1        0.0886
     27 C          -4.4032  -19.1475   21.6614 C.3     1  UNL1        0.0748
     28 C          -4.0777  -18.8743   20.2229 C.3     1  UNL1        0.0432
     29 C          -2.6900  -18.4581   19.8339 C.ar    1  UNL1       -0.0234
     30 C          -2.3645  -18.1849   18.3954 C.ar    1  UNL1       -0.0045
     31 C          -0.9769  -17.7688   18.0064 C.ar    1  UNL1       -0.0003
     32 C           0.0852  -17.6259   19.0560 C.ar    1  UNL1       -0.0003
     33 C          -0.2403  -17.8991   20.4945 C.ar    1  UNL1       -0.0032
     34 C          -1.6280  -18.3152   20.8834 C.ar    1  UNL1       -0.0103
     35 C          -1.9535  -18.5885   22.3220 C.3     1  UNL1        0.0953
     36 N          -3.3411  -19.0046   22.7110 N.3     1  UNL1       -0.2934
     37 H          -3.6794  -18.3129   23.3799 H       1  UNL1        0.1236
@<TRIPOS>BOND
     1    18    19    2
     2    19    20    2
     3    19    21    1
     4    21    22    1
     5    22    23    1
     6    23    16    1
     7    16    15    1
     8    15    14    1
     9    14    13    1
    10    13    12    1
    11    12     1    1
    12     1    26    1
    13    27    26    1
    14    27    28    1
    15    28    29    1
    16    29    30   ar
    17    30    31   ar
    18    31    32   ar
    19    32    33   ar
    20    33    34   ar
    21    34    35    1
    22    35    36    1
    23     2     1    1
    24     2     3    1
    25     3     4    1
    26     4     5    1
    27     5     6    1
    28     6     7   ar
    29     7     8   ar
    30     8     9   ar
    31     9    10   ar
    32    10    11   ar
    33    23    24    1
    34    24    25    1
    35    25    19    1
    36    36    27    1
    37    11     2    1
    38    34    29   ar
    39    11     6   ar
    40    16    17    1
    41    36    37    1
@<TRIPOS>MOLECULE
*****
 37 41 0 0 0
SMALL
GASTEIGER

@<TRIPOS>ATOM
      1 N          -7.2671  -17.1180   22.4697 N.3     1  UNL1       -0.2679
      2 C          -6.5787  -16.3631   23.5680 C.3     1  UNL1        0.0978
      3 C          -5.2996  -15.6314   23.2877 C.3     1  UNL1        0.0224
      4 C          -4.6112  -14.8766   24.3860 C.3     1  UNL1        0.0065
      5 C          -5.2018  -14.8534   25.7646 C.3     1  UNL1        0.0277
      6 C          -6.4809  -15.5851   26.0449 C.ar    1  UNL1       -0.0073
      7 C          -7.0716  -15.5620   27.4235 C.ar    1  UNL1       -0.0015
      8 C          -8.3506  -16.2937   27.7038 C.ar    1  UNL1        0.0203
      9 C          -9.0390  -17.0486   26.6055 C.ar    1  UNL1        0.0985
     10 N          -8.4484  -17.0717   25.2269 N.ar    1  UNL1       -0.2471
     11 C          -7.1693  -16.3400   24.9466 C.ar    1  UNL1        0.0695
     12 C          -6.8669  -18.5313   22.1659 C.3     1  UNL1        0.0725
     13 C          -7.5820  -19.2994   21.0941 C.3     1  UNL1        0.0188
     14 C          -6.8004  -19.9702   20.0037 C.3     1  UNL1        0.0185
     15 C          -5.9068  -21.1309   20.3266 C.3     1  UNL1        0.0686
     16 N          -4.4365  -21.0476   20.0412 N.3     1  UNL1       -0.2984
     17 H          -3.9990  -21.8364   20.5174 H       1  UNL1        0.1232
     18 O          -1.7739  -16.5756   22.4397 O.2     1  UNL1       -0.1730
     19 S          -2.1206  -17.3730   21.2174 S.O2    1  UNL1       -0.0099
     20 O          -1.2848  -16.2937   20.5958 O.2     1  UNL1       -0.1730
     21 C          -2.1771  -17.7954   19.7792 C.3     1  UNL1        0.1522
     22 C          -2.9491  -19.0204   19.3871 C.3     1  UNL1        0.0411
     23 C          -3.6646  -19.8228   20.4332 C.3     1  UNL1        0.0575
     24 C          -3.6081  -19.4002   21.8714 C.3     1  UNL1        0.0411
     25 C          -2.8361  -18.1753   22.2635 C.3     1  UNL1        0.1522
     26 C          -8.3557  -16.4595   21.6751 C.3     1  UNL1        0.0886
     27 C          -9.7929  -16.6872   22.0395 C.3     1  UNL1        0.0748
     28 C         -10.1410  -17.5620   23.2072 C.3     1  UNL1        0.0432
     29 C         -11.5782  -17.7897   23.5716 C.ar    1  UNL1       -0.0234
     30 C         -11.9263  -18.6644   24.7393 C.ar    1  UNL1       -0.0045
     31 C         -13.3635  -18.8921   25.1036 C.ar    1  UNL1       -0.0003
     32 C         -14.4524  -18.2451   24.3003 C.ar    1  UNL1       -0.0003
     33 C         -14.1043  -17.3703   23.1326 C.ar    1  UNL1       -0.0032
     34 C         -12.6672  -17.1426   22.7682 C.ar    1  UNL1       -0.0103
     35 C         -12.3190  -16.2678   21.6005 C.3     1  UNL1        0.0953
     36 N         -10.8819  -16.0401   21.2361 N.3     1  UNL1       -0.2934
     37 H         -10.7226  -15.0337   21.2811 H       1  UNL1        0.1236
@<TRIPOS>BOND
     1    18    19    2
     2    19    20    2
     3    19    21    1
     4    21    22    1
     5    22    23    1
     6    23    16    1
     7    16    15    1
     8    15    14    1
     9    14    13    1
    10    13    12    1
    11    12     1    1
    12     1    26    1
    13    27    26    1
    14    27    28    1
    15    28    29    1
    16    29    30   ar
    17    30    31   ar
    18    31    32   ar
    19    32    33   ar
    20    33    34   ar
    21    34    35    1
    22    35    36    1
    23     2     1    1
    24     2     3    1
    25     3     4    1
    26     4     5    1
    27     5     6    1
    28     6     7   ar
    29     7     8   ar
    30     8     9   ar
    31     9    10   ar
    32    10    11   ar
    33    23    24    1
    34    24    25    1
    35    25    19    1
    36    36    27    1
    37    11     2    1
    38    34    29   ar
    39    11     6   ar
    40    16    17    1
    41    36    37    1
@<TRIPOS>MOLECULE
*****
 37 41 0 0 0
SMALL
GASTEIGER

@<TRIPOS>ATOM
      1 N         -16.2207   -5.1145   19.0126 N.3     1  UNL1       -0.2679
      2 C         -17.0800   -6.3275   19.2138 C.3     1  UNL1        0.0978
      3 C         -18.4505   -6.1858   19.8067 C.3     1  UNL1        0.0224
      4 C         -19.3097   -7.3988   20.0079 C.3     1  UNL1        0.0065
      5 C         -18.7985   -8.7534   19.6161 C.3     1  UNL1        0.0277
      6 C         -17.4280   -8.8951   19.0231 C.ar    1  UNL1       -0.0073
      7 C         -16.9167  -10.2498   18.6313 C.ar    1  UNL1       -0.0015
      8 C         -15.5462  -10.3914   18.0383 C.ar    1  UNL1        0.0203
      9 C         -14.6869   -9.1785   17.8372 C.ar    1  UNL1        0.0985
     10 N         -15.1982   -7.8239   18.2290 N.ar    1  UNL1       -0.2471
     11 C         -16.5687   -7.6821   18.8220 C.ar    1  UNL1        0.0695
     12 C         -14.8643   -5.0424   19.6489 C.3     1  UNL1        0.0725
     13 C         -14.6242   -4.1105   20.7995 C.3     1  UNL1        0.0188
     14 C         -13.4423   -3.1870   20.7826 C.3     1  UNL1        0.0185
     15 C         -12.7675   -2.8562   19.4845 C.3     1  UNL1        0.0686
     16 N         -11.3612   -3.3133   19.2323 N.3     1  UNL1       -0.2984
     17 H         -10.9448   -2.6424   18.5866 H       1  UNL1        0.1232
     18 O         -11.1053   -8.3125   16.4423 O.2     1  UNL1       -0.1730
     19 S         -10.5978   -7.4060   17.5243 S.O2    1  UNL1       -0.0099
     20 O          -9.7006   -8.5895   17.7341 O.2     1  UNL1       -0.1730
     21 C          -9.7788   -6.9106   18.6792 C.3     1  UNL1        0.1522
     22 C         -10.0332   -5.5463   19.2485 C.3     1  UNL1        0.0411
     23 C         -11.1068   -4.6775   18.6630 C.3     1  UNL1        0.0575
     24 C         -11.9258   -5.1730   17.5081 C.3     1  UNL1        0.0411
     25 C         -11.6713   -6.5372   16.9388 C.3     1  UNL1        0.1522
     26 C         -16.7179   -3.9737   18.1752 C.3     1  UNL1        0.0886
     27 C         -16.9215   -2.6223   18.7937 C.3     1  UNL1        0.0748
     28 C         -15.9458   -1.5168   18.5183 C.3     1  UNL1        0.0432
     29 C         -16.1493   -0.1654   19.1367 C.ar    1  UNL1       -0.0234
     30 C         -15.1736    0.9400   18.8614 C.ar    1  UNL1       -0.0045
     31 C         -15.3772    2.2913   19.4798 C.ar    1  UNL1       -0.0003
     32 C         -16.5565    2.5371   20.3736 C.ar    1  UNL1       -0.0003
     33 C         -17.5322    1.4317   20.6490 C.ar    1  UNL1       -0.0032
     34 C         -17.3286    0.0804   20.0305 C.ar    1  UNL1       -0.0103
     35 C         -18.3043   -1.0252   20.3059 C.3     1  UNL1        0.0953
     36 N         -18.1007   -2.3765   19.6875 N.3     1  UNL1       -0.2934
     37 H         -18.9351   -2.5766   19.1359 H       1  UNL1        0.1236
@<TRIPOS>BOND
     1    18    19    2
     2    19    20    2
     3    19    21    1
     4    21    22    1
     5    22    23    1
     6    23    16    1
     7    16    15    1
     8    15    14    1
     9    14    13    1
    10    13    12    1
    11    12     1    1
    12     1    26    1
    13    27    26    1
    14    27    28    1
    15    28    29    1
    16    29    30   ar
    17    30    31   ar
    18    31    32   ar
    19    32    33   ar
    20    33    34   ar
    21    34    35    1
    22    35    36    1
    23     2     1    1
    24     2     3    1
    25     3     4    1
    26     4     5    1
    27     5     6    1
    28     6     7   ar
    29     7     8   ar
    30     8     9   ar
    31     9    10   ar
    32    10    11   ar
    33    23    24    1
    34    24    25    1
    35    25    19    1
    36    36    27    1
    37    11     2    1
    38    34    29   ar
    39    11     6   ar
    40    16    17    1
    41    36    37    1
@<TRIPOS>MOLECULE
*****
 37 41 0 0 0
SMALL
GASTEIGER

@<TRIPOS>ATOM
      1 N         -15.5536   -3.0585   18.8884 N.3     1  UNL1       -0.2679
      2 C         -16.8973   -2.5196   18.4960 C.3     1  UNL1        0.0978
      3 C         -17.7170   -3.2300   17.4600 C.3     1  UNL1        0.0224
      4 C         -19.0607   -2.6911   17.0676 C.3     1  UNL1        0.0065
      5 C         -19.5847   -1.4416   17.7112 C.3     1  UNL1        0.0277
      6 C         -18.7651   -0.7312   18.7472 C.ar    1  UNL1       -0.0073
      7 C         -19.2891    0.5183   19.3909 C.ar    1  UNL1       -0.0015
      8 C         -18.4694    1.2288   20.4269 C.ar    1  UNL1        0.0203
      9 C         -17.1257    0.6898   20.8193 C.ar    1  UNL1        0.0985
     10 N         -16.6017   -0.5596   20.1757 N.ar    1  UNL1       -0.2471
     11 C         -17.4213   -1.2701   19.1396 C.ar    1  UNL1        0.0695
     12 C         -14.3107   -2.5100   18.2526 C.3     1  UNL1        0.0725
     13 C         -13.3006   -1.7799   19.0875 C.3     1  UNL1        0.0188
     14 C         -12.1562   -1.0686   18.4285 C.3     1  UNL1        0.0185
     15 C         -10.9023   -1.8186   18.0895 C.3     1  UNL1        0.0686
     16 N         -10.4177   -2.9156   18.9905 N.3     1  UNL1       -0.2984
     17 H          -9.4445   -2.7059   19.2127 H       1  UNL1        0.1232
     18 O          -9.9010   -8.5166   17.8934 O.2     1  UNL1       -0.1730
     19 S         -10.5387   -7.1921   17.5951 S.O2    1  UNL1       -0.0099
     20 O         -11.2383   -8.0515   16.5842 O.2     1  UNL1       -0.1730
     21 C         -11.4194   -6.1661   16.9457 C.3     1  UNL1        0.1522
     22 C         -11.3790   -4.7405   17.4109 C.3     1  UNL1        0.0411
     23 C         -10.4580   -4.3411   18.5254 C.3     1  UNL1        0.0575
     24 C          -9.5773   -5.3672   19.1748 C.3     1  UNL1        0.0411
     25 C          -9.6177   -6.7926   18.7096 C.3     1  UNL1        0.1522
     26 C         -15.4528   -4.1460   19.9165 C.3     1  UNL1        0.0886
     27 C         -15.5704   -5.5829   19.5024 C.3     1  UNL1        0.0748
     28 C         -16.8970   -6.2789   19.5775 C.3     1  UNL1        0.0432
     29 C         -17.0146   -7.7159   19.1634 C.ar    1  UNL1       -0.0234
     30 C         -18.3412   -8.4119   19.2385 C.ar    1  UNL1       -0.0045
     31 C         -18.4588   -9.8487   18.8244 C.ar    1  UNL1       -0.0003
     32 C         -17.2497  -10.5896   18.3352 C.ar    1  UNL1       -0.0003
     33 C         -15.9231   -9.8936   18.2601 C.ar    1  UNL1       -0.0032
     34 C         -15.8056   -8.4568   18.6742 C.ar    1  UNL1       -0.0103
     35 C         -14.4789   -7.7607   18.5991 C.3     1  UNL1        0.0953
     36 N         -14.3613   -6.3238   19.0132 N.3     1  UNL1       -0.2934
     37 H         -14.0098   -5.8120   18.2040 H       1  UNL1        0.1236
@<TRIPOS>BOND
     1    18    19    2
     2    19    20    2
     3    19    21    1
     4    21    22    1
     5    22    23    1
     6    23    16    1
     7    16    15    1
     8    15    14    1
     9    14    13    1
    10    13    12    1
    11    12     1    1
    12     1    26    1
    13    27    26    1
    14    27    28    1
    15    28    29    1
    16    29    30   ar
    17    30    31   ar
    18    31    32   ar
    19    32    33   ar
    20    33    34   ar
    21    34    35    1
    22    35    36    1
    23     2     1    1
    24     2     3    1
    25     3     4    1
    26     4     5    1
    27     5     6    1
    28     6     7   ar
    29     7     8   ar
    30     8     9   ar
    31     9    10   ar
    32    10    11   ar
    33    23    24    1
    34    24    25    1
    35    25    19    1
    36    36    27    1
    37    11     2    1
    38    34    29   ar
    39    11     6   ar
    40    16    17    1
    41    36    37    1
@<TRIPOS>MOLECULE
*****
 37 41 0 0 0
SMALL
GASTEIGER

@<TRIPOS>ATOM
      1 N           7.1937   -4.0881   23.9760 N.3     1  UNL1       -0.2679
      2 C           7.4930   -5.2758   24.8418 C.3     1  UNL1        0.0978
      3 C           8.0384   -6.5318   24.2295 C.3     1  UNL1        0.0224
      4 C           8.3378   -7.7196   25.0953 C.3     1  UNL1        0.0065
      5 C           8.0918   -7.6513   26.5734 C.3     1  UNL1        0.0277
      6 C           7.5464   -6.3953   27.1857 C.ar    1  UNL1       -0.0073
      7 C           7.3003   -6.3270   28.6639 C.ar    1  UNL1       -0.0015
      8 C           6.7549   -5.0710   29.2761 C.ar    1  UNL1        0.0203
      9 C           6.4555   -3.8833   28.4103 C.ar    1  UNL1        0.0985
     10 N           6.7016   -3.9515   26.9323 N.ar    1  UNL1       -0.2471
     11 C           7.2470   -5.2076   26.3199 C.ar    1  UNL1        0.0695
     12 C           8.1870   -2.9694   23.8678 C.3     1  UNL1        0.0725
     13 C           8.3527   -2.2364   22.5696 C.3     1  UNL1        0.0188
     14 C           9.2063   -2.8194   21.4827 C.3     1  UNL1        0.0185
     15 C           8.6117   -3.1104   20.1368 C.3     1  UNL1        0.0686
     16 N           7.1446   -3.3971   20.0110 N.3     1  UNL1       -0.2984
     17 H           7.0575   -4.2477   19.4548 H       1  UNL1        0.1232
     18 O           3.2785   -0.2622   17.1710 O.2     1  UNL1       -0.1730
     19 S           4.4063   -0.3457   18.1563 S.O2    1  UNL1       -0.0099
     20 O           4.1358    1.1292   18.1945 O.2     1  UNL1       -0.1730
     21 C           5.4402    0.0831   19.1549 C.3     1  UNL1        0.1522
     22 C           6.3530   -0.9341   19.7732 C.3     1  UNL1        0.0411
     23 C           6.2319   -2.3800   19.3928 C.3     1  UNL1        0.0575
     24 C           5.1980   -2.8087   18.3942 C.3     1  UNL1        0.0411
     25 C           4.2852   -1.7916   17.7759 C.3     1  UNL1        0.1522
     26 C           5.9009   -4.0190   23.2184 C.3     1  UNL1        0.0886
     27 C           4.9429   -2.8926   23.4708 C.3     1  UNL1        0.0748
     28 C           4.1760   -2.2906   22.3309 C.3     1  UNL1        0.0432
     29 C           3.2181   -1.1642   22.5833 C.ar    1  UNL1       -0.0234
     30 C           2.4512   -0.5622   21.4434 C.ar    1  UNL1       -0.0045
     31 C           1.4933    0.5641   21.6959 C.ar    1  UNL1       -0.0003
     32 C           1.3023    1.0885   23.0882 C.ar    1  UNL1       -0.0003
     33 C           2.0692    0.4865   24.2281 C.ar    1  UNL1       -0.0032
     34 C           3.0271   -0.6398   23.9757 C.ar    1  UNL1       -0.0103
     35 C           3.7941   -1.2419   25.1156 C.3     1  UNL1        0.0953
     36 N           4.7520   -2.3682   24.8632 N.3     1  UNL1       -0.2934
     37 H           4.4393   -3.1540   25.4334 H       1  UNL1        0.1236
@<TRIPOS>BOND
     1    18    19    2
     2    19    20    2
     3    19    21    1
     4    21    22    1
     5    22    23    1
     6    23    16    1
     7    16    15    1
     8    15    14    1
     9    14    13    1
    10    13    12    1
    11    12     1    1
    12     1    26    1
    13    27    26    1
    14    27    28    1
    15    28    29    1
    16    29    30   ar
    17    30    31   ar
    18    31    32   ar
    19    32    33   ar
    20    33    34   ar
    21    34    35    1
    22    35    36    1
    23     2     1    1
    24     2     3    1
    25     3     4    1
    26     4     5    1
    27     5     6    1
    28     6     7   ar
    29     7     8   ar
    30     8     9   ar
    31     9    10   ar
    32    10    11   ar
    33    23    24    1
    34    24    25    1
    35    25    19    1
    36    36    27    1
    37    11     2    1
    38    34    29   ar
    39    11     6   ar
    40    16    17    1
    41    36    37    1
@<TRIPOS>MOLECULE
*****
 37 41 0 0 0
SMALL
GASTEIGER

@<TRIPOS>ATOM
      1 N           5.8760   -1.2992   26.9781 N.3     1  UNL1       -0.2679
      2 C           6.1272   -2.1411   28.1940 C.3     1  UNL1        0.0978
      3 C           5.9380   -1.5572   29.5626 C.3     1  UNL1        0.0224
      4 C           6.1892   -2.3990   30.7784 C.3     1  UNL1        0.0065
      5 C           6.6296   -3.8247   30.6256 C.3     1  UNL1        0.0277
      6 C           6.8189   -4.4086   29.2570 C.ar    1  UNL1       -0.0073
      7 C           7.2593   -5.8343   29.1041 C.ar    1  UNL1       -0.0015
      8 C           7.4485   -6.4182   27.7355 C.ar    1  UNL1        0.0203
      9 C           7.1973   -5.5764   26.5196 C.ar    1  UNL1        0.0985
     10 N           6.7569   -4.1507   26.6724 N.ar    1  UNL1       -0.2471
     11 C           6.5677   -3.5668   28.0411 C.ar    1  UNL1        0.0695
     12 C           6.9594   -0.4091   26.4453 C.3     1  UNL1        0.0725
     13 C           8.0960   -0.9969   25.6626 C.3     1  UNL1        0.0188
     14 C           8.1391   -0.8418   24.1713 C.3     1  UNL1        0.0185
     15 C           7.1042   -0.0098   23.4737 C.3     1  UNL1        0.0686
     16 N           7.4530    0.7141   22.2070 N.3     1  UNL1       -0.2984
     17 H           6.9813    1.6177   22.2448 H       1  UNL1        0.1232
     18 O           6.8299   -2.2784   17.3595 O.2     1  UNL1       -0.1730
     19 S           6.4429   -1.1125   18.2204 S.O2    1  UNL1       -0.0099
     20 O           5.5402   -0.8796   17.0454 O.2     1  UNL1       -0.1730
     21 C           5.7425    0.1342   18.6732 C.3     1  UNL1        0.1522
     22 C           6.0792    0.7431   20.0021 C.3     1  UNL1        0.0411
     23 C           7.1163    0.1053   20.8782 C.3     1  UNL1        0.0575
     24 C           7.8168   -1.1415   20.4253 C.3     1  UNL1        0.0411
     25 C           7.4801   -1.7504   19.0965 C.3     1  UNL1        0.1522
     26 C           4.5415   -1.3476   26.2951 C.3     1  UNL1        0.0886
     27 C           4.4446   -1.8054   24.8699 C.3     1  UNL1        0.0748
     28 C           3.5909   -1.0491   23.8956 C.3     1  UNL1        0.0432
     29 C           3.4940   -1.5069   22.4704 C.ar    1  UNL1       -0.0234
     30 C           2.6403   -0.7505   21.4961 C.ar    1  UNL1       -0.0045
     31 C           2.5434   -1.2083   20.0710 C.ar    1  UNL1       -0.0003
     32 C           3.3001   -2.4225   19.6202 C.ar    1  UNL1       -0.0003
     33 C           4.1538   -3.1788   20.5945 C.ar    1  UNL1       -0.0032
     34 C           4.2507   -2.7210   22.0196 C.ar    1  UNL1       -0.0103
     35 C           5.1043   -3.4774   22.9939 C.3     1  UNL1        0.0953
     36 N           5.2013   -3.0196   24.4190 N.3     1  UNL1       -0.2934
     37 H           6.1877   -2.8369   24.6032 H       1  UNL1        0.1236
@<TRIPOS>BOND
     1    18    19    2
     2    19    20    2
     3    19    21    1
     4    21    22    1
     5    22    23    1
     6    23    16    1
     7    16    15    1
     8    15    14    1
     9    14    13    1
    10    13    12    1
    11    12     1    1
    12     1    26    1
    13    27    26    1
    14    27    28    1
    15    28    29    1
    16    29    30   ar
    17    30    31   ar
    18    31    32   ar
    19    32    33   ar
    20    33    34   ar
    21    34    35    1
    22    35    36    1
    23     2     1    1
    24     2     3    1
    25     3     4    1
    26     4     5    1
    27     5     6    1
    28     6     7   ar
    29     7     8   ar
    30     8     9   ar
    31     9    10   ar
    32    10    11   ar
    33    23    24    1
    34    24    25    1
    35    25    19    1
    36    36    27    1
    37    11     2    1
    38    34    29   ar
    39    11     6   ar
    40    16    17    1
    41    36    37    1
