@<TRIPOS>MOLECULE
*****
 38 39 0 0 0
SMALL
GASTEIGER

@<TRIPOS>ATOM
      1 C          -8.8551  -18.6545   22.0258 C.3     1  UNL1        0.1621
      2 C          -9.0045  -19.2477   20.6562 C.ar    1  UNL1        0.1812
      3 N         -10.2985  -19.5998   19.9842 N.ar    1  UNL1       -0.1109
      4 N          -9.9798  -20.1626   18.6308 N.ar    1  UNL1       -0.0229
      5 N          -8.4888  -20.1583   18.4664 N.ar    1  UNL1       -0.0430
      6 N          -7.8861  -19.5928   19.7181 N.ar    1  UNL1       -0.2115
      7 C          -6.4219  -19.4054   19.9849 C.3     1  UNL1        0.1779
      8 C          -5.5983  -20.5535   20.4887 C.3     1  UNL1        0.2364
      9 O          -4.1148  -20.5662   20.2677 O.3     1  UNL1       -0.4325
     10 C          -3.2257  -19.6852   21.0944 C.2     1  UNL1        0.4017
     11 O          -1.8637  -20.1644   21.5011 O.2     1  UNL1       -0.2264
     12 N          -3.6987  -18.3251   21.5143 N.am    1  UNL1       -0.2707
     13 H          -4.5926  -18.0107   21.2473 H       1  UNL1        0.1527
     14 C          -2.8096  -17.4441   22.3410 C.3     1  UNL1        0.0928
     15 C          -1.8669  -16.4892   21.6704 C.3     1  UNL1        0.0239
     16 C          -1.3317  -16.7990   20.3038 C.3     1  UNL1        0.0335
     17 C           0.0144  -17.4435   20.1539 C.3     1  UNL1        0.1372
     18 O           0.1166  -18.8705   19.7030 O.3     1  UNL1       -0.3820
     19 H          -0.2672  -19.4513   20.3785 H       1  UNL1        0.2104
     20 C         -11.1561  -18.1295   23.1119 C.2     1  UNL1        0.2351
     21 O         -11.3924  -17.0552   22.0920 O.2     1  UNL1       -0.2737
     22 N          -9.8875  -18.9292   23.0787 N.am    1  UNL1       -0.2965
     23 H          -9.7325  -19.6343   23.7481 H       1  UNL1        0.1499
     24 C         -13.2284  -17.7275   23.3217 C.3     1  UNL1        0.0249
     25 C         -12.1885  -18.4042   24.1648 C.3     1  UNL1        0.1086
     26 C         -11.1487  -19.0808   25.0079 C.3     1  UNL1        0.0249
     27 N         -13.2209  -18.6788   25.2178 N.3     1  UNL1       -0.3164
     28 H         -13.8038  -17.8517   25.3463 H       1  UNL1        0.1192
     29 H         -12.7573  -18.9081   26.0969 H       1  UNL1        0.1192
     30 C          -7.6733  -17.7867   22.3424 C.3     1  UNL1        0.1699
     31 O          -7.6729  -16.3427   21.9363 O.3     1  UNL1       -0.3468
     32 C          -8.1059  -15.2890   22.9121 C.3     1  UNL1        0.1687
     33 C          -7.6529  -15.3580   24.3405 C.ar    1  UNL1        0.0073
     34 C          -6.1951  -15.2357   24.6717 C.ar    1  UNL1       -0.0019
     35 C          -5.7422  -15.3046   26.1000 C.ar    1  UNL1       -0.0002
     36 C          -6.7471  -15.4959   27.1971 C.ar    1  UNL1       -0.0000
     37 C          -8.2049  -15.6182   26.8659 C.ar    1  UNL1       -0.0002
     38 C          -8.6578  -15.5492   25.4376 C.ar    1  UNL1       -0.0019
@<TRIPOS>BOND
     1    24    25    1
     2    25    26    1
     3    25    27    1
     4    25    20    1
     5    20    21    2
     6    20    22   am
     7    22     1    1
     8     1    30    1
     9    30    31    1
    10    31    32    1
    11    32    33    1
    12    33    34   ar
    13    34    35   ar
    14    35    36   ar
    15    36    37   ar
    16    37    38   ar
    17     1     2    1
    18     2     3   ar
    19     3     4   ar
    20     4     5   ar
    21     5     6   ar
    22     6     7    1
    23     7     8    1
    24     8     9    1
    25     9    10    1
    26    10    11    2
    27    10    12   am
    28    12    14    1
    29    14    15    1
    30    15    16    1
    31    16    17    1
    32    17    18    1
    33    38    33   ar
    34     6     2   ar
    35    27    28    1
    36    27    29    1
    37    22    23    1
    38    12    13    1
    39    18    19    1
@<TRIPOS>MOLECULE
*****
 38 39 0 0 0
SMALL
GASTEIGER

@<TRIPOS>ATOM
      1 C          -7.4058  -18.5965   21.5006 C.3     1  UNL1        0.1621
      2 C          -8.8031  -19.0461   21.1916 C.ar    1  UNL1        0.1812
      3 N          -9.5269  -18.8459   19.8931 N.ar    1  UNL1       -0.1109
      4 N         -10.8930  -19.4509   20.0258 N.ar    1  UNL1       -0.0229
      5 N         -11.0135  -20.0251   21.4064 N.ar    1  UNL1       -0.0430
      6 N          -9.7218  -19.7750   22.1268 N.ar    1  UNL1       -0.2115
      7 C          -9.4047  -20.1821   23.5352 C.3     1  UNL1        0.1779
      8 C          -9.9652  -19.4005   24.6863 C.3     1  UNL1        0.2364
      9 O         -11.4491  -19.2341   24.8282 O.3     1  UNL1       -0.4325
     10 C         -12.1686  -18.1980   24.0165 C.2     1  UNL1        0.4017
     11 O         -13.6634  -18.0947   24.0873 O.2     1  UNL1       -0.2264
     12 N         -11.3933  -17.2652   23.1340 N.am    1  UNL1       -0.2707
     13 H         -10.4123  -17.3330   23.0876 H       1  UNL1        0.1527
     14 C         -12.1128  -16.2291   22.3223 C.3     1  UNL1        0.0928
     15 C         -12.7446  -16.6061   21.0151 C.3     1  UNL1        0.0239
     16 C         -12.2493  -15.9938   19.7385 C.3     1  UNL1        0.0335
     17 C         -10.8493  -15.4618   19.6557 C.3     1  UNL1        0.1372
     18 O         -10.4609  -14.5437   18.5349 O.3     1  UNL1       -0.3820
     19 H         -10.5017  -15.0250   17.6938 H       1  UNL1        0.2104
     20 C          -7.3934  -16.3486   22.8032 C.2     1  UNL1        0.2351
     21 O          -7.9391  -15.6458   21.5955 O.2     1  UNL1       -0.2737
     22 N          -7.1268  -17.8240   22.7557 N.am    1  UNL1       -0.2965
     23 H          -6.7687  -18.2852   23.5483 H       1  UNL1        0.1499
     24 C          -8.5579  -15.6907   24.4497 C.3     1  UNL1        0.0249
     25 C          -7.1144  -15.5761   24.0583 C.3     1  UNL1        0.1086
     26 C          -5.6709  -15.4615   23.6669 C.3     1  UNL1        0.0249
     27 N          -6.8354  -14.8035   25.3134 N.3     1  UNL1       -0.3164
     28 H          -7.5802  -14.1238   25.4669 H       1  UNL1        0.1192
     29 H          -5.9440  -14.3163   25.2217 H       1  UNL1        0.1192
     30 C          -6.2876  -18.9195   20.5545 C.3     1  UNL1        0.1699
     31 O          -5.5268  -20.2037   20.7029 O.3     1  UNL1       -0.3468
     32 C          -4.0382  -20.2191   20.5196 C.3     1  UNL1        0.1687
     33 C          -3.2380  -18.9765   20.7762 C.ar    1  UNL1        0.0073
     34 C          -3.2344  -18.3553   22.1415 C.ar    1  UNL1       -0.0019
     35 C          -2.4343  -17.1128   22.3980 C.ar    1  UNL1       -0.0002
     36 C          -1.6378  -16.4914   21.2892 C.ar    1  UNL1       -0.0000
     37 C          -1.6414  -17.1125   19.9239 C.ar    1  UNL1       -0.0002
     38 C          -2.4415  -18.3551   19.6674 C.ar    1  UNL1       -0.0019
@<TRIPOS>BOND
     1    24    25    1
     2    25    26    1
     3    25    27    1
     4    25    20    1
     5    20    21    2
     6    20    22   am
     7    22     1    1
     8     1    30    1
     9    30    31    1
    10    31    32    1
    11    32    33    1
    12    33    34   ar
    13    34    35   ar
    14    35    36   ar
    15    36    37   ar
    16    37    38   ar
    17     1     2    1
    18     2     3   ar
    19     3     4   ar
    20     4     5   ar
    21     5     6   ar
    22     6     7    1
    23     7     8    1
    24     8     9    1
    25     9    10    1
    26    10    11    2
    27    10    12   am
    28    12    14    1
    29    14    15    1
    30    15    16    1
    31    16    17    1
    32    17    18    1
    33    38    33   ar
    34     6     2   ar
    35    27    28    1
    36    27    29    1
    37    22    23    1
    38    12    13    1
    39    18    19    1
@<TRIPOS>MOLECULE
*****
 38 39 0 0 0
SMALL
GASTEIGER

@<TRIPOS>ATOM
      1 C          -9.2492  -16.8423   24.6914 C.3     1  UNL1        0.1621
      2 C          -8.2896  -16.1866   25.6396 C.ar    1  UNL1        0.1812
      3 N          -8.5501  -15.8769   27.0839 N.ar    1  UNL1       -0.1109
      4 N          -7.3224  -15.2244   27.6469 N.ar    1  UNL1       -0.0229
      5 N          -6.3030  -15.1309   26.5505 N.ar    1  UNL1       -0.0430
      6 N          -6.9008  -15.7256   25.3099 N.ar    1  UNL1       -0.2115
      7 C          -6.2278  -15.8393   23.9742 C.3     1  UNL1        0.1779
      8 C          -4.8138  -16.3322   23.8861 C.3     1  UNL1        0.2364
      9 O          -3.8952  -15.7912   22.8309 O.3     1  UNL1       -0.4325
     10 C          -2.7921  -16.6488   22.2854 C.2     1  UNL1        0.4017
     11 O          -2.3079  -17.8345   23.0662 O.2     1  UNL1       -0.2264
     12 N          -2.1732  -16.3207   20.9590 N.am    1  UNL1       -0.2707
     13 H          -2.4910  -15.5425   20.4466 H       1  UNL1        0.1527
     14 C          -1.0701  -17.1783   20.4135 C.3     1  UNL1        0.0928
     15 C          -1.3806  -18.2554   19.4166 C.3     1  UNL1        0.0239
     16 C          -2.7407  -18.8877   19.3948 C.3     1  UNL1        0.0335
     17 C          -3.1135  -19.9007   20.4363 C.3     1  UNL1        0.1372
     18 O          -2.1102  -20.3166   21.4709 O.3     1  UNL1       -0.3820
     19 H          -1.3788  -20.7871   21.0413 H       1  UNL1        0.2104
     20 C         -10.6636  -16.4554   22.5467 C.2     1  UNL1        0.2351
     21 O         -11.8618  -17.0440   23.2307 O.2     1  UNL1       -0.2737
     22 N          -9.3573  -16.3545   23.2770 N.am    1  UNL1       -0.2965
     23 H          -8.5709  -15.9681   22.8281 H       1  UNL1        0.1499
     24 C          -9.3297  -15.5557   21.1642 C.3     1  UNL1        0.0249
     25 C         -10.7717  -15.9676   21.1323 C.3     1  UNL1        0.1086
     26 C         -12.2137  -16.3794   21.1005 C.3     1  UNL1        0.0249
     27 N         -10.8798  -15.4798   19.7180 N.3     1  UNL1       -0.3164
     28 H         -10.4005  -14.5838   19.6298 H       1  UNL1        0.1192
     29 H         -11.8630  -15.3651   19.4721 H       1  UNL1        0.1192
     30 C         -10.1008  -17.9857   25.1576 C.3     1  UNL1        0.1699
     31 O          -9.4920  -19.3423   25.3557 O.3     1  UNL1       -0.3468
     32 C          -9.6601  -20.4004   24.3059 C.3     1  UNL1        0.1687
     33 C          -9.6299  -20.0273   22.8533 C.ar    1  UNL1        0.0073
     34 C         -10.8776  -20.1282   22.0269 C.ar    1  UNL1       -0.0019
     35 C         -10.8472  -19.7551   20.5744 C.ar    1  UNL1       -0.0002
     36 C          -9.5692  -19.2812   19.9483 C.ar    1  UNL1       -0.0000
     37 C          -8.3215  -19.1803   20.7747 C.ar    1  UNL1       -0.0002
     38 C          -8.3518  -19.5534   22.2272 C.ar    1  UNL1       -0.0019
@<TRIPOS>BOND
     1    24    25    1
     2    25    26    1
     3    25    27    1
     4    25    20    1
     5    20    21    2
     6    20    22   am
     7    22     1    1
     8     1    30    1
     9    30    31    1
    10    31    32    1
    11    32    33    1
    12    33    34   ar
    13    34    35   ar
    14    35    36   ar
    15    36    37   ar
    16    37    38   ar
    17     1     2    1
    18     2     3   ar
    19     3     4   ar
    20     4     5   ar
    21     5     6   ar
    22     6     7    1
    23     7     8    1
    24     8     9    1
    25     9    10    1
    26    10    11    2
    27    10    12   am
    28    12    14    1
    29    14    15    1
    30    15    16    1
    31    16    17    1
    32    17    18    1
    33    38    33   ar
    34     6     2   ar
    35    27    28    1
    36    27    29    1
    37    22    23    1
    38    12    13    1
    39    18    19    1
@<TRIPOS>MOLECULE
*****
 38 39 0 0 0
SMALL
GASTEIGER

@<TRIPOS>ATOM
      1 C          -7.2234  -18.6711   21.7532 C.3     1  UNL1        0.1621
      2 C          -8.5614  -19.1495   21.2730 C.ar    1  UNL1        0.1812
      3 N          -9.1257  -18.9542   19.8969 N.ar    1  UNL1       -0.1109
      4 N         -10.4832  -19.5912   19.8579 N.ar    1  UNL1       -0.0229
      5 N         -10.7578  -20.1801   21.2099 N.ar    1  UNL1       -0.0430
      6 N          -9.5701  -19.9071   22.0844 N.ar    1  UNL1       -0.2115
      7 C          -9.4179  -20.3194   23.5186 C.3     1  UNL1        0.1779
      8 C          -9.9318  -19.4315   24.6129 C.3     1  UNL1        0.2364
      9 O         -11.4067  -19.2038   24.7637 O.3     1  UNL1       -0.4325
     10 C         -12.0912  -18.1525   23.9413 C.2     1  UNL1        0.4017
     11 O         -13.5893  -18.1001   23.8872 O.2     1  UNL1       -0.2264
     12 N         -11.2775  -17.1536   23.1732 N.am    1  UNL1       -0.2707
     13 H         -10.2943  -17.1880   23.2087 H       1  UNL1        0.1527
     14 C         -11.9620  -16.1023   22.3509 C.3     1  UNL1        0.0928
     15 C         -12.5877  -16.4670   21.0372 C.3     1  UNL1        0.0239
     16 C         -11.8278  -16.2584   19.7609 C.3     1  UNL1        0.0335
     17 C         -10.6626  -15.3143   19.7276 C.3     1  UNL1        0.1372
     18 O         -10.4089  -14.4789   18.5079 O.3     1  UNL1       -0.3820
     19 H         -10.1721  -15.0554   17.7647 H       1  UNL1        0.2104
     20 C          -4.6319  -18.8543   21.7255 C.2     1  UNL1        0.2351
     21 O          -4.5330  -17.5724   22.4982 O.2     1  UNL1       -0.2737
     22 N          -5.9771  -19.4036   21.3530 N.am    1  UNL1       -0.2965
     23 H          -6.0420  -20.2449   20.8459 H       1  UNL1        0.1499
     24 C          -4.1723  -20.3773   20.3223 C.3     1  UNL1        0.0249
     25 C          -3.3856  -19.5868   21.3254 C.3     1  UNL1        0.1086
     26 C          -2.5989  -18.7963   22.3284 C.3     1  UNL1        0.0249
     27 N          -2.1393  -20.3193   20.9252 N.3     1  UNL1       -0.3164
     28 H          -2.3482  -21.3119   20.8171 H       1  UNL1        0.1192
     29 H          -1.4276  -20.1982   21.6457 H       1  UNL1        0.1192
     30 C          -7.1316  -17.4601   22.6336 C.3     1  UNL1        0.1699
     31 O          -7.6593  -16.1411   22.1522 O.3     1  UNL1       -0.3468
     32 C          -7.8305  -15.0048   23.1163 C.3     1  UNL1        0.1687
     33 C          -7.5058  -15.1975   24.5681 C.ar    1  UNL1        0.0073
     34 C          -6.0799  -15.1470   25.0308 C.ar    1  UNL1       -0.0019
     35 C          -5.7552  -15.3398   26.4824 C.ar    1  UNL1       -0.0002
     36 C          -6.8564  -15.5830   27.4714 C.ar    1  UNL1       -0.0000
     37 C          -8.2824  -15.6335   27.0087 C.ar    1  UNL1       -0.0002
     38 C          -8.6070  -15.4408   25.5571 C.ar    1  UNL1       -0.0019
@<TRIPOS>BOND
     1    24    25    1
     2    25    26    1
     3    25    27    1
     4    25    20    1
     5    20    21    2
     6    20    22   am
     7    22     1    1
     8     1    30    1
     9    30    31    1
    10    31    32    1
    11    32    33    1
    12    33    34   ar
    13    34    35   ar
    14    35    36   ar
    15    36    37   ar
    16    37    38   ar
    17     1     2    1
    18     2     3   ar
    19     3     4   ar
    20     4     5   ar
    21     5     6   ar
    22     6     7    1
    23     7     8    1
    24     8     9    1
    25     9    10    1
    26    10    11    2
    27    10    12   am
    28    12    14    1
    29    14    15    1
    30    15    16    1
    31    16    17    1
    32    17    18    1
    33    38    33   ar
    34     6     2   ar
    35    27    28    1
    36    27    29    1
    37    22    23    1
    38    12    13    1
    39    18    19    1
@<TRIPOS>MOLECULE
*****
 38 39 0 0 0
SMALL
GASTEIGER

@<TRIPOS>ATOM
      1 C          -8.9494  -17.2835   22.3110 C.3     1  UNL1        0.1621
      2 C          -9.1447  -18.4738   23.2026 C.ar    1  UNL1        0.1812
      3 N          -9.9524  -18.5059   24.4662 N.ar    1  UNL1       -0.1109
      4 N          -9.8736  -19.8930   25.0316 N.ar    1  UNL1       -0.0229
      5 N          -9.0172  -20.7182   24.1174 N.ar    1  UNL1       -0.0430
      6 N          -8.5668  -19.8411   22.9870 N.ar    1  UNL1       -0.2115
      7 C          -7.6920  -20.2581   21.8421 C.3     1  UNL1        0.1779
      8 C          -6.2352  -20.5320   22.0722 C.3     1  UNL1        0.2364
      9 O          -5.2234  -20.1223   21.0435 O.3     1  UNL1       -0.4325
     10 C          -3.9372  -19.4796   21.4708 C.2     1  UNL1        0.4017
     11 O          -2.6310  -20.1692   21.2092 O.2     1  UNL1       -0.2264
     12 N          -3.9573  -18.1474   22.1598 N.am    1  UNL1       -0.2707
     13 H          -4.8146  -17.6949   22.3315 H       1  UNL1        0.1527
     14 C          -2.6711  -17.5047   22.5872 C.3     1  UNL1        0.0928
     15 C          -2.0408  -16.4464   21.7312 C.3     1  UNL1        0.0239
     16 C          -1.2665  -16.8349   20.5066 C.3     1  UNL1        0.0335
     17 C          -1.9920  -17.2345   19.2561 C.3     1  UNL1        0.1372
     18 O          -1.7877  -18.6023   18.6751 O.3     1  UNL1       -0.3820
     19 H          -0.8722  -18.6891   18.3665 H       1  UNL1        0.2104
     20 C         -10.7250  -16.8844   20.4569 C.2     1  UNL1        0.2351
     21 O         -10.1210  -17.9886   19.6407 O.2     1  UNL1       -0.2737
     22 N         -10.1392  -16.5319   21.7919 N.am    1  UNL1       -0.2965
     23 H         -10.5356  -15.8072   22.3275 H       1  UNL1        0.1499
     24 C         -11.0309  -15.4006   18.9720 C.3     1  UNL1        0.0249
     25 C         -11.9148  -16.1328   19.9378 C.3     1  UNL1        0.1086
     26 C         -12.7986  -16.8650   20.9036 C.3     1  UNL1        0.0249
     27 N         -13.1046  -15.3812   19.4187 N.3     1  UNL1       -0.3164
     28 H         -12.8584  -14.3993   19.2936 H       1  UNL1        0.1192
     29 H         -13.8722  -15.4568   20.0862 H       1  UNL1        0.1192
     30 C          -7.5642  -16.8448   21.9385 C.3     1  UNL1        0.1699
     31 O          -6.4434  -16.9806   22.9262 O.3     1  UNL1       -0.3468
     32 C          -6.0504  -15.8117   23.7801 C.3     1  UNL1        0.1687
     33 C          -6.7377  -15.5770   25.0926 C.ar    1  UNL1        0.0073
     34 C          -8.2264  -15.3996   25.1386 C.ar    1  UNL1       -0.0019
     35 C          -8.9135  -15.1650   26.4511 C.ar    1  UNL1       -0.0002
     36 C          -8.1120  -15.1077   27.7176 C.ar    1  UNL1       -0.0000
     37 C          -6.6232  -15.2851   27.6717 C.ar    1  UNL1       -0.0002
     38 C          -5.9361  -15.5198   26.3592 C.ar    1  UNL1       -0.0019
@<TRIPOS>BOND
     1    24    25    1
     2    25    26    1
     3    25    27    1
     4    25    20    1
     5    20    21    2
     6    20    22   am
     7    22     1    1
     8     1    30    1
     9    30    31    1
    10    31    32    1
    11    32    33    1
    12    33    34   ar
    13    34    35   ar
    14    35    36   ar
    15    36    37   ar
    16    37    38   ar
    17     1     2    1
    18     2     3   ar
    19     3     4   ar
    20     4     5   ar
    21     5     6   ar
    22     6     7    1
    23     7     8    1
    24     8     9    1
    25     9    10    1
    26    10    11    2
    27    10    12   am
    28    12    14    1
    29    14    15    1
    30    15    16    1
    31    16    17    1
    32    17    18    1
    33    38    33   ar
    34     6     2   ar
    35    27    28    1
    36    27    29    1
    37    22    23    1
    38    12    13    1
    39    18    19    1
@<TRIPOS>MOLECULE
*****
 38 39 0 0 0
SMALL
GASTEIGER

@<TRIPOS>ATOM
      1 C          -7.3518  -18.9172   21.3995 C.3     1  UNL1        0.1621
      2 C          -8.1421  -19.4874   20.2592 C.ar    1  UNL1        0.1812
      3 N          -7.6846  -20.5648   19.3211 N.ar    1  UNL1       -0.1109
      4 N          -8.7884  -20.8236   18.3389 N.ar    1  UNL1       -0.0229
      5 N          -9.9281  -19.9062   18.6700 N.ar    1  UNL1       -0.0430
      6 N          -9.5286  -19.0804   19.8568 N.ar    1  UNL1       -0.2115
      7 C         -10.3683  -18.0318   20.5241 C.3     1  UNL1        0.1779
      8 C         -11.3098  -17.1947   19.7099 C.3     1  UNL1        0.2364
      9 O         -12.4886  -16.5386   20.3657 O.3     1  UNL1       -0.4325
     10 C         -12.6924  -16.6696   21.8460 C.2     1  UNL1        0.4017
     11 O         -12.3056  -15.5439   22.7588 O.2     1  UNL1       -0.2264
     12 N         -13.2830  -17.9262   22.4134 N.am    1  UNL1       -0.2707
     13 H         -13.5369  -18.6650   21.8142 H       1  UNL1        0.1527
     14 C         -13.4868  -18.0572   23.8937 C.3     1  UNL1        0.0928
     15 C         -12.4028  -18.6400   24.7513 C.3     1  UNL1        0.0239
     16 C         -11.1064  -19.0709   24.1318 C.3     1  UNL1        0.0335
     17 C         -10.1391  -19.9037   24.9196 C.3     1  UNL1        0.1372
     18 O          -9.1224  -20.7464   24.2082 O.3     1  UNL1       -0.3820
     19 H          -9.5735  -21.4473   23.7121 H       1  UNL1        0.2104
     20 C          -4.8303  -19.1819   20.8321 C.2     1  UNL1        0.2351
     21 O          -5.0160  -18.3318   19.6102 O.2     1  UNL1       -0.2737
     22 N          -5.9982  -19.4746   21.7267 N.am    1  UNL1       -0.2965
     23 H          -5.8764  -20.0325   22.5286 H       1  UNL1        0.1499
     24 C          -3.5544  -20.6335   19.9575 C.3     1  UNL1        0.0249
     25 C          -3.4767  -19.7393   21.1593 C.3     1  UNL1        0.1086
     26 C          -3.3991  -18.8452   22.3612 C.3     1  UNL1        0.0249
     27 N          -2.1231  -20.2967   21.4866 N.3     1  UNL1       -0.3164
     28 H          -2.1326  -21.3088   21.3604 H       1  UNL1        0.1192
     29 H          -1.8900  -20.0770   22.4550 H       1  UNL1        0.1192
     30 C          -7.9152  -17.7896   22.2125 C.3     1  UNL1        0.1699
     31 O          -7.4751  -16.3804   21.9467 O.3     1  UNL1       -0.3468
     32 C          -7.8634  -15.2824   22.8920 C.3     1  UNL1        0.1687
     33 C          -7.4804  -15.3688   24.3397 C.ar    1  UNL1        0.0073
     34 C          -6.0340  -15.3371   24.7360 C.ar    1  UNL1       -0.0019
     35 C          -5.6511  -15.4234   26.1837 C.ar    1  UNL1       -0.0002
     36 C          -6.7144  -15.5414   27.2351 C.ar    1  UNL1       -0.0000
     37 C          -8.1607  -15.5731   26.8388 C.ar    1  UNL1       -0.0002
     38 C          -8.5437  -15.4868   25.3911 C.ar    1  UNL1       -0.0019
@<TRIPOS>BOND
     1    24    25    1
     2    25    26    1
     3    25    27    1
     4    25    20    1
     5    20    21    2
     6    20    22   am
     7    22     1    1
     8     1    30    1
     9    30    31    1
    10    31    32    1
    11    32    33    1
    12    33    34   ar
    13    34    35   ar
    14    35    36   ar
    15    36    37   ar
    16    37    38   ar
    17     1     2    1
    18     2     3   ar
    19     3     4   ar
    20     4     5   ar
    21     5     6   ar
    22     6     7    1
    23     7     8    1
    24     8     9    1
    25     9    10    1
    26    10    11    2
    27    10    12   am
    28    12    14    1
    29    14    15    1
    30    15    16    1
    31    16    17    1
    32    17    18    1
    33    38    33   ar
    34     6     2   ar
    35    27    28    1
    36    27    29    1
    37    22    23    1
    38    12    13    1
    39    18    19    1
@<TRIPOS>MOLECULE
*****
 38 39 0 0 0
SMALL
GASTEIGER

@<TRIPOS>ATOM
      1 C          -6.7024  -18.9011   20.6964 C.3     1  UNL1        0.1621
      2 C          -5.4121  -19.4638   21.2144 C.ar    1  UNL1        0.1812
      3 N          -5.2454  -20.2895   22.4556 N.ar    1  UNL1       -0.1109
      4 N          -3.7922  -20.6357   22.5904 N.ar    1  UNL1       -0.0229
      5 N          -3.0607  -20.0239   21.4325 N.ar    1  UNL1       -0.0430
      6 N          -4.0618  -19.2997   20.5821 N.ar    1  UNL1       -0.2115
      7 C          -3.7648  -18.5441   19.3208 C.3     1  UNL1        0.1779
      8 C          -2.3583  -18.1246   19.0113 C.3     1  UNL1        0.2364
      9 O          -1.5036  -17.5167   20.0836 O.3     1  UNL1       -0.4325
     10 C          -2.1379  -16.9695   21.3280 C.2     1  UNL1        0.4017
     11 O          -2.7590  -15.6043   21.3152 O.2     1  UNL1       -0.2264
     12 N          -2.1509  -17.7878   22.5851 N.am    1  UNL1       -0.2707
     13 H          -1.7432  -18.6839   22.5934 H       1  UNL1        0.1527
     14 C          -2.7851  -17.2407   23.8294 C.3     1  UNL1        0.0928
     15 C          -4.2789  -17.2258   23.9657 C.3     1  UNL1        0.0239
     16 C          -5.0287  -15.9308   23.8609 C.3     1  UNL1        0.0335
     17 C          -5.8331  -15.4337   25.0252 C.3     1  UNL1        0.1372
     18 O          -6.8098  -14.3109   24.8372 O.3     1  UNL1       -0.3820
     19 H          -6.3294  -13.4986   24.6131 H       1  UNL1        0.2104
     20 C          -8.1942  -17.9084   22.5776 C.2     1  UNL1        0.2351
     21 O          -8.4370  -19.2884   23.1134 O.2     1  UNL1       -0.2737
     22 N          -7.3270  -17.7148   21.3692 N.am    1  UNL1       -0.2965
     23 H          -7.1677  -16.8091   21.0176 H       1  UNL1        0.1499
     24 C          -8.3914  -15.8492   22.1079 C.3     1  UNL1        0.0249
     25 C          -8.8188  -16.7221   23.2504 C.3     1  UNL1        0.1086
     26 C          -9.2463  -17.5951   24.3929 C.3     1  UNL1        0.0249
     27 N          -9.4434  -15.5358   23.9232 N.3     1  UNL1       -0.3164
     28 H          -8.8193  -14.7328   23.8447 H       1  UNL1        0.1192
     29 H          -9.6021  -15.7481   24.9081 H       1  UNL1        0.1192
     30 C          -7.3682  -19.5247   19.5057 C.3     1  UNL1        0.1699
     31 O          -8.6878  -18.9992   19.0235 O.3     1  UNL1       -0.3468
     32 C          -9.9637  -19.5141   19.6210 C.3     1  UNL1        0.1687
     33 C         -10.8425  -18.5965   20.4183 C.ar    1  UNL1        0.0073
     34 C         -11.0934  -17.1966   19.9417 C.ar    1  UNL1       -0.0019
     35 C         -11.9722  -16.2790   20.7390 C.ar    1  UNL1       -0.0002
     36 C         -12.6000  -16.7614   22.0131 C.ar    1  UNL1       -0.0000
     37 C         -12.3490  -18.1613   22.4898 C.ar    1  UNL1       -0.0002
     38 C         -11.4703  -19.0788   21.6924 C.ar    1  UNL1       -0.0019
@<TRIPOS>BOND
     1    24    25    1
     2    25    26    1
     3    25    27    1
     4    25    20    1
     5    20    21    2
     6    20    22   am
     7    22     1    1
     8     1    30    1
     9    30    31    1
    10    31    32    1
    11    32    33    1
    12    33    34   ar
    13    34    35   ar
    14    35    36   ar
    15    36    37   ar
    16    37    38   ar
    17     1     2    1
    18     2     3   ar
    19     3     4   ar
    20     4     5   ar
    21     5     6   ar
    22     6     7    1
    23     7     8    1
    24     8     9    1
    25     9    10    1
    26    10    11    2
    27    10    12   am
    28    12    14    1
    29    14    15    1
    30    15    16    1
    31    16    17    1
    32    17    18    1
    33    38    33   ar
    34     6     2   ar
    35    27    28    1
    36    27    29    1
    37    22    23    1
    38    12    13    1
    39    18    19    1
@<TRIPOS>MOLECULE
*****
 38 39 0 0 0
SMALL
GASTEIGER

@<TRIPOS>ATOM
      1 C          -7.4633  -19.2130   21.4768 C.3     1  UNL1        0.1621
      2 C          -6.5651  -18.2364   22.1764 C.ar    1  UNL1        0.1812
      3 N          -5.2153  -18.5390   22.7563 N.ar    1  UNL1       -0.1109
      4 N          -4.6750  -17.2752   23.3572 N.ar    1  UNL1       -0.0229
      5 N          -5.6910  -16.1916   23.1487 N.ar    1  UNL1       -0.0430
      6 N          -6.8592  -16.7856   22.4189 N.ar    1  UNL1       -0.2115
      7 C          -8.1029  -16.0568   22.0044 C.3     1  UNL1        0.1779
      8 C          -9.2662  -15.9623   22.9466 C.3     1  UNL1        0.2364
      9 O          -9.7846  -17.1960   23.6244 O.3     1  UNL1       -0.4325
     10 C          -9.4092  -17.4836   25.0479 C.2     1  UNL1        0.4017
     11 O          -9.6249  -18.8541   25.6181 O.2     1  UNL1       -0.2264
     12 N          -8.8182  -16.4007   25.9010 N.am    1  UNL1       -0.2707
     13 H          -8.6767  -15.5012   25.5267 H       1  UNL1        0.1527
     14 C          -8.4428  -16.6884   27.3245 C.3     1  UNL1        0.0928
     15 C          -7.0554  -16.3883   27.8096 C.3     1  UNL1        0.0239
     16 C          -6.4084  -15.0787   27.4684 C.3     1  UNL1        0.0335
     17 C          -5.7985  -14.8742   26.1134 C.3     1  UNL1        0.1372
     18 O          -6.6250  -14.3089   24.9965 O.3     1  UNL1       -0.3820
     19 H          -7.3280  -14.9359   24.7652 H       1  UNL1        0.2104
     20 C          -9.9556  -18.8307   20.8508 C.2     1  UNL1        0.2351
     21 O          -9.5382  -18.3073   19.5085 O.2     1  UNL1       -0.2737
     22 N          -8.9182  -19.2835   21.8350 N.am    1  UNL1       -0.2965
     23 H          -9.1921  -19.6270   22.7160 H       1  UNL1        0.1499
     24 C         -11.1505  -20.1342   22.0227 C.3     1  UNL1        0.0249
     25 C         -11.4105  -18.9012   21.2090 C.3     1  UNL1        0.1086
     26 C         -11.6706  -17.6682   20.3953 C.3     1  UNL1        0.0249
     27 N         -12.8654  -18.9717   21.5671 N.3     1  UNL1       -0.3164
     28 H         -13.1847  -19.9384   21.5038 H       1  UNL1        0.1192
     29 H         -13.4029  -18.3932   20.9216 H       1  UNL1        0.1192
     30 C          -6.9065  -20.1191   20.4190 C.3     1  UNL1        0.1699
     31 O          -5.7460  -21.0158   20.7344 O.3     1  UNL1       -0.3468
     32 C          -4.4859  -20.9240   19.9259 C.3     1  UNL1        0.1687
     33 C          -3.5336  -19.7864   20.1477 C.ar    1  UNL1        0.0073
     34 C          -3.5263  -18.6197   19.2051 C.ar    1  UNL1       -0.0019
     35 C          -2.5741  -17.4822   19.4270 C.ar    1  UNL1       -0.0002
     36 C          -1.6291  -17.5114   20.5915 C.ar    1  UNL1       -0.0000
     37 C          -1.6364  -18.6782   21.5342 C.ar    1  UNL1       -0.0002
     38 C          -2.5886  -19.8156   21.3123 C.ar    1  UNL1       -0.0019
@<TRIPOS>BOND
     1    24    25    1
     2    25    26    1
     3    25    27    1
     4    25    20    1
     5    20    21    2
     6    20    22   am
     7    22     1    1
     8     1    30    1
     9    30    31    1
    10    31    32    1
    11    32    33    1
    12    33    34   ar
    13    34    35   ar
    14    35    36   ar
    15    36    37   ar
    16    37    38   ar
    17     1     2    1
    18     2     3   ar
    19     3     4   ar
    20     4     5   ar
    21     5     6   ar
    22     6     7    1
    23     7     8    1
    24     8     9    1
    25     9    10    1
    26    10    11    2
    27    10    12   am
    28    12    14    1
    29    14    15    1
    30    15    16    1
    31    16    17    1
    32    17    18    1
    33    38    33   ar
    34     6     2   ar
    35    27    28    1
    36    27    29    1
    37    22    23    1
    38    12    13    1
    39    18    19    1
@<TRIPOS>MOLECULE
*****
 38 39 0 0 0
SMALL
GASTEIGER

@<TRIPOS>ATOM
      1 C          -4.7993  -18.1202   22.9202 C.3     1  UNL1        0.1621
      2 C          -4.5008  -19.0956   21.8205 C.ar    1  UNL1        0.1812
      3 N          -3.2307  -19.8762   21.6551 N.ar    1  UNL1       -0.1109
      4 N          -3.3649  -20.7247   20.4255 N.ar    1  UNL1       -0.0229
      5 N          -4.7181  -20.4685   19.8309 N.ar    1  UNL1       -0.0430
      6 N          -5.4201  -19.4616   20.6931 N.ar    1  UNL1       -0.2115
      7 C          -6.7991  -18.9165   20.4675 C.3     1  UNL1        0.1779
      8 C          -7.9812  -19.5747   21.1152 C.3     1  UNL1        0.2364
      9 O          -7.9082  -20.0019   22.5513 O.3     1  UNL1       -0.4325
     10 C          -9.1152  -19.8771   23.4331 C.2     1  UNL1        0.4017
     11 O          -9.3347  -20.8573   24.5471 O.2     1  UNL1       -0.2264
     12 N         -10.1026  -18.7721   23.2009 N.am    1  UNL1       -0.2707
     13 H          -9.9585  -18.1287   22.4697 H       1  UNL1        0.1527
     14 C         -11.3095  -18.6472   24.0828 C.3     1  UNL1        0.0928
     15 C         -12.6134  -18.1787   23.5077 C.3     1  UNL1        0.0239
     16 C         -12.6952  -17.7759   22.0651 C.3     1  UNL1        0.0335
     17 C         -12.2142  -16.4215   21.6362 C.3     1  UNL1        0.1372
     18 O         -11.7165  -15.4438   22.6592 O.3     1  UNL1       -0.3820
     19 H         -12.4491  -15.1803   23.2378 H       1  UNL1        0.2104
     20 C          -6.4293  -16.3314   23.8656 C.2     1  UNL1        0.2351
     21 O          -5.2673  -15.5759   24.4393 O.2     1  UNL1       -0.2737
     22 N          -6.1953  -17.6036   23.1061 N.am    1  UNL1       -0.2965
     23 H          -6.9579  -18.0994   22.7296 H       1  UNL1        0.1499
     24 C          -7.5591  -15.6224   25.5151 C.3     1  UNL1        0.0249
     25 C          -7.8252  -15.8148   24.0515 C.3     1  UNL1        0.1086
     26 C          -8.0913  -16.0072   22.5879 C.3     1  UNL1        0.0249
     27 N          -9.2211  -15.2982   24.2374 N.3     1  UNL1       -0.3164
     28 H          -9.6219  -15.6991   25.0854 H       1  UNL1        0.1192
     29 H          -9.7912  -15.5626   23.4340 H       1  UNL1        0.1192
     30 C          -3.7019  -17.6614   23.8341 C.3     1  UNL1        0.1699
     31 O          -2.4030  -17.1761   23.2617 O.3     1  UNL1       -0.3468
     32 C          -2.4008  -16.2969   22.0465 C.3     1  UNL1        0.1687
     33 C          -1.9739  -16.8519   20.7199 C.ar    1  UNL1        0.0073
     34 C          -2.9414  -16.8846   19.5742 C.ar    1  UNL1       -0.0019
     35 C          -2.5144  -17.4396   18.2477 C.ar    1  UNL1       -0.0002
     36 C          -1.1200  -17.9619   18.0670 C.ar    1  UNL1       -0.0000
     37 C          -0.1525  -17.9292   19.2127 C.ar    1  UNL1       -0.0002
     38 C          -0.5794  -17.3742   20.5392 C.ar    1  UNL1       -0.0019
@<TRIPOS>BOND
     1    24    25    1
     2    25    26    1
     3    25    27    1
     4    25    20    1
     5    20    21    2
     6    20    22   am
     7    22     1    1
     8     1    30    1
     9    30    31    1
    10    31    32    1
    11    32    33    1
    12    33    34   ar
    13    34    35   ar
    14    35    36   ar
    15    36    37   ar
    16    37    38   ar
    17     1     2    1
    18     2     3   ar
    19     3     4   ar
    20     4     5   ar
    21     5     6   ar
    22     6     7    1
    23     7     8    1
    24     8     9    1
    25     9    10    1
    26    10    11    2
    27    10    12   am
    28    12    14    1
    29    14    15    1
    30    15    16    1
    31    16    17    1
    32    17    18    1
    33    38    33   ar
    34     6     2   ar
    35    27    28    1
    36    27    29    1
    37    22    23    1
    38    12    13    1
    39    18    19    1
