@<TRIPOS>MOLECULE
*****
 28 30 0 0 0
SMALL
GASTEIGER

@<TRIPOS>ATOM
      1 C          -7.7681  -19.2415   20.3298 C.2     1  UNL1        0.2252
      2 O          -7.8031  -17.8398   20.8625 O.2     1  UNL1       -0.2750
      3 N          -9.0343  -19.9005   19.8685 N.am    1  UNL1       -0.3003
      4 H          -9.0113  -20.8205   19.5189 H       1  UNL1        0.1497
      5 C          -6.4669  -19.9845   20.2583 C.3     1  UNL1        0.1154
      6 C          -6.5190  -20.4169   22.2178 C.3     1  UNL1        0.0335
      7 C          -5.4502  -19.8229   21.3491 C.3     1  UNL1        0.1377
      8 C          -4.5938  -19.2627   20.2524 C.3     1  UNL1        0.0613
      9 C          -3.2712  -18.8790   20.8471 C.3     1  UNL1        0.1290
     10 C          -2.0051  -18.5460   21.5792 C.3     1  UNL1        0.0305
     11 C          -0.8470  -17.9448   20.8395 C.3     1  UNL1        0.0025
     12 C          -0.9549  -17.6766   19.3676 C.3     1  UNL1        0.0002
     13 C          -2.2210  -18.0096   18.6355 C.3     1  UNL1        0.0025
     14 C          -3.3791  -18.6108   19.3752 C.3     1  UNL1        0.0305
     15 O          -3.3101  -19.2021   22.3113 O.3     1  UNL1       -0.2256
     16 O          -4.6568  -19.7855   22.6217 O.3     1  UNL1       -0.2251
     17 C         -10.3354  -19.1576   19.9401 C.3     1  UNL1        0.1193
     18 C         -10.9771  -18.8952   21.2702 C.ar    1  UNL1        0.0317
     19 C         -10.6476  -19.7656   22.4466 C.ar    1  UNL1        0.0004
     20 C         -11.2892  -19.5033   23.7768 C.ar    1  UNL1       -0.0001
     21 C         -12.2604  -18.3705   23.9306 C.ar    1  UNL1        0.0031
     22 C         -12.5899  -17.5002   22.7543 C.ar    1  UNL1        0.0369
     23 C         -11.9482  -17.7625   21.4241 C.ar    1  UNL1        0.1444
     24 O         -12.2777  -16.8921   20.2478 O.3     1  UNL1       -0.4047
     25 C         -11.3441  -15.7888   19.8461 C.3     1  UNL1        0.5753
     26 F         -10.4104  -14.6857   19.4445 F       1  UNL1       -0.1328
     27 F         -12.1891  -15.5136   18.6378 F       1  UNL1       -0.1328
     28 F         -10.4991  -16.0641   21.0545 F       1  UNL1       -0.1328
@<TRIPOS>BOND
     1     6     7    1
     2     7     5    1
     3     5     1    1
     4     1     2    2
     5     1     3   am
     6     3    17    1
     7    17    18    1
     8    18    19   ar
     9    19    20   ar
    10    20    21   ar
    11    21    22   ar
    12    22    23   ar
    13    23    24    1
    14    24    25    1
    15    25    26    1
    16    25    27    1
    17    25    28    1
    18     7     8    1
    19     8     9    1
    20     9    10    1
    21    10    11    1
    22    11    12    1
    23    12    13    1
    24    13    14    1
    25     9    15    1
    26    15    16    1
    27    16     7    1
    28    23    18   ar
    29    14     9    1
    30     3     4    1
@<TRIPOS>MOLECULE
*****
 28 30 0 0 0
SMALL
GASTEIGER

@<TRIPOS>ATOM
      1 C          -6.1141  -15.9036   23.7765 C.2     1  UNL1        0.2252
      2 O          -5.1890  -14.8749   24.3560 O.2     1  UNL1       -0.2750
      3 N          -5.5609  -17.1841   23.2248 N.am    1  UNL1       -0.3003
      4 H          -6.1681  -17.8592   22.8445 H       1  UNL1        0.1497
      5 C          -7.5927  -15.6518   23.7487 C.3     1  UNL1        0.1154
      6 C          -8.1181  -15.9513   25.6628 C.3     1  UNL1        0.0335
      7 C          -8.5320  -16.6293   24.3904 C.3     1  UNL1        0.1377
      8 C          -8.7496  -17.1030   22.9839 C.3     1  UNL1        0.0613
      9 C          -9.7369  -18.2316   23.0223 C.3     1  UNL1        0.1290
     10 C         -10.7284  -19.3403   23.2164 C.3     1  UNL1        0.0305
     11 C         -11.2343  -20.1099   22.0325 C.3     1  UNL1        0.0025
     12 C         -10.7486  -19.7708   20.6544 C.3     1  UNL1        0.0002
     13 C          -9.7571  -18.6622   20.4603 C.3     1  UNL1        0.0025
     14 C          -9.2512  -17.8926   21.6442 C.3     1  UNL1        0.0305
     15 O         -10.1296  -18.4555   24.4526 O.3     1  UNL1       -0.2256
     16 O          -9.3849  -17.4652   25.2982 O.3     1  UNL1       -0.2251
     17 C          -4.0824  -17.4358   23.2526 C.3     1  UNL1        0.1193
     18 C          -3.3543  -17.7686   21.9842 C.ar    1  UNL1        0.0317
     19 C          -2.1699  -16.9505   21.5625 C.ar    1  UNL1        0.0004
     20 C          -1.4418  -17.2833   20.2940 C.ar    1  UNL1       -0.0001
     21 C          -1.8981  -18.4342   19.4472 C.ar    1  UNL1        0.0031
     22 C          -3.0824  -19.2523   19.8688 C.ar    1  UNL1        0.0369
     23 C          -3.8106  -18.9196   21.1374 C.ar    1  UNL1        0.1444
     24 O          -4.9950  -19.7377   21.5590 O.3     1  UNL1       -0.4047
     25 C          -6.0798  -20.0512   20.5716 C.3     1  UNL1        0.5753
     26 F          -7.1647  -20.3647   19.5842 F       1  UNL1       -0.1328
     27 F          -6.3268  -18.5845   20.3772 F       1  UNL1       -0.1328
     28 F          -5.8328  -21.5178   20.7659 F       1  UNL1       -0.1328
@<TRIPOS>BOND
     1     6     7    1
     2     7     5    1
     3     5     1    1
     4     1     2    2
     5     1     3   am
     6     3    17    1
     7    17    18    1
     8    18    19   ar
     9    19    20   ar
    10    20    21   ar
    11    21    22   ar
    12    22    23   ar
    13    23    24    1
    14    24    25    1
    15    25    26    1
    16    25    27    1
    17    25    28    1
    18     7     8    1
    19     8     9    1
    20     9    10    1
    21    10    11    1
    22    11    12    1
    23    12    13    1
    24    13    14    1
    25     9    15    1
    26    15    16    1
    27    16     7    1
    28    23    18   ar
    29    14     9    1
    30     3     4    1
@<TRIPOS>MOLECULE
*****
 28 30 0 0 0
SMALL
GASTEIGER

@<TRIPOS>ATOM
      1 C          -7.0358  -18.5652   21.4318 C.2     1  UNL1        0.2252
      2 O          -7.6993  -18.5829   20.0868 O.2     1  UNL1       -0.2750
      3 N          -7.4019  -17.5118   22.4351 N.am    1  UNL1       -0.3003
      4 H          -6.9664  -17.5002   23.3179 H       1  UNL1        0.1497
      5 C          -6.0060  -19.6009   21.7738 C.3     1  UNL1        0.1154
      6 C          -5.9003  -21.1184   20.4639 C.3     1  UNL1        0.0335
      7 C          -4.9648  -19.9851   20.7648 C.3     1  UNL1        0.1377
      8 C          -4.2470  -18.7715   21.2765 C.3     1  UNL1        0.0613
      9 C          -2.9577  -18.6424   20.5208 C.3     1  UNL1        0.1290
     10 C          -1.7106  -18.6432   19.6873 C.3     1  UNL1        0.0305
     11 C          -0.6811  -17.5689   19.8771 C.3     1  UNL1        0.0025
     12 C          -0.8987  -16.4939   20.9004 C.3     1  UNL1        0.0002
     13 C          -2.1457  -16.4932   21.7339 C.3     1  UNL1        0.0025
     14 C          -3.1752  -17.5675   21.5441 C.3     1  UNL1        0.0305
     15 O          -2.8787  -19.7763   19.5419 O.3     1  UNL1       -0.2256
     16 O          -4.1192  -20.6062   19.6927 O.3     1  UNL1       -0.2251
     17 C          -8.4316  -16.4761   22.0931 C.3     1  UNL1        0.1193
     18 C          -9.8824  -16.8524   22.0322 C.ar    1  UNL1        0.0317
     19 C         -10.7703  -16.2495   20.9842 C.ar    1  UNL1        0.0004
     20 C         -12.2210  -16.6258   20.9234 C.ar    1  UNL1       -0.0001
     21 C         -12.7839  -17.6050   21.9106 C.ar    1  UNL1        0.0031
     22 C         -11.8961  -18.2078   22.9585 C.ar    1  UNL1        0.0369
     23 C         -10.4452  -17.8315   23.0194 C.ar    1  UNL1        0.1444
     24 O          -9.5574  -18.4343   24.0673 O.3     1  UNL1       -0.4047
     25 C          -9.6411  -19.9016   24.3678 C.3     1  UNL1        0.5753
     26 F          -9.7248  -21.3688   24.6682 F       1  UNL1       -0.1328
     27 F         -10.0484  -19.5897   25.7773 F       1  UNL1       -0.1328
     28 F          -9.2339  -20.2134   22.9582 F       1  UNL1       -0.1328
@<TRIPOS>BOND
     1     6     7    1
     2     7     5    1
     3     5     1    1
     4     1     2    2
     5     1     3   am
     6     3    17    1
     7    17    18    1
     8    18    19   ar
     9    19    20   ar
    10    20    21   ar
    11    21    22   ar
    12    22    23   ar
    13    23    24    1
    14    24    25    1
    15    25    26    1
    16    25    27    1
    17    25    28    1
    18     7     8    1
    19     8     9    1
    20     9    10    1
    21    10    11    1
    22    11    12    1
    23    12    13    1
    24    13    14    1
    25     9    15    1
    26    15    16    1
    27    16     7    1
    28    23    18   ar
    29    14     9    1
    30     3     4    1
@<TRIPOS>MOLECULE
*****
 28 30 0 0 0
SMALL
GASTEIGER

@<TRIPOS>ATOM
      1 C          -6.8891  -19.2903   20.6180 C.2     1  UNL1        0.2252
      2 O          -6.6520  -20.4803   21.4997 O.2     1  UNL1       -0.2750
      3 N          -5.7712  -18.7421   19.7813 N.am    1  UNL1       -0.3003
      4 H          -5.9269  -17.9610   19.2026 H       1  UNL1        0.1497
      5 C          -8.2441  -18.6483   20.5729 C.3     1  UNL1        0.1154
      6 C          -9.8727  -19.7097   21.0735 C.3     1  UNL1        0.0335
      7 C          -9.1108  -18.6393   21.7971 C.3     1  UNL1        0.1377
      8 C          -8.1677  -17.5708   22.2647 C.3     1  UNL1        0.0613
      9 C          -8.6107  -17.1251   23.6268 C.3     1  UNL1        0.1290
     10 C          -9.1701  -16.7842   24.9762 C.3     1  UNL1        0.0305
     11 C          -8.5118  -15.7304   25.8165 C.3     1  UNL1        0.0025
     12 C          -7.2941  -15.0176   25.3075 C.3     1  UNL1        0.0002
     13 C          -6.7347  -15.3585   23.9581 C.3     1  UNL1        0.0025
     14 C          -7.3931  -16.4122   23.1178 C.3     1  UNL1        0.0305
     15 O          -9.8277  -17.9182   24.0009 O.3     1  UNL1       -0.2256
     16 O         -10.1368  -18.8541   22.8701 O.3     1  UNL1       -0.2251
     17 C          -4.4163  -19.3840   19.8264 C.3     1  UNL1        0.1193
     18 C          -3.1897  -18.5360   19.9886 C.ar    1  UNL1        0.0317
     19 C          -2.0771  -18.6271   18.9867 C.ar    1  UNL1        0.0004
     20 C          -0.8505  -17.7791   19.1489 C.ar    1  UNL1       -0.0001
     21 C          -0.7365  -16.8400   20.3130 C.ar    1  UNL1        0.0031
     22 C          -1.8490  -16.7489   21.3148 C.ar    1  UNL1        0.0369
     23 C          -3.0757  -17.5969   21.1527 C.ar    1  UNL1        0.1444
     24 O          -4.1882  -17.5058   22.1546 O.3     1  UNL1       -0.4047
     25 C          -3.9082  -17.7394   23.6097 C.3     1  UNL1        0.5753
     26 F          -3.6282  -17.9731   25.0647 F       1  UNL1       -0.1328
     27 F          -3.9068  -19.2204   23.3716 F       1  UNL1       -0.1328
     28 F          -3.9097  -16.2585   23.8476 F       1  UNL1       -0.1328
@<TRIPOS>BOND
     1     6     7    1
     2     7     5    1
     3     5     1    1
     4     1     2    2
     5     1     3   am
     6     3    17    1
     7    17    18    1
     8    18    19   ar
     9    19    20   ar
    10    20    21   ar
    11    21    22   ar
    12    22    23   ar
    13    23    24    1
    14    24    25    1
    15    25    26    1
    16    25    27    1
    17    25    28    1
    18     7     8    1
    19     8     9    1
    20     9    10    1
    21    10    11    1
    22    11    12    1
    23    12    13    1
    24    13    14    1
    25     9    15    1
    26    15    16    1
    27    16     7    1
    28    23    18   ar
    29    14     9    1
    30     3     4    1
@<TRIPOS>MOLECULE
*****
 28 30 0 0 0
SMALL
GASTEIGER

@<TRIPOS>ATOM
      1 C          -7.4558  -19.6059   20.5986 C.2     1  UNL1        0.2252
      2 O          -7.3365  -18.8540   19.3063 O.2     1  UNL1       -0.2750
      3 N          -8.8068  -20.0134   21.1074 N.am    1  UNL1       -0.3003
      4 H          -8.8851  -20.5069   21.9557 H       1  UNL1        0.1497
      5 C          -6.2240  -19.9503   21.3825 C.3     1  UNL1        0.1154
      6 C          -4.2455  -19.6243   21.2879 C.3     1  UNL1        0.0335
      7 C          -5.3591  -18.8582   21.9383 C.3     1  UNL1        0.1377
      8 C          -6.6534  -18.3203   22.4724 C.3     1  UNL1        0.0613
      9 C          -6.3557  -17.0558   23.2225 C.3     1  UNL1        0.1290
     10 C          -5.9072  -15.8145   23.9352 C.3     1  UNL1        0.0305
     11 C          -6.9115  -14.9462   24.6333 C.3     1  UNL1        0.0025
     12 C          -8.3643  -15.3192   24.6187 C.3     1  UNL1        0.0002
     13 C          -8.8128  -16.5605   23.9060 C.3     1  UNL1        0.0025
     14 C          -7.8085  -17.4288   23.2079 C.3     1  UNL1        0.0305
     15 O          -4.8773  -16.8122   23.1519 O.3     1  UNL1       -0.2256
     16 O          -4.2613  -17.9262   22.3582 O.3     1  UNL1       -0.2251
     17 C         -10.0385  -19.6690   20.3236 C.3     1  UNL1        0.1193
     18 C         -10.9131  -18.5321   20.7624 C.ar    1  UNL1        0.0317
     19 C         -11.1162  -17.3508   19.8606 C.ar    1  UNL1        0.0004
     20 C         -11.9909  -16.2139   20.2993 C.ar    1  UNL1       -0.0001
     21 C         -12.6624  -16.2584   21.6399 C.ar    1  UNL1        0.0031
     22 C         -12.4593  -17.4396   22.5416 C.ar    1  UNL1        0.0369
     23 C         -11.5847  -18.5766   22.1029 C.ar    1  UNL1        0.1444
     24 O         -11.3816  -19.7578   23.0046 O.3     1  UNL1       -0.4047
     25 C         -10.6959  -19.5827   24.3273 C.3     1  UNL1        0.5753
     26 F         -10.0103  -19.4075   25.6499 F       1  UNL1       -0.1328
     27 F          -9.4620  -20.2313   23.7735 F       1  UNL1       -0.1328
     28 F         -11.9299  -18.9341   24.8810 F       1  UNL1       -0.1328
@<TRIPOS>BOND
     1     6     7    1
     2     7     5    1
     3     5     1    1
     4     1     2    2
     5     1     3   am
     6     3    17    1
     7    17    18    1
     8    18    19   ar
     9    19    20   ar
    10    20    21   ar
    11    21    22   ar
    12    22    23   ar
    13    23    24    1
    14    24    25    1
    15    25    26    1
    16    25    27    1
    17    25    28    1
    18     7     8    1
    19     8     9    1
    20     9    10    1
    21    10    11    1
    22    11    12    1
    23    12    13    1
    24    13    14    1
    25     9    15    1
    26    15    16    1
    27    16     7    1
    28    23    18   ar
    29    14     9    1
    30     3     4    1
@<TRIPOS>MOLECULE
*****
 28 30 0 0 0
SMALL
GASTEIGER

@<TRIPOS>ATOM
      1 C          -7.5419  -16.1166   23.4798 C.2     1  UNL1        0.2252
      2 O          -7.5469  -15.4107   22.1564 O.2     1  UNL1       -0.2750
      3 N          -8.8353  -16.5512   24.1030 N.am    1  UNL1       -0.3003
      4 H          -8.8320  -17.0146   24.9716 H       1  UNL1        0.1497
      5 C          -6.2434  -16.3879   24.1803 C.3     1  UNL1        0.1154
      6 C          -4.5726  -15.2810   24.0677 C.3     1  UNL1        0.0335
      7 C          -4.9824  -16.5522   23.3850 C.3     1  UNL1        0.1377
      8 C          -5.6558  -17.7891   22.8687 C.3     1  UNL1        0.0613
      9 C          -4.7251  -18.4522   21.8968 C.3     1  UNL1        0.1290
     10 C          -3.6941  -18.9982   20.9541 C.3     1  UNL1        0.0305
     11 C          -3.9645  -20.2658   20.1992 C.3     1  UNL1        0.0025
     12 C          -5.2661  -20.9874   20.3869 C.3     1  UNL1        0.0002
     13 C          -6.2972  -20.4414   21.3295 C.3     1  UNL1        0.0025
     14 C          -6.0267  -19.1738   22.0845 C.3     1  UNL1        0.0305
     15 O          -3.4766  -17.6251   21.8126 O.3     1  UNL1       -0.2256
     16 O          -3.6356  -16.4508   22.7324 O.3     1  UNL1       -0.2251
     17 C         -10.1337  -16.2800   23.4025 C.3     1  UNL1        0.1193
     18 C         -10.4756  -17.0203   22.1436 C.ar    1  UNL1        0.0317
     19 C         -11.2915  -16.3506   21.0778 C.ar    1  UNL1        0.0004
     20 C         -11.6334  -17.0909   19.8188 C.ar    1  UNL1       -0.0001
     21 C         -11.1595  -18.5009   19.6256 C.ar    1  UNL1        0.0031
     22 C         -10.3436  -19.1705   20.6913 C.ar    1  UNL1        0.0369
     23 C         -10.0016  -18.4302   21.9504 C.ar    1  UNL1        0.1444
     24 O          -9.1858  -19.0999   23.0161 O.3     1  UNL1       -0.4047
     25 C          -9.8005  -20.1682   23.8710 C.3     1  UNL1        0.5753
     26 F         -10.4152  -21.2365   24.7259 F       1  UNL1       -0.1328
     27 F         -11.0425  -19.3393   24.0138 F       1  UNL1       -0.1328
     28 F          -8.5585  -20.9970   23.7282 F       1  UNL1       -0.1328
@<TRIPOS>BOND
     1     6     7    1
     2     7     5    1
     3     5     1    1
     4     1     2    2
     5     1     3   am
     6     3    17    1
     7    17    18    1
     8    18    19   ar
     9    19    20   ar
    10    20    21   ar
    11    21    22   ar
    12    22    23   ar
    13    23    24    1
    14    24    25    1
    15    25    26    1
    16    25    27    1
    17    25    28    1
    18     7     8    1
    19     8     9    1
    20     9    10    1
    21    10    11    1
    22    11    12    1
    23    12    13    1
    24    13    14    1
    25     9    15    1
    26    15    16    1
    27    16     7    1
    28    23    18   ar
    29    14     9    1
    30     3     4    1
@<TRIPOS>MOLECULE
*****
 28 30 0 0 0
SMALL
GASTEIGER

@<TRIPOS>ATOM
      1 C          -7.0745  -18.0271   22.2471 C.2     1  UNL1        0.2252
      2 O          -7.5835  -16.8162   21.5231 O.2     1  UNL1       -0.2750
      3 N          -7.6582  -19.3773   21.9532 N.am    1  UNL1       -0.3003
      4 H          -7.3241  -20.1722   22.4284 H       1  UNL1        0.1497
      5 C          -5.9816  -17.8881   23.2652 C.3     1  UNL1        0.1154
      6 C          -5.8318  -16.0317   24.0141 C.3     1  UNL1        0.0335
      7 C          -4.9385  -16.8222   23.1048 C.3     1  UNL1        0.1377
      8 C          -4.2632  -17.8356   22.2289 C.3     1  UNL1        0.0613
      9 C          -2.9894  -17.2307   21.7173 C.3     1  UNL1        0.1290
     10 C          -1.7536  -16.4973   21.2874 C.3     1  UNL1        0.0305
     11 C          -0.7654  -17.1627   20.3761 C.3     1  UNL1        0.0025
     12 C          -1.0129  -18.5617   19.8948 C.3     1  UNL1        0.0002
     13 C          -2.2487  -19.2952   20.3247 C.3     1  UNL1        0.0025
     14 C          -3.2369  -18.6297   21.2359 C.3     1  UNL1        0.0305
     15 O          -2.8775  -15.8435   22.2769 O.3     1  UNL1       -0.2256
     16 O          -4.0821  -15.5910   23.1345 O.3     1  UNL1       -0.2251
     17 C          -8.7511  -19.5164   20.9352 C.3     1  UNL1        0.1193
     18 C         -10.0508  -18.7925   21.1266 C.ar    1  UNL1        0.0317
     19 C         -10.6441  -18.0047   19.9963 C.ar    1  UNL1        0.0004
     20 C         -11.9438  -17.2808   20.1877 C.ar    1  UNL1       -0.0001
     21 C         -12.6503  -17.3448   21.5093 C.ar    1  UNL1        0.0031
     22 C         -12.0572  -18.1325   22.6395 C.ar    1  UNL1        0.0369
     23 C         -10.7573  -18.8564   22.4482 C.ar    1  UNL1        0.1444
     24 O         -10.1642  -19.6441   23.5784 O.3     1  UNL1       -0.4047
     25 C          -9.8574  -18.9698   24.8828 C.3     1  UNL1        0.5753
     26 F          -9.5507  -18.2956   26.1871 F       1  UNL1       -0.1328
     27 F          -9.5337  -17.7012   24.1508 F       1  UNL1       -0.1328
     28 F         -10.1812  -20.2385   25.6146 F       1  UNL1       -0.1328
@<TRIPOS>BOND
     1     6     7    1
     2     7     5    1
     3     5     1    1
     4     1     2    2
     5     1     3   am
     6     3    17    1
     7    17    18    1
     8    18    19   ar
     9    19    20   ar
    10    20    21   ar
    11    21    22   ar
    12    22    23   ar
    13    23    24    1
    14    24    25    1
    15    25    26    1
    16    25    27    1
    17    25    28    1
    18     7     8    1
    19     8     9    1
    20     9    10    1
    21    10    11    1
    22    11    12    1
    23    12    13    1
    24    13    14    1
    25     9    15    1
    26    15    16    1
    27    16     7    1
    28    23    18   ar
    29    14     9    1
    30     3     4    1
@<TRIPOS>MOLECULE
*****
 28 30 0 0 0
SMALL
GASTEIGER

@<TRIPOS>ATOM
      1 C          -6.6122  -17.3973   22.9860 C.2     1  UNL1        0.2252
      2 O          -7.1934  -18.7131   22.5610 O.2     1  UNL1       -0.2750
      3 N          -5.1243  -17.2280   23.0744 N.am    1  UNL1       -0.3003
      4 H          -4.7429  -16.3643   23.3533 H       1  UNL1        0.1497
      5 C          -7.5188  -16.2505   23.3225 C.3     1  UNL1        0.1154
      6 C          -7.6979  -15.0692   21.7094 C.3     1  UNL1        0.0335
      7 C          -8.6862  -15.9324   22.4362 C.3     1  UNL1        0.1377
      8 C          -9.4305  -16.8621   23.3482 C.3     1  UNL1        0.0613
      9 C         -10.8515  -16.9381   22.8736 C.3     1  UNL1        0.1290
     10 C         -12.2310  -16.9140   22.2852 C.3     1  UNL1        0.0305
     11 C         -13.3258  -17.7295   22.9068 C.3     1  UNL1        0.0025
     12 C         -13.0410  -18.5691   24.1168 C.3     1  UNL1        0.0002
     13 C         -11.6615  -18.5931   24.7052 C.3     1  UNL1        0.0025
     14 C         -10.5667  -17.7776   24.0836 C.3     1  UNL1        0.0305
     15 O         -10.9854  -16.0554   21.6682 O.3     1  UNL1       -0.2256
     16 O          -9.6472  -15.4338   21.3978 O.3     1  UNL1       -0.2251
     17 C          -4.2178  -18.3747   22.7378 C.3     1  UNL1        0.1193
     18 C          -3.2928  -18.2790   21.5608 C.ar    1  UNL1        0.0317
     19 C          -1.8716  -17.8416   21.7575 C.ar    1  UNL1        0.0004
     20 C          -0.9466  -17.7459   20.5805 C.ar    1  UNL1       -0.0001
     21 C          -1.4430  -18.0877   19.2069 C.ar    1  UNL1        0.0031
     22 C          -2.8641  -18.5252   19.0102 C.ar    1  UNL1        0.0369
     23 C          -3.7892  -18.6208   20.1872 C.ar    1  UNL1        0.1444
     24 O          -5.2103  -19.0583   19.9906 O.3     1  UNL1       -0.4047
     25 C          -5.5718  -20.5093   20.1093 C.3     1  UNL1        0.5753
     26 F          -5.9332  -21.9603   20.2279 F       1  UNL1       -0.1328
     27 F          -7.0152  -20.1680   19.8859 F       1  UNL1       -0.1328
     28 F          -4.1283  -20.8505   20.3327 F       1  UNL1       -0.1328
@<TRIPOS>BOND
     1     6     7    1
     2     7     5    1
     3     5     1    1
     4     1     2    2
     5     1     3   am
     6     3    17    1
     7    17    18    1
     8    18    19   ar
     9    19    20   ar
    10    20    21   ar
    11    21    22   ar
    12    22    23   ar
    13    23    24    1
    14    24    25    1
    15    25    26    1
    16    25    27    1
    17    25    28    1
    18     7     8    1
    19     8     9    1
    20     9    10    1
    21    10    11    1
    22    11    12    1
    23    12    13    1
    24    13    14    1
    25     9    15    1
    26    15    16    1
    27    16     7    1
    28    23    18   ar
    29    14     9    1
    30     3     4    1
@<TRIPOS>MOLECULE
*****
 28 30 0 0 0
SMALL
GASTEIGER

@<TRIPOS>ATOM
      1 C          -7.9591  -17.0165   23.5469 C.2     1  UNL1        0.2252
      2 O          -8.3623  -16.1813   22.3681 O.2     1  UNL1       -0.2750
      3 N          -8.6612  -18.3132   23.8227 N.am    1  UNL1       -0.3003
      4 H          -8.3966  -18.8614   24.5964 H       1  UNL1        0.1497
      5 C          -6.8538  -16.5553   24.4501 C.3     1  UNL1        0.1154
      6 C          -6.2723  -14.6342   24.4202 C.3     1  UNL1        0.0335
      7 C          -5.6449  -15.8815   23.8720 C.3     1  UNL1        0.1377
      8 C          -5.2702  -17.2697   23.4447 C.3     1  UNL1        0.0613
      9 C          -3.9607  -17.1931   22.7170 C.3     1  UNL1        0.1290
     10 C          -2.6551  -16.9618   22.0156 C.3     1  UNL1        0.0305
     11 C          -1.9110  -18.1177   21.4157 C.3     1  UNL1        0.0025
     12 C          -2.4723  -19.5050   21.5171 C.3     1  UNL1        0.0002
     13 C          -3.7779  -19.7364   22.2186 C.3     1  UNL1        0.0025
     14 C          -4.5220  -18.5804   22.8185 C.3     1  UNL1        0.0305
     15 O          -3.5261  -15.7576   22.6946 O.3     1  UNL1       -0.2256
     16 O          -4.5670  -14.9469   23.4084 O.3     1  UNL1       -0.2251
     17 C          -9.7664  -18.7744   22.9195 C.3     1  UNL1        0.1193
     18 C          -9.4651  -19.1579   21.5010 C.ar    1  UNL1        0.0317
     19 C          -8.0614  -19.5018   21.0991 C.ar    1  UNL1        0.0004
     20 C          -7.7601  -19.8852   19.6806 C.ar    1  UNL1       -0.0001
     21 C          -8.8624  -19.9248   18.6640 C.ar    1  UNL1        0.0031
     22 C         -10.2660  -19.5809   19.0660 C.ar    1  UNL1        0.0369
     23 C         -10.5674  -19.1974   20.4845 C.ar    1  UNL1        0.1444
     24 O         -11.9709  -18.8535   20.8864 O.3     1  UNL1       -0.4047
     25 C         -12.3520  -17.4235   21.1313 C.3     1  UNL1        0.5753
     26 F         -12.7330  -15.9935   21.3762 F       1  UNL1       -0.1328
     27 F         -13.0056  -17.8187   22.4222 F       1  UNL1       -0.1328
     28 F         -11.6982  -17.0283   19.8404 F       1  UNL1       -0.1328
@<TRIPOS>BOND
     1     6     7    1
     2     7     5    1
     3     5     1    1
     4     1     2    2
     5     1     3   am
     6     3    17    1
     7    17    18    1
     8    18    19   ar
     9    19    20   ar
    10    20    21   ar
    11    21    22   ar
    12    22    23   ar
    13    23    24    1
    14    24    25    1
    15    25    26    1
    16    25    27    1
    17    25    28    1
    18     7     8    1
    19     8     9    1
    20     9    10    1
    21    10    11    1
    22    11    12    1
    23    12    13    1
    24    13    14    1
    25     9    15    1
    26    15    16    1
    27    16     7    1
    28    23    18   ar
    29    14     9    1
    30     3     4    1
