@<TRIPOS>MOLECULE
*****
 26 29 0 0 0
SMALL
GASTEIGER

@<TRIPOS>ATOM
      1 C          -4.3759  -17.4782   23.0441 C.ar    1  UNL1       -0.0046
      2 C          -4.4438  -16.1184   23.6735 C.ar    1  UNL1       -0.0028
      3 C          -5.7724  -15.5297   24.0454 C.ar    1  UNL1        0.0013
      4 C          -7.0329  -16.3009   23.7881 C.ar    1  UNL1        0.0189
      5 C          -6.9650  -17.6608   23.1588 C.ar    1  UNL1        0.0823
      6 C          -5.6364  -18.2495   22.7868 C.ar    1  UNL1        0.0164
      7 C          -5.8807  -19.6016   22.1849 C.ar    1  UNL1        0.0217
      8 C          -7.3602  -19.8486   22.1850 C.ar    1  UNL1        0.0999
      9 N          -8.0303  -18.6491   22.7869 N.ar    1  UNL1       -0.2077
     10 S          -9.5066  -18.4694   22.9825 S.O2    1  UNL1        0.0860
     11 O          -9.5904  -17.7363   21.6766 O.2     1  UNL1       -0.1476
     12 O          -9.4228  -19.2026   24.2884 O.2     1  UNL1       -0.1476
     13 C         -10.9829  -18.2898   23.1782 C.ar    1  UNL1        0.1277
     14 C         -11.8174  -17.6933   22.0837 C.ar    1  UNL1        0.0204
     15 C         -13.2937  -17.5136   22.2793 C.ar    1  UNL1        0.0014
     16 C         -13.9355  -17.9305   23.5694 C.ar    1  UNL1        0.0001
     17 C         -13.1011  -18.5270   24.6639 C.ar    1  UNL1        0.0014
     18 C         -11.6247  -18.7066   24.4682 C.ar    1  UNL1        0.0204
     19 C          -3.0473  -18.0670   22.6721 C.3     1  UNL1        0.0993
     20 C          -1.1602  -17.8552   16.9805 C.3     1  UNL1        0.0897
     21 N          -1.6319  -17.9082   18.4034 N.3     1  UNL1       -0.2691
     22 C          -2.7993  -18.7738   18.7748 C.3     1  UNL1        0.0897
     23 C          -3.2711  -18.8267   20.1977 C.3     1  UNL1        0.0899
     24 N          -2.5755  -18.0140   21.2492 N.3     1  UNL1       -0.2665
     25 C          -1.4081  -17.1484   20.8778 C.3     1  UNL1        0.0899
     26 C          -0.9363  -17.0954   19.4550 C.3     1  UNL1        0.0897
@<TRIPOS>BOND
     1    20    21    1
     2    21    22    1
     3    22    23    1
     4    23    24    1
     5    24    19    1
     6    19     1    1
     7     1     2   ar
     8     2     3   ar
     9     3     4   ar
    10     4     5   ar
    11     5     6   ar
    12     6     7   ar
    13     7     8   ar
    14     8     9   ar
    15     9    10    1
    16    10    11    2
    17    10    12    2
    18    10    13    1
    19    13    14   ar
    20    14    15   ar
    21    15    16   ar
    22    16    17   ar
    23    17    18   ar
    24    24    25    1
    25    25    26    1
    26    26    21    1
    27     6     1   ar
    28    18    13   ar
    29     9     5   ar
@<TRIPOS>MOLECULE
*****
 26 29 0 0 0
SMALL
GASTEIGER

@<TRIPOS>ATOM
      1 C         -11.8817   -5.7923   18.5272 C.ar    1  UNL1       -0.0046
      2 C         -11.3469   -6.8259   17.5809 C.ar    1  UNL1       -0.0028
      3 C         -12.2389   -7.9283   17.0922 C.ar    1  UNL1        0.0013
      4 C         -13.6657   -7.9972   17.5499 C.ar    1  UNL1        0.0189
      5 C         -14.2005   -6.9636   18.4963 C.ar    1  UNL1        0.0823
      6 C         -13.3085   -5.8612   18.9849 C.ar    1  UNL1        0.0164
      7 C         -14.1099   -4.9907   19.9070 C.ar    1  UNL1        0.0217
      8 C         -15.4972   -5.5552   19.9881 C.ar    1  UNL1        0.0999
      9 N         -15.5532   -6.7746   19.1163 N.ar    1  UNL1       -0.2077
     10 S         -16.7515   -7.6510   18.9020 S.O2    1  UNL1        0.0860
     11 O         -16.3344   -8.5050   20.0624 O.2     1  UNL1       -0.1476
     12 O         -17.1687   -6.7969   17.7416 O.2     1  UNL1       -0.1476
     13 C         -17.9499   -8.5274   18.6877 C.ar    1  UNL1        0.1277
     14 C         -18.0491   -9.3733   17.4529 C.ar    1  UNL1        0.0204
     15 C         -19.2474  -10.2497   17.2386 C.ar    1  UNL1        0.0014
     16 C         -20.3465  -10.2802   18.2589 C.ar    1  UNL1        0.0001
     17 C         -20.2473   -9.4343   19.4936 C.ar    1  UNL1        0.0014
     18 C         -19.0489   -8.5578   19.7080 C.ar    1  UNL1        0.0204
     19 C         -10.9897   -4.6897   19.0160 C.3     1  UNL1        0.0993
     20 C         -11.6333    0.8704   16.8549 C.3     1  UNL1        0.0897
     21 N         -11.4724   -0.5196   17.3952 N.3     1  UNL1       -0.2691
     22 C         -12.1851   -0.9230   18.6518 C.3     1  UNL1        0.0897
     23 C         -12.0242   -2.3130   19.1921 C.3     1  UNL1        0.0899
     24 N         -11.1506   -3.2997   18.4757 N.3     1  UNL1       -0.2665
     25 C         -10.4378   -2.8963   17.2189 C.3     1  UNL1        0.0899
     26 C         -10.5987   -1.5063   16.6787 C.3     1  UNL1        0.0897
@<TRIPOS>BOND
     1    20    21    1
     2    21    22    1
     3    22    23    1
     4    23    24    1
     5    24    19    1
     6    19     1    1
     7     1     2   ar
     8     2     3   ar
     9     3     4   ar
    10     4     5   ar
    11     5     6   ar
    12     6     7   ar
    13     7     8   ar
    14     8     9   ar
    15     9    10    1
    16    10    11    2
    17    10    12    2
    18    10    13    1
    19    13    14   ar
    20    14    15   ar
    21    15    16   ar
    22    16    17   ar
    23    17    18   ar
    24    24    25    1
    25    25    26    1
    26    26    21    1
    27     6     1   ar
    28    18    13   ar
    29     9     5   ar
@<TRIPOS>MOLECULE
*****
 26 29 0 0 0
SMALL
GASTEIGER

@<TRIPOS>ATOM
      1 C         -15.9204    0.6766   18.6746 C.ar    1  UNL1       -0.0046
      2 C         -14.7642    1.5735   18.3451 C.ar    1  UNL1       -0.0028
      3 C         -13.3843    1.0003   18.2131 C.ar    1  UNL1        0.0013
      4 C         -13.1607   -0.4697   18.4107 C.ar    1  UNL1        0.0189
      5 C         -14.3169   -1.3666   18.7403 C.ar    1  UNL1        0.0823
      6 C         -15.6968   -0.7934   18.8722 C.ar    1  UNL1        0.0164
      7 C         -16.6354   -1.9160   19.2025 C.ar    1  UNL1        0.0217
      8 C         -15.8356   -3.1829   19.2746 C.ar    1  UNL1        0.0999
      9 N         -14.4027   -2.8433   18.9890 N.ar    1  UNL1       -0.2077
     10 S         -13.2567   -3.8106   18.9575 S.O2    1  UNL1        0.0860
     11 O         -13.4154   -3.9504   17.4725 O.2     1  UNL1       -0.1476
     12 O         -13.0980   -3.6709   20.4425 O.2     1  UNL1       -0.1476
     13 C         -12.1107   -4.7780   18.9261 C.ar    1  UNL1        0.1277
     14 C         -10.6999   -4.2714   18.9805 C.ar    1  UNL1        0.0204
     15 C          -9.5539   -5.2386   18.9491 C.ar    1  UNL1        0.0014
     16 C          -9.8187   -6.7126   18.8634 C.ar    1  UNL1        0.0001
     17 C         -11.2295   -7.2193   18.8090 C.ar    1  UNL1        0.0014
     18 C         -12.3755   -6.2519   18.8404 C.ar    1  UNL1        0.0204
     19 C         -17.3004    1.2497   18.8066 C.3     1  UNL1        0.0993
     20 C         -19.7054    2.0587   24.2436 C.3     1  UNL1        0.0897
     21 N         -19.1041    1.8565   22.8844 N.3     1  UNL1       -0.2691
     22 C         -17.6580    2.1773   22.6487 C.3     1  UNL1        0.0897
     23 C         -17.0567    1.9751   21.2894 C.3     1  UNL1        0.0899
     24 N         -17.9016    1.4520   20.1658 N.3     1  UNL1       -0.2665
     25 C         -19.3479    1.1311   20.4015 C.3     1  UNL1        0.0899
     26 C         -19.9491    1.3333   21.7608 C.3     1  UNL1        0.0897
@<TRIPOS>BOND
     1    20    21    1
     2    21    22    1
     3    22    23    1
     4    23    24    1
     5    24    19    1
     6    19     1    1
     7     1     2   ar
     8     2     3   ar
     9     3     4   ar
    10     4     5   ar
    11     5     6   ar
    12     6     7   ar
    13     7     8   ar
    14     8     9   ar
    15     9    10    1
    16    10    11    2
    17    10    12    2
    18    10    13    1
    19    13    14   ar
    20    14    15   ar
    21    15    16   ar
    22    16    17   ar
    23    17    18   ar
    24    24    25    1
    25    25    26    1
    26    26    21    1
    27     6     1   ar
    28    18    13   ar
    29     9     5   ar
@<TRIPOS>MOLECULE
*****
 26 29 0 0 0
SMALL
GASTEIGER

@<TRIPOS>ATOM
      1 C           4.0769   -2.0709   19.4167 C.ar    1  UNL1       -0.0046
      2 C           3.2983   -3.2769   18.9817 C.ar    1  UNL1       -0.0028
      3 C           3.5694   -4.6115   19.6104 C.ar    1  UNL1        0.0013
      4 C           4.6192   -4.7401   20.6741 C.ar    1  UNL1        0.0189
      5 C           5.3978   -3.5341   21.1092 C.ar    1  UNL1        0.0823
      6 C           5.1266   -2.1995   20.4805 C.ar    1  UNL1        0.0164
      7 C           6.0468   -1.1954   21.1092 C.ar    1  UNL1        0.0217
      8 C           6.8866   -1.9095   22.1264 C.ar    1  UNL1        0.0999
      9 N           6.4854   -3.3549   22.1264 N.ar    1  UNL1       -0.2077
     10 S           7.0695   -4.4320   22.9917 S.O2    1  UNL1        0.0860
     11 O           7.8372   -4.9600   21.8162 O.2     1  UNL1       -0.1476
     12 O           6.3017   -3.9039   24.1672 O.2     1  UNL1       -0.1476
     13 C           7.6535   -5.5091   23.8571 C.ar    1  UNL1        0.1277
     14 C           8.5881   -6.5221   23.2654 C.ar    1  UNL1        0.0204
     15 C           9.1721   -7.5992   24.1307 C.ar    1  UNL1        0.0014
     16 C           8.8215   -7.6633   25.5877 C.ar    1  UNL1        0.0001
     17 C           7.8869   -6.6503   26.1795 C.ar    1  UNL1        0.0014
     18 C           7.3029   -5.5731   25.3141 C.ar    1  UNL1        0.0204
     19 C           3.8058   -0.7362   18.7880 C.3     1  UNL1        0.0993
     20 C          -0.9796    2.4617   20.4829 C.3     1  UNL1        0.0897
     21 N           0.2167    1.6622   20.0592 N.3     1  UNL1       -0.2691
     22 C           0.5382    0.3701   20.7498 C.3     1  UNL1        0.0897
     23 C           1.7345   -0.4294   20.3260 C.3     1  UNL1        0.0899
     24 N           2.6095    0.0633   19.2117 N.3     1  UNL1       -0.2665
     25 C           2.2881    1.3555   18.5211 C.3     1  UNL1        0.0899
     26 C           1.0917    2.1550   18.9448 C.3     1  UNL1        0.0897
@<TRIPOS>BOND
     1    20    21    1
     2    21    22    1
     3    22    23    1
     4    23    24    1
     5    24    19    1
     6    19     1    1
     7     1     2   ar
     8     2     3   ar
     9     3     4   ar
    10     4     5   ar
    11     5     6   ar
    12     6     7   ar
    13     7     8   ar
    14     8     9   ar
    15     9    10    1
    16    10    11    2
    17    10    12    2
    18    10    13    1
    19    13    14   ar
    20    14    15   ar
    21    15    16   ar
    22    16    17   ar
    23    17    18   ar
    24    24    25    1
    25    25    26    1
    26    26    21    1
    27     6     1   ar
    28    18    13   ar
    29     9     5   ar
@<TRIPOS>MOLECULE
*****
 26 29 0 0 0
SMALL
GASTEIGER

@<TRIPOS>ATOM
      1 C          -1.2258    3.4703   24.4785 C.ar    1  UNL1       -0.0046
      2 C          -0.8488    2.5044   25.5624 C.ar    1  UNL1       -0.0028
      3 C           0.0184    1.3224   25.2453 C.ar    1  UNL1        0.0013
      4 C           0.5086    1.1061   23.8443 C.ar    1  UNL1        0.0189
      5 C           0.1317    2.0720   22.7603 C.ar    1  UNL1        0.0823
      6 C          -0.7355    3.2541   23.0774 C.ar    1  UNL1        0.0164
      7 C          -0.9414    4.0311   21.8109 C.ar    1  UNL1        0.0217
      8 C          -0.2014    3.3292   20.7111 C.ar    1  UNL1        0.0999
      9 N           0.4618    2.1184   21.2979 N.ar    1  UNL1       -0.2077
     10 S           1.3068    1.1279   20.5529 S.O2    1  UNL1        0.0860
     11 O           0.1310    0.2021   20.4503 O.2     1  UNL1       -0.1476
     12 O           2.4825    2.0537   20.6556 O.2     1  UNL1       -0.1476
     13 C           2.1518    0.1374   19.8080 C.ar    1  UNL1        0.1277
     14 C           2.6577    0.4661   18.4347 C.ar    1  UNL1        0.0204
     15 C           3.5028   -0.5243   17.6897 C.ar    1  UNL1        0.0014
     16 C           3.8419   -1.8435   18.3181 C.ar    1  UNL1        0.0001
     17 C           3.3360   -2.1722   19.6914 C.ar    1  UNL1        0.0014
     18 C           2.4909   -1.1817   20.4363 C.ar    1  UNL1        0.0204
     19 C          -2.0930    4.6525   24.7956 C.3     1  UNL1        0.0993
     20 C          -7.9906    4.4222   23.7158 C.3     1  UNL1        0.0897
     21 N          -6.5162    4.4797   23.9858 N.3     1  UNL1       -0.2691
     22 C          -5.9867    5.3685   25.0718 C.3     1  UNL1        0.0897
     23 C          -4.5123    5.4261   25.3418 C.3     1  UNL1        0.0899
     24 N          -3.5674    4.5949   24.5256 N.3     1  UNL1       -0.2665
     25 C          -4.0969    3.7060   23.4395 C.3     1  UNL1        0.0899
     26 C          -5.5712    3.6484   23.1695 C.3     1  UNL1        0.0897
@<TRIPOS>BOND
     1    20    21    1
     2    21    22    1
     3    22    23    1
     4    23    24    1
     5    24    19    1
     6    19     1    1
     7     1     2   ar
     8     2     3   ar
     9     3     4   ar
    10     4     5   ar
    11     5     6   ar
    12     6     7   ar
    13     7     8   ar
    14     8     9   ar
    15     9    10    1
    16    10    11    2
    17    10    12    2
    18    10    13    1
    19    13    14   ar
    20    14    15   ar
    21    15    16   ar
    22    16    17   ar
    23    17    18   ar
    24    24    25    1
    25    25    26    1
    26    26    21    1
    27     6     1   ar
    28    18    13   ar
    29     9     5   ar
@<TRIPOS>MOLECULE
*****
 26 29 0 0 0
SMALL
GASTEIGER

@<TRIPOS>ATOM
      1 C         -12.8669   -2.9329   19.0178 C.ar    1  UNL1       -0.0046
      2 C         -13.2237   -2.9333   20.4747 C.ar    1  UNL1       -0.0028
      3 C         -14.1473   -3.9818   21.0202 C.ar    1  UNL1        0.0013
      4 C         -14.7140   -5.0298   20.1089 C.ar    1  UNL1        0.0189
      5 C         -14.3571   -5.0294   18.6520 C.ar    1  UNL1        0.0823
      6 C         -13.4335   -3.9809   18.1065 C.ar    1  UNL1        0.0164
      7 C         -13.2633   -4.2321   16.6374 C.ar    1  UNL1        0.0217
      8 C         -14.0817   -5.4358   16.2751 C.ar    1  UNL1        0.0999
      9 N         -14.7577   -5.9286   17.5202 N.ar    1  UNL1       -0.2077
     10 S         -15.6735   -7.1126   17.6166 S.O2    1  UNL1        0.0860
     11 O         -14.4856   -8.0239   17.7088 O.2     1  UNL1       -0.1476
     12 O         -16.8614   -6.2014   17.5244 O.2     1  UNL1       -0.1476
     13 C         -16.5894   -8.2967   17.7130 C.ar    1  UNL1        0.1277
     14 C         -16.1793   -9.4991   18.5105 C.ar    1  UNL1        0.0204
     15 C         -17.0951  -10.6831   18.6070 C.ar    1  UNL1        0.0014
     16 C         -18.4210  -10.6648   17.9059 C.ar    1  UNL1        0.0001
     17 C         -18.8311   -9.4624   17.1083 C.ar    1  UNL1        0.0014
     18 C         -17.9152   -8.2783   17.0119 C.ar    1  UNL1        0.0204
     19 C         -11.9432   -1.8844   18.4721 C.3     1  UNL1        0.0993
     20 C         -14.0882    3.5127   16.9653 C.3     1  UNL1        0.0897
     21 N         -13.5519    2.1635   17.3420 N.3     1  UNL1       -0.2691
     22 C         -12.2139    1.7186   16.8304 C.3     1  UNL1        0.0897
     23 C         -11.6777    0.3693   17.2071 C.3     1  UNL1        0.0899
     24 N         -12.4795   -0.5351   18.0954 N.3     1  UNL1       -0.2665
     25 C         -13.8176   -0.0903   18.6071 C.3     1  UNL1        0.0899
     26 C         -14.3538    1.2590   18.2304 C.3     1  UNL1        0.0897
@<TRIPOS>BOND
     1    20    21    1
     2    21    22    1
     3    22    23    1
     4    23    24    1
     5    24    19    1
     6    19     1    1
     7     1     2   ar
     8     2     3   ar
     9     3     4   ar
    10     4     5   ar
    11     5     6   ar
    12     6     7   ar
    13     7     8   ar
    14     8     9   ar
    15     9    10    1
    16    10    11    2
    17    10    12    2
    18    10    13    1
    19    13    14   ar
    20    14    15   ar
    21    15    16   ar
    22    16    17   ar
    23    17    18   ar
    24    24    25    1
    25    25    26    1
    26    26    21    1
    27     6     1   ar
    28    18    13   ar
    29     9     5   ar
@<TRIPOS>MOLECULE
*****
 26 29 0 0 0
SMALL
GASTEIGER

@<TRIPOS>ATOM
      1 C          -0.4091    3.2293   21.5913 C.ar    1  UNL1       -0.0046
      2 C          -0.2799    2.9111   23.0514 C.ar    1  UNL1       -0.0028
      3 C           0.5925    1.7752   23.4971 C.ar    1  UNL1        0.0013
      4 C           1.3357    0.9575   22.4827 C.ar    1  UNL1        0.0189
      5 C           1.2065    1.2757   21.0225 C.ar    1  UNL1        0.0823
      6 C           0.3341    2.4116   20.5768 C.ar    1  UNL1        0.0164
      7 C           0.4016    2.4883   19.0803 C.ar    1  UNL1        0.0217
      8 C           1.3157    1.3999   18.6011 C.ar    1  UNL1        0.0999
      9 N           1.8131    0.6504   19.8015 N.ar    1  UNL1       -0.2077
     10 S           2.7523   -0.5190   19.7839 S.O2    1  UNL1        0.0860
     11 O           3.9138    0.4163   19.6222 O.2     1  UNL1       -0.1476
     12 O           1.5908   -1.4543   19.9457 O.2     1  UNL1       -0.1476
     13 C           3.6915   -1.6885   19.7664 C.ar    1  UNL1        0.1277
     14 C           4.3030   -2.1399   18.4732 C.ar    1  UNL1        0.0204
     15 C           5.2422   -3.3094   18.4556 C.ar    1  UNL1        0.0014
     16 C           5.5699   -4.0274   19.7312 C.ar    1  UNL1        0.0001
     17 C           4.9584   -3.5760   21.0243 C.ar    1  UNL1        0.0014
     18 C           4.0192   -2.4065   21.0419 C.ar    1  UNL1        0.0204
     19 C          -1.2815    4.3652   21.1455 C.3     1  UNL1        0.0993
     20 C          -6.6720    3.2500   18.7583 C.3     1  UNL1        0.0897
     21 N          -5.3244    3.5288   19.3551 N.3     1  UNL1       -0.2691
     22 C          -4.2166    4.0564   18.4923 C.3     1  UNL1        0.0897
     23 C          -2.8690    4.3352   19.0891 C.3     1  UNL1        0.0899
     24 N          -2.6291    4.0864   20.5487 N.3     1  UNL1       -0.2665
     25 C          -3.7369    3.5588   21.4116 C.3     1  UNL1        0.0899
     26 C          -5.0845    3.2800   20.8148 C.3     1  UNL1        0.0897
@<TRIPOS>BOND
     1    20    21    1
     2    21    22    1
     3    22    23    1
     4    23    24    1
     5    24    19    1
     6    19     1    1
     7     1     2   ar
     8     2     3   ar
     9     3     4   ar
    10     4     5   ar
    11     5     6   ar
    12     6     7   ar
    13     7     8   ar
    14     8     9   ar
    15     9    10    1
    16    10    11    2
    17    10    12    2
    18    10    13    1
    19    13    14   ar
    20    14    15   ar
    21    15    16   ar
    22    16    17   ar
    23    17    18   ar
    24    24    25    1
    25    25    26    1
    26    26    21    1
    27     6     1   ar
    28    18    13   ar
    29     9     5   ar
@<TRIPOS>MOLECULE
*****
 26 29 0 0 0
SMALL
GASTEIGER

@<TRIPOS>ATOM
      1 C           4.1974   -2.7205   19.5975 C.ar    1  UNL1       -0.0046
      2 C           4.9212   -2.7412   18.2839 C.ar    1  UNL1       -0.0028
      3 C           4.7439   -1.6125   17.3121 C.ar    1  UNL1        0.0013
      4 C           3.8428   -0.4631   17.6538 C.ar    1  UNL1        0.0189
      5 C           3.1190   -0.4424   18.9675 C.ar    1  UNL1        0.0823
      6 C           3.2963   -1.5711   19.9393 C.ar    1  UNL1        0.0164
      7 C           2.4588   -1.2774   21.1487 C.ar    1  UNL1        0.0217
      8 C           1.7640    0.0328   20.9242 C.ar    1  UNL1        0.0999
      9 N           2.1720    0.5489   19.5761 N.ar    1  UNL1       -0.2077
     10 S           1.7134    1.8311   18.9472 S.O2    1  UNL1        0.0860
     11 O           0.6228    1.0903   18.2319 O.2     1  UNL1       -0.1476
     12 O           2.8041    2.5720   19.6624 O.2     1  UNL1       -0.1476
     13 C           1.2549    3.1135   18.3182 C.ar    1  UNL1        0.1277
     14 C           2.2159    4.2533   18.1530 C.ar    1  UNL1        0.0204
     15 C           1.7575    5.5356   17.5241 C.ar    1  UNL1        0.0014
     16 C           0.3381    5.6781   17.0603 C.ar    1  UNL1        0.0001
     17 C          -0.6229    4.5382   17.2255 C.ar    1  UNL1        0.0014
     18 C          -0.1644    3.2559   17.8545 C.ar    1  UNL1        0.0204
     19 C           4.3747   -3.8492   20.5695 C.3     1  UNL1        0.0993
     20 C           8.6535   -3.5512   24.7651 C.3     1  UNL1        0.0897
     21 N           7.5838   -3.6257   23.7162 N.3     1  UNL1       -0.2691
     22 C           6.1435   -3.4590   24.1006 C.3     1  UNL1        0.0897
     23 C           5.0738   -3.5336   23.0517 C.3     1  UNL1        0.0899
     24 N           5.4444   -3.7747   21.6184 N.3     1  UNL1       -0.2665
     25 C           6.8847   -3.9414   21.2339 C.3     1  UNL1        0.0899
     26 C           7.9544   -3.8669   22.2828 C.3     1  UNL1        0.0897
@<TRIPOS>BOND
     1    20    21    1
     2    21    22    1
     3    22    23    1
     4    23    24    1
     5    24    19    1
     6    19     1    1
     7     1     2   ar
     8     2     3   ar
     9     3     4   ar
    10     4     5   ar
    11     5     6   ar
    12     6     7   ar
    13     7     8   ar
    14     8     9   ar
    15     9    10    1
    16    10    11    2
    17    10    12    2
    18    10    13    1
    19    13    14   ar
    20    14    15   ar
    21    15    16   ar
    22    16    17   ar
    23    17    18   ar
    24    24    25    1
    25    25    26    1
    26    26    21    1
    27     6     1   ar
    28    18    13   ar
    29     9     5   ar
@<TRIPOS>MOLECULE
*****
 26 29 0 0 0
SMALL
GASTEIGER

@<TRIPOS>ATOM
      1 C          -0.9718    3.4798   26.3824 C.ar    1  UNL1       -0.0046
      2 C          -0.7209    4.9337   26.6529 C.ar    1  UNL1       -0.0028
      3 C           0.0026    5.3508   27.8989 C.ar    1  UNL1        0.0013
      4 C           0.4754    4.3140   28.8743 C.ar    1  UNL1        0.0189
      5 C           0.2246    2.8601   28.6039 C.ar    1  UNL1        0.0823
      6 C          -0.4990    2.4430   27.3579 C.ar    1  UNL1        0.0164
      7 C          -0.6008    0.9464   27.3600 C.ar    1  UNL1        0.0217
      8 C           0.0599    0.4386   28.6072 C.ar    1  UNL1        0.0999
      9 N           0.5700    1.6213   29.3760 N.ar    1  UNL1       -0.2077
     10 S           1.2977    1.5737   30.6867 S.O2    1  UNL1        0.0860
     11 O           2.6000    1.4213   29.9581 O.2     1  UNL1       -0.1476
     12 O          -0.0045    1.7261   31.4153 O.2     1  UNL1       -0.1476
     13 C           2.0255    1.5260   31.9976 C.ar    1  UNL1        0.1277
     14 C           1.6773    2.4994   33.0844 C.ar    1  UNL1        0.0204
     15 C           2.4050    2.4518   34.3952 C.ar    1  UNL1        0.0014
     16 C           3.4808    1.4309   34.6192 C.ar    1  UNL1        0.0001
     17 C           3.8290    0.4575   33.5323 C.ar    1  UNL1        0.0014
     18 C           3.1013    0.5051   32.2215 C.ar    1  UNL1        0.0204
     19 C          -1.6954    3.0626   25.1365 C.3     1  UNL1        0.0993
     20 C          -7.2987    4.9639   24.1424 C.3     1  UNL1        0.0897
     21 N          -5.8978    4.4886   24.3909 N.3     1  UNL1       -0.2691
     22 C          -5.0119    4.1284   23.2353 C.3     1  UNL1        0.0897
     23 C          -3.6111    3.6531   23.4838 C.3     1  UNL1        0.0899
     24 N          -3.0962    3.5379   24.8879 N.3     1  UNL1       -0.2665
     25 C          -3.9821    3.8981   26.0436 C.3     1  UNL1        0.0899
     26 C          -5.3829    4.3734   25.7951 C.3     1  UNL1        0.0897
@<TRIPOS>BOND
     1    20    21    1
     2    21    22    1
     3    22    23    1
     4    23    24    1
     5    24    19    1
     6    19     1    1
     7     1     2   ar
     8     2     3   ar
     9     3     4   ar
    10     4     5   ar
    11     5     6   ar
    12     6     7   ar
    13     7     8   ar
    14     8     9   ar
    15     9    10    1
    16    10    11    2
    17    10    12    2
    18    10    13    1
    19    13    14   ar
    20    14    15   ar
    21    15    16   ar
    22    16    17   ar
    23    17    18   ar
    24    24    25    1
    25    25    26    1
    26    26    21    1
    27     6     1   ar
    28    18    13   ar
    29     9     5   ar
