@<TRIPOS>MOLECULE
*****
 36 41 0 0 0
SMALL
GASTEIGER

@<TRIPOS>ATOM
      1 C           5.8496   -3.2247   22.4591 C.ar    1  UNL1        0.1020
      2 C           5.4114   -3.0178   23.8787 C.ar    1  UNL1        0.1007
      3 N           6.2586   -3.8900   24.7571 N.ar    1  UNL1       -0.2240
      4 C           7.2205   -4.6358   23.8805 C.ar    1  UNL1        0.1772
      5 C           8.2938   -5.6363   24.1919 C.ar    1  UNL1        0.0859
      6 C           9.1144   -6.2256   23.0832 C.ar    1  UNL1        0.0401
      7 C           8.8616   -5.8144   21.6629 C.ar    1  UNL1        0.1219
      8 N           7.7883   -4.8140   21.3514 N.ar    1  UNL1       -0.1621
      9 N           6.9677   -4.2247   22.4602 N.ar    1  UNL1       -0.2095
     10 C           4.1148   -1.2008   18.8336 C.ar    1  UNL1        0.0140
     11 C           5.1031   -0.4743   19.6971 C.ar    1  UNL1        0.0012
     12 C           5.6813   -1.1490   20.9056 C.ar    1  UNL1        0.0016
     13 C           5.2714   -2.5500   21.2506 C.ar    1  UNL1        0.0192
     14 C           4.2831   -3.2764   20.3872 C.ar    1  UNL1        0.0016
     15 C           3.7048   -2.6018   19.1787 C.ar    1  UNL1        0.0012
     16 O           3.8992   -1.0080   16.2517 O.co2   1  UNL1       -0.5446
     17 C           3.5365   -0.5262   17.6251 C.2     1  UNL1        0.0729
     18 O           2.5956    0.6303   17.7900 O.co2   1  UNL1       -0.5446
     19 N           8.5465   -6.0474   25.6121 N.pl3   1  UNL1       -0.3003
     20 C           9.2809   -5.1260   26.5403 C.3     1  UNL1        0.1231
     21 C           9.5337   -5.5372   27.9606 C.3     1  UNL1        0.1636
     22 O           9.0520   -6.8697   28.4526 O.3     1  UNL1       -0.3501
     23 C           8.3176   -7.7912   27.5244 C.3     1  UNL1        0.1636
     24 C           8.0648   -7.3801   26.1042 C.3     1  UNL1        0.1231
     25 C           4.3180   -2.1000   24.3390 C.2     1  UNL1        0.0222
     26 C           4.4924   -1.2953   25.5928 C.2     1  UNL1        0.0207
     27 C           3.3989   -0.3774   26.0531 C.ar    1  UNL1        0.0813
     28 C           3.2736   -0.0303   27.5070 C.ar    1  UNL1        0.0191
     29 C           2.1802    0.8876   27.9674 C.ar    1  UNL1        0.0030
     30 C           1.2120    1.4583   26.9739 C.ar    1  UNL1        0.0177
     31 C           0.1186    2.3762   27.4342 C.ar    1  UNL1        0.0015
     32 C          -0.8494    2.9468   26.4407 C.ar    1  UNL1        0.0001
     33 C          -0.7241    2.5996   24.9869 C.ar    1  UNL1        0.0015
     34 C           0.3693    1.6818   24.5265 C.ar    1  UNL1        0.0191
     35 C           1.3374    1.1111   25.5200 C.ar    1  UNL1        0.0812
     36 N           2.4308    0.1932   25.0596 N.ar    1  UNL1       -0.2454
@<TRIPOS>UNITY_ATOM_ATTR
16 1
charge -1
@<TRIPOS>BOND
     1    16    17   ar
     2    17    18   ar
     3    17    10    1
     4    10    11   ar
     5    11    12   ar
     6    12    13   ar
     7    13     1    1
     8     1     2   ar
     9     2    25    1
    10    25    26    2
    11    26    27    1
    12    27    28   ar
    13    28    29   ar
    14    29    30   ar
    15    30    31   ar
    16    31    32   ar
    17    32    33   ar
    18    33    34   ar
    19    34    35   ar
    20    35    36   ar
    21     2     3   ar
    22     3     4   ar
    23     4     5   ar
    24     5    19    1
    25    19    20    1
    26    20    21    1
    27    21    22    1
    28    22    23    1
    29    23    24    1
    30     5     6   ar
    31     6     7   ar
    32     7     8   ar
    33     8     9   ar
    34    13    14   ar
    35    14    15   ar
    36    15    10   ar
    37     9     1   ar
    38    36    27   ar
    39     9     4   ar
    40    35    30   ar
    41    24    19    1
@<TRIPOS>MOLECULE
*****
 36 41 0 0 0
SMALL
GASTEIGER

@<TRIPOS>ATOM
      1 C           1.2356    1.9666   19.8522 C.ar    1  UNL1        0.1020
      2 C           0.9537    1.7771   21.3133 C.ar    1  UNL1        0.1007
      3 N          -0.3850    2.3854   21.6097 N.ar    1  UNL1       -0.2240
      4 C          -0.9305    2.9507   20.3320 C.ar    1  UNL1        0.1772
      5 C          -2.2099    3.6678   20.0171 C.ar    1  UNL1        0.0859
      6 C          -2.4876    4.1260   18.6161 C.ar    1  UNL1        0.0401
      7 C          -1.4861    3.8672   17.5299 C.ar    1  UNL1        0.1219
      8 N          -0.2067    3.1501   17.8447 N.ar    1  UNL1       -0.1621
      9 N           0.0711    2.6919   19.2457 N.ar    1  UNL1       -0.2095
     10 C           4.9266    0.5989   17.6713 C.ar    1  UNL1        0.0140
     11 C           4.9597    1.8587   18.4849 C.ar    1  UNL1        0.0012
     12 C           3.7294    2.3146   19.2119 C.ar    1  UNL1        0.0016
     13 C           2.4659    1.5107   19.1253 C.ar    1  UNL1        0.0192
     14 C           2.4328    0.2510   18.3117 C.ar    1  UNL1        0.0016
     15 C           3.6631   -0.2049   17.5848 C.ar    1  UNL1        0.0012
     16 O           6.8445    1.0657   15.9821 O.co2   1  UNL1       -0.5446
     17 C           6.1569    0.1431   16.9444 C.2     1  UNL1        0.0729
     18 O           6.6996   -1.2353   17.1797 O.co2   1  UNL1       -0.5446
     19 N          -3.2114    3.9266   21.1033 N.pl3   1  UNL1       -0.3003
     20 C          -2.9476    4.9887   22.1292 C.3     1  UNL1        0.1231
     21 C          -3.9492    5.2475   23.2155 C.3     1  UNL1        0.1636
     22 O          -5.2146    4.4442   23.2758 O.3     1  UNL1       -0.3501
     23 C          -5.4784    3.3822   22.2499 C.3     1  UNL1        0.1636
     24 C          -4.4768    3.1234   21.1637 C.3     1  UNL1        0.1231
     25 C           1.8527    1.0985   22.3039 C.2     1  UNL1        0.0222
     26 C           2.4435   -0.2427   21.9845 C.2     1  UNL1        0.0207
     27 C           3.3425   -0.9213   22.9752 C.ar    1  UNL1        0.0813
     28 C           3.3656   -0.4636   24.4034 C.ar    1  UNL1        0.0191
     29 C           4.2646   -1.1421   25.3940 C.ar    1  UNL1        0.0030
     30 C           5.1405   -2.2785   24.9564 C.ar    1  UNL1        0.0177
     31 C           6.0395   -2.9571   25.9470 C.ar    1  UNL1        0.0015
     32 C           6.9154   -4.0933   25.5094 C.ar    1  UNL1        0.0001
     33 C           6.8924   -4.5511   24.0811 C.ar    1  UNL1        0.0015
     34 C           5.9934   -3.8725   23.0905 C.ar    1  UNL1        0.0191
     35 C           5.1175   -2.7362   23.5281 C.ar    1  UNL1        0.0812
     36 N           4.2184   -2.0576   22.5375 N.ar    1  UNL1       -0.2454
@<TRIPOS>UNITY_ATOM_ATTR
16 1
charge -1
@<TRIPOS>BOND
     1    16    17   ar
     2    17    18   ar
     3    17    10    1
     4    10    11   ar
     5    11    12   ar
     6    12    13   ar
     7    13     1    1
     8     1     2   ar
     9     2    25    1
    10    25    26    2
    11    26    27    1
    12    27    28   ar
    13    28    29   ar
    14    29    30   ar
    15    30    31   ar
    16    31    32   ar
    17    32    33   ar
    18    33    34   ar
    19    34    35   ar
    20    35    36   ar
    21     2     3   ar
    22     3     4   ar
    23     4     5   ar
    24     5    19    1
    25    19    20    1
    26    20    21    1
    27    21    22    1
    28    22    23    1
    29    23    24    1
    30     5     6   ar
    31     6     7   ar
    32     7     8   ar
    33     8     9   ar
    34    13    14   ar
    35    14    15   ar
    36    15    10   ar
    37     9     1   ar
    38    36    27   ar
    39     9     4   ar
    40    35    30   ar
    41    24    19    1
@<TRIPOS>MOLECULE
*****
 36 41 0 0 0
SMALL
GASTEIGER

@<TRIPOS>ATOM
      1 C           3.1667    0.1338   22.9959 C.ar    1  UNL1        0.1020
      2 C           3.4430   -0.7409   24.1827 C.ar    1  UNL1        0.1007
      3 N           2.8058   -0.1073   25.3838 N.ar    1  UNL1       -0.2240
      4 C           2.1357    1.1589   24.9393 C.ar    1  UNL1        0.1772
      5 C           1.3512    2.1954   25.6877 C.ar    1  UNL1        0.0859
      6 C           0.7897    3.3810   24.9602 C.ar    1  UNL1        0.0401
      7 C           1.0128    3.5301   23.4845 C.ar    1  UNL1        0.1219
      8 N           1.7973    2.4935   22.7360 N.ar    1  UNL1       -0.1621
      9 N           2.3587    1.3079   23.4634 N.ar    1  UNL1       -0.2095
     10 C           4.5235   -0.6302   18.7738 C.ar    1  UNL1        0.0140
     11 C           3.2467   -1.2391   19.2730 C.ar    1  UNL1        0.0012
     12 C           2.7945   -0.9844   20.6804 C.ar    1  UNL1        0.0016
     13 C           3.6190   -0.1209   21.5885 C.ar    1  UNL1        0.0192
     14 C           4.8957    0.4879   21.0893 C.ar    1  UNL1        0.0016
     15 C           5.3479    0.2332   19.6820 C.ar    1  UNL1        0.0012
     16 O           6.4372   -1.0355   17.0640 O.co2   1  UNL1       -0.5446
     17 C           4.9758   -0.8849   17.3665 C.2     1  UNL1        0.0729
     18 O           3.9666   -0.9890   16.2617 O.co2   1  UNL1       -0.5446
     19 N           1.1282    2.0464   27.1635 N.pl3   1  UNL1       -0.3003
     20 C           0.0085    1.1861   27.6697 C.3     1  UNL1        0.1231
     21 C          -0.2145    1.0370   29.1456 C.3     1  UNL1        0.1636
     22 O           0.6822    1.7483   30.1151 O.3     1  UNL1       -0.3501
     23 C           1.8018    2.6086   29.6089 C.3     1  UNL1        0.1636
     24 C           2.0248    2.7577   28.1331 C.3     1  UNL1        0.1231
     25 C           4.2201   -2.0238   24.1706 C.2     1  UNL1        0.0222
     26 C           5.7170   -1.9931   24.0797 C.2     1  UNL1        0.0207
     27 C           6.4942   -3.2761   24.0675 C.ar    1  UNL1        0.0813
     28 C           7.2580   -3.6787   22.8410 C.ar    1  UNL1        0.0191
     29 C           8.0352   -4.9615   22.8288 C.ar    1  UNL1        0.0030
     30 C           8.0484   -5.8420   24.0432 C.ar    1  UNL1        0.0177
     31 C           8.8256   -7.1249   24.0310 C.ar    1  UNL1        0.0015
     32 C           8.8388   -8.0052   25.2454 C.ar    1  UNL1        0.0001
     33 C           8.0750   -7.6027   26.4720 C.ar    1  UNL1        0.0015
     34 C           7.2978   -6.3198   26.4842 C.ar    1  UNL1        0.0191
     35 C           7.2846   -5.4394   25.2698 C.ar    1  UNL1        0.0812
     36 N           6.5074   -4.1564   25.2819 N.ar    1  UNL1       -0.2454
@<TRIPOS>UNITY_ATOM_ATTR
16 1
charge -1
@<TRIPOS>BOND
     1    16    17   ar
     2    17    18   ar
     3    17    10    1
     4    10    11   ar
     5    11    12   ar
     6    12    13   ar
     7    13     1    1
     8     1     2   ar
     9     2    25    1
    10    25    26    2
    11    26    27    1
    12    27    28   ar
    13    28    29   ar
    14    29    30   ar
    15    30    31   ar
    16    31    32   ar
    17    32    33   ar
    18    33    34   ar
    19    34    35   ar
    20    35    36   ar
    21     2     3   ar
    22     3     4   ar
    23     4     5   ar
    24     5    19    1
    25    19    20    1
    26    20    21    1
    27    21    22    1
    28    22    23    1
    29    23    24    1
    30     5     6   ar
    31     6     7   ar
    32     7     8   ar
    33     8     9   ar
    34    13    14   ar
    35    14    15   ar
    36    15    10   ar
    37     9     1   ar
    38    36    27   ar
    39     9     4   ar
    40    35    30   ar
    41    24    19    1
@<TRIPOS>MOLECULE
*****
 36 41 0 0 0
SMALL
GASTEIGER

@<TRIPOS>ATOM
      1 C           2.6276    0.2840   22.9417 C.ar    1  UNL1        0.1020
      2 C           1.3266    0.9724   23.2304 C.ar    1  UNL1        0.1007
      3 N           1.2566    1.2313   24.7062 N.ar    1  UNL1       -0.2240
      4 C           2.5145    0.7030   25.3297 C.ar    1  UNL1        0.1772
      5 C           2.9978    0.6794   26.7494 C.ar    1  UNL1        0.0859
      6 C           4.3284    0.0703   27.0787 C.ar    1  UNL1        0.0401
      7 C           5.1757   -0.5151   25.9882 C.ar    1  UNL1        0.1219
      8 N           4.6925   -0.4915   24.5684 N.ar    1  UNL1       -0.1621
      9 N           3.3618    0.1175   24.2391 N.ar    1  UNL1       -0.2095
     10 C           4.0745   -1.0480   18.8941 C.ar    1  UNL1        0.0140
     11 C           3.9265    0.4144   19.1938 C.ar    1  UNL1        0.0012
     12 C           3.4442    0.8583   20.5430 C.ar    1  UNL1        0.0016
     13 C           3.1099   -0.1599   21.5925 C.ar    1  UNL1        0.0192
     14 C           3.2579   -1.6222   21.2927 C.ar    1  UNL1        0.0016
     15 C           3.7402   -2.0661   19.9436 C.ar    1  UNL1        0.0012
     16 O           3.8666   -1.0065   16.3047 O.co2   1  UNL1       -0.5446
     17 C           4.5568   -1.4919   17.5449 C.2     1  UNL1        0.0729
     18 O           5.7292   -2.4212   17.4360 O.co2   1  UNL1       -0.5446
     19 N           2.1504    1.2648   27.8399 N.pl3   1  UNL1       -0.3003
     20 C           0.9801    0.4946   28.3757 C.3     1  UNL1        0.1231
     21 C           0.1327    1.0801   29.4662 C.3     1  UNL1        0.1636
     22 O           0.4557    2.4358   30.0209 O.3     1  UNL1       -0.3501
     23 C           1.6261    3.2061   29.4852 C.3     1  UNL1        0.1636
     24 C           2.4734    2.6206   28.3947 C.3     1  UNL1        0.1231
     25 C           0.2793    1.3376   22.2205 C.2     1  UNL1        0.0222
     26 C           0.1194    2.7652   21.7887 C.2     1  UNL1        0.0207
     27 C          -0.9279    3.1305   20.7789 C.ar    1  UNL1        0.0813
     28 C          -0.5215    3.6327   19.4251 C.ar    1  UNL1        0.0191
     29 C          -1.5687    3.9980   18.4152 C.ar    1  UNL1        0.0030
     30 C          -3.0223    3.8611   18.7591 C.ar    1  UNL1        0.0177
     31 C          -4.0695    4.2264   17.7492 C.ar    1  UNL1        0.0015
     32 C          -5.5231    4.0896   18.0931 C.ar    1  UNL1        0.0001
     33 C          -5.9295    3.5874   19.4469 C.ar    1  UNL1        0.0015
     34 C          -4.8823    3.2221   20.4567 C.ar    1  UNL1        0.0191
     35 C          -3.4287    3.3590   20.1129 C.ar    1  UNL1        0.0812
     36 N          -2.3815    2.9936   21.1227 N.ar    1  UNL1       -0.2454
@<TRIPOS>UNITY_ATOM_ATTR
16 1
charge -1
@<TRIPOS>BOND
     1    16    17   ar
     2    17    18   ar
     3    17    10    1
     4    10    11   ar
     5    11    12   ar
     6    12    13   ar
     7    13     1    1
     8     1     2   ar
     9     2    25    1
    10    25    26    2
    11    26    27    1
    12    27    28   ar
    13    28    29   ar
    14    29    30   ar
    15    30    31   ar
    16    31    32   ar
    17    32    33   ar
    18    33    34   ar
    19    34    35   ar
    20    35    36   ar
    21     2     3   ar
    22     3     4   ar
    23     4     5   ar
    24     5    19    1
    25    19    20    1
    26    20    21    1
    27    21    22    1
    28    22    23    1
    29    23    24    1
    30     5     6   ar
    31     6     7   ar
    32     7     8   ar
    33     8     9   ar
    34    13    14   ar
    35    14    15   ar
    36    15    10   ar
    37     9     1   ar
    38    36    27   ar
    39     9     4   ar
    40    35    30   ar
    41    24    19    1
@<TRIPOS>MOLECULE
*****
 36 41 0 0 0
SMALL
GASTEIGER

@<TRIPOS>ATOM
      1 C           2.3553    0.4583   28.8511 C.ar    1  UNL1        0.1020
      2 C           3.2570   -0.5479   28.1996 C.ar    1  UNL1        0.1007
      3 N           4.2513   -1.0106   29.2230 N.ar    1  UNL1       -0.2240
      4 C           3.9641   -0.2903   30.5070 C.ar    1  UNL1        0.1772
      5 C           4.6182   -0.3438   31.8558 C.ar    1  UNL1        0.0859
      6 C           4.1005    0.5105   32.9748 C.ar    1  UNL1        0.0401
      7 C           2.9288    1.4184   32.7450 C.ar    1  UNL1        0.1219
      8 N           2.2747    1.4719   31.3962 N.ar    1  UNL1       -0.1621
      9 N           2.7923    0.6175   30.2772 N.ar    1  UNL1       -0.2095
     10 C          -1.0611    2.6198   26.8746 C.ar    1  UNL1        0.0140
     11 C           0.3372    3.1464   26.7412 C.ar    1  UNL1        0.0012
     12 C           1.4759    2.4258   27.4000 C.ar    1  UNL1        0.0016
     13 C           1.2166    1.1788   28.1923 C.ar    1  UNL1        0.0192
     14 C          -0.1816    0.6523   28.3257 C.ar    1  UNL1        0.0016
     15 C          -1.3204    1.3728   27.6669 C.ar    1  UNL1        0.0012
     16 O          -2.0631    3.8262   24.8033 O.co2   1  UNL1       -0.5446
     17 C          -2.1998    3.3403   26.2158 C.2     1  UNL1        0.0729
     18 O          -3.4754    3.5749   26.9695 O.co2   1  UNL1       -0.5446
     19 N           5.7899   -1.2516   32.0856 N.pl3   1  UNL1       -0.3003
     20 C           5.6240   -2.7370   31.9591 C.3     1  UNL1        0.1231
     21 C           6.7959   -3.6449   32.1889 C.3     1  UNL1        0.1636
     22 O           8.1335   -3.0672   32.5453 O.3     1  UNL1       -0.3501
     23 C           8.2994   -1.5818   32.6718 C.3     1  UNL1        0.1636
     24 C           7.1277   -0.6740   32.4420 C.3     1  UNL1        0.1231
     25 C           3.1782   -1.0103   26.7748 C.2     1  UNL1        0.0222
     26 C           3.4769   -0.0541   25.6585 C.2     1  UNL1        0.0207
     27 C           3.3982   -0.5164   24.2336 C.ar    1  UNL1        0.0813
     28 C           2.6406    0.2931   23.2233 C.ar    1  UNL1        0.0191
     29 C           2.5618   -0.1692   21.7985 C.ar    1  UNL1        0.0030
     30 C           3.2406   -1.4410   21.3840 C.ar    1  UNL1        0.0177
     31 C           3.1618   -1.9033   19.9592 C.ar    1  UNL1        0.0015
     32 C           3.8405   -3.1751   19.5448 C.ar    1  UNL1        0.0001
     33 C           4.5981   -3.9846   20.5551 C.ar    1  UNL1        0.0015
     34 C           4.6769   -3.5224   21.9799 C.ar    1  UNL1        0.0191
     35 C           3.9981   -2.2506   22.3943 C.ar    1  UNL1        0.0812
     36 N           4.0769   -1.7882   23.8192 N.ar    1  UNL1       -0.2454
@<TRIPOS>UNITY_ATOM_ATTR
16 1
charge -1
@<TRIPOS>BOND
     1    16    17   ar
     2    17    18   ar
     3    17    10    1
     4    10    11   ar
     5    11    12   ar
     6    12    13   ar
     7    13     1    1
     8     1     2   ar
     9     2    25    1
    10    25    26    2
    11    26    27    1
    12    27    28   ar
    13    28    29   ar
    14    29    30   ar
    15    30    31   ar
    16    31    32   ar
    17    32    33   ar
    18    33    34   ar
    19    34    35   ar
    20    35    36   ar
    21     2     3   ar
    22     3     4   ar
    23     4     5   ar
    24     5    19    1
    25    19    20    1
    26    20    21    1
    27    21    22    1
    28    22    23    1
    29    23    24    1
    30     5     6   ar
    31     6     7   ar
    32     7     8   ar
    33     8     9   ar
    34    13    14   ar
    35    14    15   ar
    36    15    10   ar
    37     9     1   ar
    38    36    27   ar
    39     9     4   ar
    40    35    30   ar
    41    24    19    1
@<TRIPOS>MOLECULE
*****
 36 41 0 0 0
SMALL
GASTEIGER

@<TRIPOS>ATOM
      1 C           2.2768    1.6131   32.0165 C.ar    1  UNL1        0.1020
      2 C           3.1556    0.5966   32.6830 C.ar    1  UNL1        0.1007
      3 N           3.3604    1.0230   34.1065 N.ar    1  UNL1       -0.2240
      4 C           2.6081    2.3031   34.3197 C.ar    1  UNL1        0.1772
      5 C           2.4464    3.1837   35.5232 C.ar    1  UNL1        0.0859
      6 C           1.6149    4.4290   35.4350 C.ar    1  UNL1        0.0401
      7 C           0.9452    4.7938   34.1433 C.ar    1  UNL1        0.1219
      8 N           1.1069    3.9131   32.9398 N.ar    1  UNL1       -0.1621
      9 N           1.9384    2.6678   33.0280 N.ar    1  UNL1       -0.2095
     10 C           0.8973    1.5159   27.7342 C.ar    1  UNL1        0.0140
     11 C           2.3546    1.6812   28.0491 C.ar    1  UNL1        0.0012
     12 C           2.8144    1.7136   29.4766 C.ar    1  UNL1        0.0016
     13 C           1.8170    1.5807   30.5891 C.ar    1  UNL1        0.0192
     14 C           0.3598    1.4154   30.2741 C.ar    1  UNL1        0.0016
     15 C          -0.1000    1.3830   28.8467 C.ar    1  UNL1        0.0012
     16 O           1.3480    0.9569   25.2374 O.co2   1  UNL1       -0.5446
     17 C           0.4376    1.4835   26.3068 C.2     1  UNL1        0.0729
     18 O          -0.9327    1.9778   25.9488 O.co2   1  UNL1       -0.5446
     19 N           3.1161    2.8189   36.8148 N.pl3   1  UNL1       -0.3003
     20 C           4.1984    3.6953   37.3721 C.3     1  UNL1        0.1231
     21 C           4.8682    3.3305   38.6638 C.3     1  UNL1        0.1636
     22 O           4.4555    2.0894   39.3982 O.3     1  UNL1       -0.3501
     23 C           3.3732    1.2130   38.8409 C.3     1  UNL1        0.1636
     24 C           2.7035    1.5778   37.5493 C.3     1  UNL1        0.1231
     25 C           3.7290   -0.6308   32.0391 C.2     1  UNL1        0.0222
     26 C           5.2035   -0.8964   32.1113 C.2     1  UNL1        0.0207
     27 C           5.7770   -2.1238   31.4674 C.ar    1  UNL1        0.0813
     28 C           6.2248   -3.2765   32.3164 C.ar    1  UNL1        0.0191
     29 C           6.7983   -4.5039   31.6725 C.ar    1  UNL1        0.0030
     30 C           6.9239   -4.5787   30.1796 C.ar    1  UNL1        0.0177
     31 C           7.4973   -5.8061   29.5358 C.ar    1  UNL1        0.0015
     32 C           7.6229   -5.8808   28.0430 C.ar    1  UNL1        0.0001
     33 C           7.1751   -4.7282   27.1940 C.ar    1  UNL1        0.0015
     34 C           6.6017   -3.5008   27.8378 C.ar    1  UNL1        0.0191
     35 C           6.4761   -3.4260   29.3306 C.ar    1  UNL1        0.0812
     36 N           5.9026   -2.1986   29.9746 N.ar    1  UNL1       -0.2454
@<TRIPOS>UNITY_ATOM_ATTR
16 1
charge -1
@<TRIPOS>BOND
     1    16    17   ar
     2    17    18   ar
     3    17    10    1
     4    10    11   ar
     5    11    12   ar
     6    12    13   ar
     7    13     1    1
     8     1     2   ar
     9     2    25    1
    10    25    26    2
    11    26    27    1
    12    27    28   ar
    13    28    29   ar
    14    29    30   ar
    15    30    31   ar
    16    31    32   ar
    17    32    33   ar
    18    33    34   ar
    19    34    35   ar
    20    35    36   ar
    21     2     3   ar
    22     3     4   ar
    23     4     5   ar
    24     5    19    1
    25    19    20    1
    26    20    21    1
    27    21    22    1
    28    22    23    1
    29    23    24    1
    30     5     6   ar
    31     6     7   ar
    32     7     8   ar
    33     8     9   ar
    34    13    14   ar
    35    14    15   ar
    36    15    10   ar
    37     9     1   ar
    38    36    27   ar
    39     9     4   ar
    40    35    30   ar
    41    24    19    1
@<TRIPOS>MOLECULE
*****
 36 41 0 0 0
SMALL
GASTEIGER

@<TRIPOS>ATOM
      1 C           6.6493   -3.8880   24.0066 C.ar    1  UNL1        0.1020
      2 C           6.3314   -3.0574   25.2146 C.ar    1  UNL1        0.1007
      3 N           6.7557   -3.8264   26.4306 N.ar    1  UNL1       -0.2240
      4 C           7.3357   -5.1323   25.9742 C.ar    1  UNL1        0.1772
      5 C           7.9152   -6.2916   26.7292 C.ar    1  UNL1        0.0859
      6 C           8.4290   -7.4891   25.9861 C.ar    1  UNL1        0.0401
      7 C           8.3633   -7.5271   24.4880 C.ar    1  UNL1        0.1219
      8 N           7.7838   -6.3677   23.7330 N.ar    1  UNL1       -0.1621
      9 N           7.2700   -5.1703   24.4761 N.ar    1  UNL1       -0.2095
     10 C           5.8768   -2.7351   19.7259 C.ar    1  UNL1        0.0140
     11 C           4.7746   -3.3264   20.5540 C.ar    1  UNL1        0.0012
     12 C           5.0321   -3.7107   21.9809 C.ar    1  UNL1        0.0016
     13 C           6.3918   -3.5037   22.5798 C.ar    1  UNL1        0.0192
     14 C           7.4939   -2.9125   21.7517 C.ar    1  UNL1        0.0016
     15 C           7.2363   -2.5282   20.3248 C.ar    1  UNL1        0.0012
     16 O           6.7534   -2.3037   17.3186 O.co2   1  UNL1       -0.5446
     17 C           5.6192   -2.3509   18.2991 C.2     1  UNL1        0.0729
     18 O           4.2274   -2.0138   17.8526 O.co2   1  UNL1       -0.5446
     19 N           7.9809   -6.2536   28.2272 N.pl3   1  UNL1       -0.3003
     20 C           9.1775   -6.8107   28.9399 C.3     1  UNL1        0.1231
     21 C           9.2432   -6.7726   30.4380 C.3     1  UNL1        0.1636
     22 O           8.1123   -6.1774   31.2234 O.3     1  UNL1       -0.3501
     23 C           6.9157   -5.6203   30.5107 C.3     1  UNL1        0.1636
     24 C           6.8500   -5.6584   29.0127 C.3     1  UNL1        0.1231
     25 C           5.7002   -1.6967   25.2077 C.2     1  UNL1        0.0222
     26 C           4.2080   -1.5619   25.2787 C.2     1  UNL1        0.0207
     27 C           3.5767   -0.2012   25.2718 C.ar    1  UNL1        0.0813
     28 C           3.7978    0.7223   24.1107 C.ar    1  UNL1        0.0191
     29 C           3.1666    2.0829   24.1038 C.ar    1  UNL1        0.0030
     30 C           2.3141    2.5202   25.2580 C.ar    1  UNL1        0.0177
     31 C           1.6829    3.8808   25.2511 C.ar    1  UNL1        0.0015
     32 C           0.8305    4.3180   26.4053 C.ar    1  UNL1        0.0001
     33 C           0.6094    3.3945   27.5665 C.ar    1  UNL1        0.0015
     34 C           1.2406    2.0338   27.5734 C.ar    1  UNL1        0.0191
     35 C           2.0930    1.5967   26.4192 C.ar    1  UNL1        0.0812
     36 N           2.7243    0.2360   26.4261 N.ar    1  UNL1       -0.2454
@<TRIPOS>UNITY_ATOM_ATTR
16 1
charge -1
@<TRIPOS>BOND
     1    16    17   ar
     2    17    18   ar
     3    17    10    1
     4    10    11   ar
     5    11    12   ar
     6    12    13   ar
     7    13     1    1
     8     1     2   ar
     9     2    25    1
    10    25    26    2
    11    26    27    1
    12    27    28   ar
    13    28    29   ar
    14    29    30   ar
    15    30    31   ar
    16    31    32   ar
    17    32    33   ar
    18    33    34   ar
    19    34    35   ar
    20    35    36   ar
    21     2     3   ar
    22     3     4   ar
    23     4     5   ar
    24     5    19    1
    25    19    20    1
    26    20    21    1
    27    21    22    1
    28    22    23    1
    29    23    24    1
    30     5     6   ar
    31     6     7   ar
    32     7     8   ar
    33     8     9   ar
    34    13    14   ar
    35    14    15   ar
    36    15    10   ar
    37     9     1   ar
    38    36    27   ar
    39     9     4   ar
    40    35    30   ar
    41    24    19    1
@<TRIPOS>MOLECULE
*****
 36 41 0 0 0
SMALL
GASTEIGER

@<TRIPOS>ATOM
      1 C           6.1465   -3.0543   24.2650 C.ar    1  UNL1        0.1020
      2 C           5.4680   -2.5268   25.4944 C.ar    1  UNL1        0.1007
      3 N           6.1757   -3.0886   26.6917 N.ar    1  UNL1       -0.2240
      4 C           7.2916   -3.9634   26.2023 C.ar    1  UNL1        0.1772
      5 C           8.3218   -4.7765   26.9285 C.ar    1  UNL1        0.0859
      6 C           9.3340   -5.5685   26.1551 C.ar    1  UNL1        0.0401
      7 C           9.3160   -5.5473   24.6553 C.ar    1  UNL1        0.1219
      8 N           8.2858   -4.7341   23.9290 N.ar    1  UNL1       -0.1621
      9 N           7.2736   -3.9422   24.7025 N.ar    1  UNL1       -0.2095
     10 C           5.0019   -2.1348   20.0112 C.ar    1  UNL1        0.0140
     11 C           6.0606   -1.3217   20.6955 C.ar    1  UNL1        0.0012
     12 C           6.4421   -1.6282   22.1135 C.ar    1  UNL1        0.0016
     13 C           5.7650   -2.7478   22.8471 C.ar    1  UNL1        0.0192
     14 C           4.7064   -3.5608   22.1628 C.ar    1  UNL1        0.0016
     15 C           4.3250   -3.2543   20.7449 C.ar    1  UNL1        0.0012
     16 O           3.4230   -0.9714   18.3073 O.co2   1  UNL1       -0.5446
     17 C           4.6205   -1.8283   18.5933 C.2     1  UNL1        0.0729
     18 O           5.4364   -2.3787   17.4614 O.co2   1  UNL1       -0.5446
     19 N           8.3398   -4.7977   28.4283 N.pl3   1  UNL1       -0.3003
     20 C           9.3445   -3.9741   29.1780 C.3     1  UNL1        0.1231
     21 C           9.3625   -3.9953   30.6778 C.3     1  UNL1        0.1636
     22 O           8.3757   -4.8402   31.4278 O.3     1  UNL1       -0.3501
     23 C           7.3710   -5.6638   30.6780 C.3     1  UNL1        0.1636
     24 C           7.3530   -5.6426   29.1783 C.3     1  UNL1        0.1231
     25 C           4.2888   -1.6001   25.5216 C.2     1  UNL1        0.0222
     26 C           3.8599   -0.9699   26.8134 C.2     1  UNL1        0.0207
     27 C           2.6807   -0.0432   26.8407 C.ar    1  UNL1        0.0813
     28 C           2.0390    0.3157   28.1482 C.ar    1  UNL1        0.0191
     29 C           0.8598    1.2423   28.1755 C.ar    1  UNL1        0.0030
     30 C           0.3223    1.8102   26.8954 C.ar    1  UNL1        0.0177
     31 C          -0.8569    2.7369   26.9227 C.ar    1  UNL1        0.0015
     32 C          -1.3944    3.3046   25.6426 C.ar    1  UNL1        0.0001
     33 C          -0.7526    2.9458   24.3352 C.ar    1  UNL1        0.0015
     34 C           0.4265    2.0191   24.3078 C.ar    1  UNL1        0.0191
     35 C           0.9640    1.4513   25.5879 C.ar    1  UNL1        0.0812
     36 N           2.1432    0.5246   25.5606 N.ar    1  UNL1       -0.2454
@<TRIPOS>UNITY_ATOM_ATTR
16 1
charge -1
@<TRIPOS>BOND
     1    16    17   ar
     2    17    18   ar
     3    17    10    1
     4    10    11   ar
     5    11    12   ar
     6    12    13   ar
     7    13     1    1
     8     1     2   ar
     9     2    25    1
    10    25    26    2
    11    26    27    1
    12    27    28   ar
    13    28    29   ar
    14    29    30   ar
    15    30    31   ar
    16    31    32   ar
    17    32    33   ar
    18    33    34   ar
    19    34    35   ar
    20    35    36   ar
    21     2     3   ar
    22     3     4   ar
    23     4     5   ar
    24     5    19    1
    25    19    20    1
    26    20    21    1
    27    21    22    1
    28    22    23    1
    29    23    24    1
    30     5     6   ar
    31     6     7   ar
    32     7     8   ar
    33     8     9   ar
    34    13    14   ar
    35    14    15   ar
    36    15    10   ar
    37     9     1   ar
    38    36    27   ar
    39     9     4   ar
    40    35    30   ar
    41    24    19    1
@<TRIPOS>MOLECULE
*****
 36 41 0 0 0
SMALL
GASTEIGER

@<TRIPOS>ATOM
      1 C           1.3737    1.8018   28.4212 C.ar    1  UNL1        0.1020
      2 C           2.3830    0.8065   27.9308 C.ar    1  UNL1        0.1007
      3 N           3.1855    0.3410   29.1095 N.ar    1  UNL1       -0.2240
      4 C           2.6722    1.0487   30.3283 C.ar    1  UNL1        0.1772
      5 C           3.0798    0.9877   31.7706 C.ar    1  UNL1        0.0859
      6 C           2.3676    1.8296   32.7875 C.ar    1  UNL1        0.0401
      7 C           1.2478    2.7324   32.3621 C.ar    1  UNL1        0.1219
      8 N           0.8402    2.7934   30.9198 N.ar    1  UNL1       -0.1621
      9 N           1.5524    1.9516   29.9029 N.ar    1  UNL1       -0.2095
     10 C          -1.6583    3.9600   25.8913 C.ar    1  UNL1        0.0140
     11 C          -2.0313    2.6818   26.5821 C.ar    1  UNL1        0.0012
     12 C          -1.0207    1.9624   27.4253 C.ar    1  UNL1        0.0016
     13 C           0.3630    2.5212   27.5779 C.ar    1  UNL1        0.0192
     14 C           0.7360    3.7994   26.8872 C.ar    1  UNL1        0.0016
     15 C          -0.2747    4.5187   26.0439 C.ar    1  UNL1        0.0012
     16 O          -3.0565    6.0895   25.3815 O.co2   1  UNL1       -0.5446
     17 C          -2.6689    4.6793   25.0481 C.2     1  UNL1        0.0729
     18 O          -3.2920    3.9885   23.8714 O.co2   1  UNL1       -0.5446
     19 N           4.1996    0.0849   32.1959 N.pl3   1  UNL1       -0.3003
     20 C           3.9143   -1.1086   33.0585 C.3     1  UNL1        0.1231
     21 C           5.0342   -2.0114   33.4839 C.3     1  UNL1        0.1636
     22 O           6.4392   -1.7207   33.0466 O.3     1  UNL1       -0.3501
     23 C           6.7245   -0.5272   32.1840 C.3     1  UNL1        0.1636
     24 C           5.6047    0.3756   31.7587 C.3     1  UNL1        0.1231
     25 C           2.5588    0.3557   26.5110 C.2     1  UNL1        0.0222
     26 C           3.5355   -0.7354   26.1861 C.2     1  UNL1        0.0207
     27 C           3.7114   -1.1862   24.7662 C.ar    1  UNL1        0.0813
     28 C           4.7449   -2.2201   24.4302 C.ar    1  UNL1        0.0191
     29 C           4.9208   -2.6710   23.0105 C.ar    1  UNL1        0.0030
     30 C           4.0632   -2.0879   21.9266 C.ar    1  UNL1        0.0177
     31 C           4.2391   -2.5388   20.5069 C.ar    1  UNL1        0.0015
     32 C           3.3815   -1.9557   19.4232 C.ar    1  UNL1        0.0001
     33 C           2.3480   -0.9219   19.7592 C.ar    1  UNL1        0.0015
     34 C           2.1721   -0.4710   21.1789 C.ar    1  UNL1        0.0191
     35 C           3.0297   -1.0540   22.2627 C.ar    1  UNL1        0.0812
     36 N           2.8538   -0.6032   23.6825 N.ar    1  UNL1       -0.2454
@<TRIPOS>UNITY_ATOM_ATTR
16 1
charge -1
@<TRIPOS>BOND
     1    16    17   ar
     2    17    18   ar
     3    17    10    1
     4    10    11   ar
     5    11    12   ar
     6    12    13   ar
     7    13     1    1
     8     1     2   ar
     9     2    25    1
    10    25    26    2
    11    26    27    1
    12    27    28   ar
    13    28    29   ar
    14    29    30   ar
    15    30    31   ar
    16    31    32   ar
    17    32    33   ar
    18    33    34   ar
    19    34    35   ar
    20    35    36   ar
    21     2     3   ar
    22     3     4   ar
    23     4     5   ar
    24     5    19    1
    25    19    20    1
    26    20    21    1
    27    21    22    1
    28    22    23    1
    29    23    24    1
    30     5     6   ar
    31     6     7   ar
    32     7     8   ar
    33     8     9   ar
    34    13    14   ar
    35    14    15   ar
    36    15    10   ar
    37     9     1   ar
    38    36    27   ar
    39     9     4   ar
    40    35    30   ar
    41    24    19    1
