@<TRIPOS>MOLECULE
*****
 28 31 0 0 0
SMALL
GASTEIGER

@<TRIPOS>ATOM
      1 C         -13.6322   -3.6423   20.8504 C.3     1  UNL1        0.0233
      2 C         -14.2607   -4.3013   19.6585 C.3     1  UNL1        0.0953
      3 C         -14.8163   -5.6897   19.7751 C.3     1  UNL1        0.1106
      4 N         -15.4448   -6.3486   18.5832 N.pl3   1  UNL1       -0.3024
      5 C         -15.5177   -5.6192   17.2745 C.3     1  UNL1        0.1124
      6 C         -14.9621   -4.2308   17.1579 C.3     1  UNL1        0.1149
      7 N         -14.3336   -3.5718   18.3498 N.pl3   1  UNL1       -0.2777
      8 C         -13.7780   -2.1834   18.2331 C.ar    1  UNL1        0.2035
      9 N         -14.6324   -1.0017   18.5844 N.ar    1  UNL1       -0.2133
     10 C         -14.0769    0.3867   18.4677 C.ar    1  UNL1        0.1065
     11 C         -12.6668    0.5935   17.9997 C.ar    1  UNL1        0.0815
     12 C         -11.8123   -0.5882   17.6484 C.ar    1  UNL1        0.2646
     13 O         -10.4023   -0.3815   17.1804 O.2     1  UNL1       -0.2668
     14 N         -12.3680   -1.9767   17.7651 N.ar    1  UNL1       -0.2667
     15 C         -11.5135   -3.1584   17.4138 C.3     1  UNL1        0.1363
     16 C         -14.9314    1.5684   18.8191 C.ar    1  UNL1        0.1024
     17 C         -16.1817    1.3767   19.6252 C.ar    1  UNL1        0.0414
     18 C         -17.0362    2.5584   19.9765 C.ar    1  UNL1        0.1023
     19 N         -16.6403    3.9319   19.5217 N.ar    1  UNL1       -0.2224
     20 C         -15.3900    4.1237   18.7155 C.ar    1  UNL1        0.1989
     21 N         -14.5355    2.9420   18.3642 N.ar    1  UNL1       -0.2224
     22 C         -16.0004   -7.7371   18.6999 C.ar    1  UNL1        0.0758
     23 C         -17.2350   -7.9848   19.5150 C.ar    1  UNL1        0.0168
     24 C         -17.7906   -9.3731   19.6317 C.ar    1  UNL1        0.0014
     25 C         -17.1116  -10.5139   18.9333 C.ar    1  UNL1        0.0024
     26 C         -15.8770  -10.2662   18.1183 C.ar    1  UNL1        0.0309
     27 C         -15.3214   -8.8778   18.0015 C.ar    1  UNL1        0.1533
     28 F         -14.0868   -8.6301   17.1864 F       1  UNL1       -0.2029
@<TRIPOS>BOND
     1     2     1    1
     2     2     3    1
     3     3     4    1
     4     4    22    1
     5    22    23   ar
     6    23    24   ar
     7    24    25   ar
     8    25    26   ar
     9    26    27   ar
    10    27    28    1
    11     4     5    1
    12     5     6    1
    13     6     7    1
    14     7     8    1
    15     8     9   ar
    16     9    10   ar
    17    10    16    1
    18    16    17   ar
    19    17    18   ar
    20    18    19   ar
    21    19    20   ar
    22    20    21   ar
    23    10    11   ar
    24    11    12   ar
    25    12    13    2
    26    12    14   ar
    27    14    15    1
    28     7     2    1
    29    14     8   ar
    30    27    22   ar
    31    21    16   ar
@<TRIPOS>MOLECULE
*****
 28 31 0 0 0
SMALL
GASTEIGER

@<TRIPOS>ATOM
      1 C           0.2717    4.9105   27.3933 C.3     1  UNL1        0.0233
      2 C           0.0701    3.5168   27.9099 C.3     1  UNL1        0.0953
      3 C           0.9954    2.9621   28.9520 C.3     1  UNL1        0.1106
      4 N           0.7938    1.5683   29.4686 N.pl3   1  UNL1       -0.3024
      5 C          -0.3330    0.7293   28.9430 C.3     1  UNL1        0.1124
      6 C          -1.2582    1.2840   27.9009 C.3     1  UNL1        0.1149
      7 N          -1.0567    2.6777   27.3843 N.pl3   1  UNL1       -0.2777
      8 C          -1.9820    3.2324   26.3421 C.ar    1  UNL1        0.2035
      9 N          -3.2579    3.9053   26.7536 N.ar    1  UNL1       -0.2133
     10 C          -4.1832    4.4600   25.7114 C.ar    1  UNL1        0.1065
     11 C          -3.8326    4.3418   24.2577 C.ar    1  UNL1        0.0815
     12 C          -2.5567    3.6690   23.8462 C.ar    1  UNL1        0.2646
     13 O          -2.2061    3.5508   22.3926 O.2     1  UNL1       -0.2668
     14 N          -1.6314    3.1143   24.8885 N.ar    1  UNL1       -0.2667
     15 C          -0.3555    2.4414   24.4770 C.3     1  UNL1        0.1363
     16 C          -5.4591    5.1328   26.1229 C.ar    1  UNL1        0.1024
     17 C          -6.5245    5.4079   25.1036 C.ar    1  UNL1        0.0414
     18 C          -7.8004    6.0808   25.5151 C.ar    1  UNL1        0.1023
     19 N          -8.0109    6.4786   26.9459 N.ar    1  UNL1       -0.2224
     20 C          -6.9455    6.2035   27.9654 C.ar    1  UNL1        0.1989
     21 N          -5.6696    5.5306   27.5539 N.ar    1  UNL1       -0.2224
     22 C           1.7192    1.0136   30.5108 C.ar    1  UNL1        0.0758
     23 C           1.8817    1.7220   31.8230 C.ar    1  UNL1        0.0168
     24 C           2.8069    1.1674   32.8652 C.ar    1  UNL1        0.0014
     25 C           3.5698   -0.0957   32.5953 C.ar    1  UNL1        0.0024
     26 C           3.4073   -0.8041   31.2831 C.ar    1  UNL1        0.0309
     27 C           2.4819   -0.2494   30.2409 C.ar    1  UNL1        0.1533
     28 F           2.3194   -0.9578   28.9287 F       1  UNL1       -0.2029
@<TRIPOS>BOND
     1     2     1    1
     2     2     3    1
     3     3     4    1
     4     4    22    1
     5    22    23   ar
     6    23    24   ar
     7    24    25   ar
     8    25    26   ar
     9    26    27   ar
    10    27    28    1
    11     4     5    1
    12     5     6    1
    13     6     7    1
    14     7     8    1
    15     8     9   ar
    16     9    10   ar
    17    10    16    1
    18    16    17   ar
    19    17    18   ar
    20    18    19   ar
    21    19    20   ar
    22    20    21   ar
    23    10    11   ar
    24    11    12   ar
    25    12    13    2
    26    12    14   ar
    27    14    15    1
    28     7     2    1
    29    14     8   ar
    30    27    22   ar
    31    21    16   ar
@<TRIPOS>MOLECULE
*****
 28 31 0 0 0
SMALL
GASTEIGER

@<TRIPOS>ATOM
      1 C           4.7138    1.8581   20.5919 C.3     1  UNL1        0.0233
      2 C           3.3185    1.3302   20.4355 C.3     1  UNL1        0.0953
      3 C           2.1481    2.2627   20.5373 C.3     1  UNL1        0.1106
      4 N           0.7527    1.7349   20.3809 N.pl3   1  UNL1       -0.3024
      5 C           0.5279    0.2745   20.1228 C.3     1  UNL1        0.1124
      6 C           1.6983   -0.6580   20.0210 C.3     1  UNL1        0.1149
      7 N           3.0937   -0.1301   20.1774 N.pl3   1  UNL1       -0.2777
      8 C           4.2641   -1.0628   20.0756 C.ar    1  UNL1        0.2035
      9 N           4.7459   -1.7972   21.2916 N.ar    1  UNL1       -0.2133
     10 C           5.9163   -2.7297   21.1898 C.ar    1  UNL1        0.1065
     11 C           6.6051   -2.9279   19.8721 C.ar    1  UNL1        0.0815
     12 C           6.1233   -2.1935   18.6561 C.ar    1  UNL1        0.2646
     13 O           6.8121   -2.3916   17.3384 O.2     1  UNL1       -0.2668
     14 N           4.9529   -1.2609   18.7579 N.ar    1  UNL1       -0.2667
     15 C           4.4711   -0.5265   17.5419 C.3     1  UNL1        0.1363
     16 C           6.3980   -3.4642   22.4058 C.ar    1  UNL1        0.1024
     17 C           5.9840   -3.0049   23.7724 C.ar    1  UNL1        0.0414
     18 C           6.4658   -3.7393   24.9883 C.ar    1  UNL1        0.1023
     19 N           7.3614   -4.9330   24.8377 N.ar    1  UNL1       -0.2224
     20 C           7.7754   -5.3924   23.4711 C.ar    1  UNL1        0.1989
     21 N           7.2937   -4.6580   22.2551 N.ar    1  UNL1       -0.2224
     22 C          -0.4177    2.6675   20.4827 C.ar    1  UNL1        0.0758
     23 C          -1.0308    2.9584   21.8205 C.ar    1  UNL1        0.0168
     24 C          -2.2012    3.8909   21.9223 C.ar    1  UNL1        0.0014
     25 C          -2.7587    4.5326   20.6863 C.ar    1  UNL1        0.0024
     26 C          -2.1456    4.2417   19.3486 C.ar    1  UNL1        0.0309
     27 C          -0.9751    3.3091   19.2468 C.ar    1  UNL1        0.1533
     28 F          -0.3621    3.0182   17.9090 F       1  UNL1       -0.2029
@<TRIPOS>BOND
     1     2     1    1
     2     2     3    1
     3     3     4    1
     4     4    22    1
     5    22    23   ar
     6    23    24   ar
     7    24    25   ar
     8    25    26   ar
     9    26    27   ar
    10    27    28    1
    11     4     5    1
    12     5     6    1
    13     6     7    1
    14     7     8    1
    15     8     9   ar
    16     9    10   ar
    17    10    16    1
    18    16    17   ar
    19    17    18   ar
    20    18    19   ar
    21    19    20   ar
    22    20    21   ar
    23    10    11   ar
    24    11    12   ar
    25    12    13    2
    26    12    14   ar
    27    14    15    1
    28     7     2    1
    29    14     8   ar
    30    27    22   ar
    31    21    16   ar
@<TRIPOS>MOLECULE
*****
 28 31 0 0 0
SMALL
GASTEIGER

@<TRIPOS>ATOM
      1 C           2.3505    3.3329   21.4319 C.3     1  UNL1        0.0233
      2 C           1.9885    1.9541   20.9649 C.3     1  UNL1        0.0953
      3 C           3.0644    0.9364   20.7267 C.3     1  UNL1        0.1106
      4 N           2.7025   -0.4423   20.2597 N.pl3   1  UNL1       -0.3024
      5 C           1.2647   -0.8034   20.0310 C.3     1  UNL1        0.1124
      6 C           0.1888    0.2143   20.2692 C.3     1  UNL1        0.1149
      7 N           0.5508    1.5930   20.7362 N.pl3   1  UNL1       -0.2777
      8 C          -0.5252    2.6107   20.9744 C.ar    1  UNL1        0.2035
      9 N          -1.2286    2.6626   22.2982 N.ar    1  UNL1       -0.2133
     10 C          -2.3045    3.6802   22.5365 C.ar    1  UNL1        0.1065
     11 C          -2.6770    4.6461   21.4510 C.ar    1  UNL1        0.0815
     12 C          -1.9736    4.5943   20.1271 C.ar    1  UNL1        0.2646
     13 O          -2.3461    5.5601   19.0416 O.2     1  UNL1       -0.2668
     14 N          -0.8977    3.5766   19.8889 N.ar    1  UNL1       -0.2667
     15 C          -0.1942    3.5247   18.5651 C.3     1  UNL1        0.1363
     16 C          -3.0080    3.7320   23.8603 C.ar    1  UNL1        0.1024
     17 C          -2.2169    3.6662   25.1331 C.ar    1  UNL1        0.0414
     18 C          -2.9204    3.7180   26.4569 C.ar    1  UNL1        0.1023
     19 N          -4.4149    3.8356   26.5080 N.ar    1  UNL1       -0.2224
     20 C          -5.2060    3.9014   25.2352 C.ar    1  UNL1        0.1989
     21 N          -4.5025    3.8496   23.9114 N.ar    1  UNL1       -0.2224
     22 C           3.7784   -1.4600   20.0214 C.ar    1  UNL1        0.0758
     23 C           4.3527   -2.2283   21.1747 C.ar    1  UNL1        0.0168
     24 C           5.4286   -3.2460   20.9365 C.ar    1  UNL1        0.0014
     25 C           5.9303   -3.4954   19.5450 C.ar    1  UNL1        0.0024
     26 C           5.3560   -2.7271   18.3918 C.ar    1  UNL1        0.0309
     27 C           4.2801   -1.7094   18.6300 C.ar    1  UNL1        0.1533
     28 F           3.7058   -0.9411   17.4768 F       1  UNL1       -0.2029
@<TRIPOS>BOND
     1     2     1    1
     2     2     3    1
     3     3     4    1
     4     4    22    1
     5    22    23   ar
     6    23    24   ar
     7    24    25   ar
     8    25    26   ar
     9    26    27   ar
    10    27    28    1
    11     4     5    1
    12     5     6    1
    13     6     7    1
    14     7     8    1
    15     8     9   ar
    16     9    10   ar
    17    10    16    1
    18    16    17   ar
    19    17    18   ar
    20    18    19   ar
    21    19    20   ar
    22    20    21   ar
    23    10    11   ar
    24    11    12   ar
    25    12    13    2
    26    12    14   ar
    27    14    15    1
    28     7     2    1
    29    14     8   ar
    30    27    22   ar
    31    21    16   ar
@<TRIPOS>MOLECULE
*****
 28 31 0 0 0
SMALL
GASTEIGER

@<TRIPOS>ATOM
      1 C           3.5870   -3.3089   19.6500 C.3     1  UNL1        0.0233
      2 C           3.6709   -1.8587   20.0242 C.3     1  UNL1        0.0953
      3 C           2.4995   -0.9532   19.7838 C.3     1  UNL1        0.1106
      4 N           2.5834    0.4970   20.1580 N.pl3   1  UNL1       -0.3024
      5 C           3.8387    1.0416   20.7725 C.3     1  UNL1        0.1124
      6 C           5.0100    0.1360   21.0129 C.3     1  UNL1        0.1149
      7 N           4.9262   -1.3141   20.6387 N.pl3   1  UNL1       -0.2777
      8 C           6.0976   -2.2197   20.8791 C.ar    1  UNL1        0.2035
      9 N           6.1357   -3.0884   22.1013 N.ar    1  UNL1       -0.2133
     10 C           7.3071   -3.9939   22.3417 C.ar    1  UNL1        0.1065
     11 C           8.4405   -4.0308   21.3598 C.ar    1  UNL1        0.0815
     12 C           8.4024   -3.1621   20.1376 C.ar    1  UNL1        0.2646
     13 O           9.5358   -3.1990   19.1557 O.2     1  UNL1       -0.2668
     14 N           7.2310   -2.2565   19.8972 N.ar    1  UNL1       -0.2667
     15 C           7.1929   -1.3879   18.6749 C.3     1  UNL1        0.1363
     16 C           7.3451   -4.8625   23.5640 C.ar    1  UNL1        0.1024
     17 C           6.7969   -4.3527   24.8638 C.ar    1  UNL1        0.0414
     18 C           6.8349   -5.2214   26.0861 C.ar    1  UNL1        0.1023
     19 N           7.4212   -6.5999   26.0086 N.ar    1  UNL1       -0.2224
     20 C           7.9695   -7.1098   24.7087 C.ar    1  UNL1        0.1989
     21 N           7.9314   -6.2411   23.4865 N.ar    1  UNL1       -0.2224
     22 C           1.4119    1.4025   19.9177 C.ar    1  UNL1        0.0758
     23 C           1.2842    2.1337   18.6141 C.ar    1  UNL1        0.0168
     24 C           0.1129    3.0392   18.3737 C.ar    1  UNL1        0.0014
     25 C          -0.9309    3.2136   19.4369 C.ar    1  UNL1        0.0024
     26 C          -0.8032    2.4825   20.7404 C.ar    1  UNL1        0.0309
     27 C           0.3682    1.5769   20.9808 C.ar    1  UNL1        0.1533
     28 F           0.4959    0.8458   22.2843 F       1  UNL1       -0.2029
@<TRIPOS>BOND
     1     2     1    1
     2     2     3    1
     3     3     4    1
     4     4    22    1
     5    22    23   ar
     6    23    24   ar
     7    24    25   ar
     8    25    26   ar
     9    26    27   ar
    10    27    28    1
    11     4     5    1
    12     5     6    1
    13     6     7    1
    14     7     8    1
    15     8     9   ar
    16     9    10   ar
    17    10    16    1
    18    16    17   ar
    19    17    18   ar
    20    18    19   ar
    21    19    20   ar
    22    20    21   ar
    23    10    11   ar
    24    11    12   ar
    25    12    13    2
    26    12    14   ar
    27    14    15    1
    28     7     2    1
    29    14     8   ar
    30    27    22   ar
    31    21    16   ar
@<TRIPOS>MOLECULE
*****
 28 31 0 0 0
SMALL
GASTEIGER

@<TRIPOS>ATOM
      1 C          -0.7705   -0.0510   29.3981 C.3     1  UNL1        0.0233
      2 C          -0.2245    1.0612   28.5526 C.3     1  UNL1        0.0953
      3 C          -0.9313    1.4609   27.2914 C.3     1  UNL1        0.1106
      4 N          -0.3853    2.5730   26.4458 N.pl3   1  UNL1       -0.3024
      5 C           0.8675    3.2855   26.8614 C.3     1  UNL1        0.1124
      6 C           1.5743    2.8858   28.1226 C.3     1  UNL1        0.1149
      7 N           1.0283    1.7736   28.9682 N.pl3   1  UNL1       -0.2777
      8 C           1.7352    1.3739   30.2294 C.ar    1  UNL1        0.2035
      9 N           2.7715    0.2899   30.1970 N.ar    1  UNL1       -0.2133
     10 C           3.4783   -0.1098   31.4582 C.ar    1  UNL1        0.1065
     11 C           3.1490    0.5745   32.7518 C.ar    1  UNL1        0.0815
     12 C           2.1127    1.6585   32.7841 C.ar    1  UNL1        0.2646
     13 O           1.7834    2.3429   34.0776 O.2     1  UNL1       -0.2668
     14 N           1.4058    2.0582   31.5229 N.ar    1  UNL1       -0.2667
     15 C           0.3696    3.1423   31.5552 C.3     1  UNL1        0.1363
     16 C           4.5146   -1.1939   31.4258 C.ar    1  UNL1        0.1024
     17 C           4.6936   -2.0959   32.6108 C.ar    1  UNL1        0.0414
     18 C           5.7299   -3.1799   32.5785 C.ar    1  UNL1        0.1023
     19 N           6.5871   -3.3619   31.3611 N.ar    1  UNL1       -0.2224
     20 C           6.4081   -2.4599   30.1760 C.ar    1  UNL1        0.1989
     21 N           5.3718   -1.3759   30.2084 N.ar    1  UNL1       -0.2224
     22 C          -1.0922    2.9727   25.1846 C.ar    1  UNL1        0.0758
     23 C          -0.3774    2.8974   23.8681 C.ar    1  UNL1        0.0168
     24 C          -1.0842    3.2970   22.6069 C.ar    1  UNL1        0.0014
     25 C          -2.5059    3.7721   22.6622 C.ar    1  UNL1        0.0024
     26 C          -3.2208    3.8475   23.9787 C.ar    1  UNL1        0.0309
     27 C          -2.5139    3.4478   25.2400 C.ar    1  UNL1        0.1533
     28 F          -3.2288    3.5231   26.5565 F       1  UNL1       -0.2029
@<TRIPOS>BOND
     1     2     1    1
     2     2     3    1
     3     3     4    1
     4     4    22    1
     5    22    23   ar
     6    23    24   ar
     7    24    25   ar
     8    25    26   ar
     9    26    27   ar
    10    27    28    1
    11     4     5    1
    12     5     6    1
    13     6     7    1
    14     7     8    1
    15     8     9   ar
    16     9    10   ar
    17    10    16    1
    18    16    17   ar
    19    17    18   ar
    20    18    19   ar
    21    19    20   ar
    22    20    21   ar
    23    10    11   ar
    24    11    12   ar
    25    12    13    2
    26    12    14   ar
    27    14    15    1
    28     7     2    1
    29    14     8   ar
    30    27    22   ar
    31    21    16   ar
@<TRIPOS>MOLECULE
*****
 28 31 0 0 0
SMALL
GASTEIGER

@<TRIPOS>ATOM
      1 C           2.9108    0.6010   32.0858 C.3     1  UNL1        0.0233
      2 C           4.2137   -0.0934   32.3505 C.3     1  UNL1        0.0953
      3 C           4.6689   -1.2028   31.4494 C.3     1  UNL1        0.1106
      4 N           5.9719   -1.8972   31.7141 N.pl3   1  UNL1       -0.3024
      5 C           6.8197   -1.4823   32.8798 C.3     1  UNL1        0.1124
      6 C           6.3645   -0.3729   33.7809 C.3     1  UNL1        0.1149
      7 N           5.0615    0.3215   33.5163 N.pl3   1  UNL1       -0.2777
      8 C           4.6063    1.4310   34.4174 C.ar    1  UNL1        0.2035
      9 N           3.7518    1.1245   35.6115 N.ar    1  UNL1       -0.2133
     10 C           3.2966    2.2338   36.5127 C.ar    1  UNL1        0.1065
     11 C           3.6959    3.6497   36.2198 C.ar    1  UNL1        0.0815
     12 C           4.5505    3.9562   35.0257 C.ar    1  UNL1        0.2646
     13 O           4.9499    5.3721   34.7328 O.2     1  UNL1       -0.2668
     14 N           5.0057    2.8468   34.1245 N.ar    1  UNL1       -0.2667
     15 C           5.8602    3.1533   32.9305 C.3     1  UNL1        0.1363
     16 C           2.4420    1.9273   37.7067 C.ar    1  UNL1        0.1024
     17 C           2.6818    0.6767   38.4995 C.ar    1  UNL1        0.0414
     18 C           1.8272    0.3702   39.6936 C.ar    1  UNL1        0.1023
     19 N           0.7329    1.3143   40.0949 N.ar    1  UNL1       -0.2224
     20 C           0.4931    2.5650   39.3021 C.ar    1  UNL1        0.1989
     21 N           1.3476    2.8715   38.1080 N.ar    1  UNL1       -0.2224
     22 C           6.4271   -3.0067   30.8129 C.ar    1  UNL1        0.0758
     23 C           6.7106   -2.7293   29.3663 C.ar    1  UNL1        0.0168
     24 C           7.1658   -3.8387   28.4651 C.ar    1  UNL1        0.0014
     25 C           7.3374   -5.2255   29.0106 C.ar    1  UNL1        0.0024
     26 C           7.0539   -5.5028   30.4572 C.ar    1  UNL1        0.0309
     27 C           6.5987   -4.3934   31.3584 C.ar    1  UNL1        0.1533
     28 F           6.3152   -4.6707   32.8050 F       1  UNL1       -0.2029
@<TRIPOS>BOND
     1     2     1    1
     2     2     3    1
     3     3     4    1
     4     4    22    1
     5    22    23   ar
     6    23    24   ar
     7    24    25   ar
     8    25    26   ar
     9    26    27   ar
    10    27    28    1
    11     4     5    1
    12     5     6    1
    13     6     7    1
    14     7     8    1
    15     8     9   ar
    16     9    10   ar
    17    10    16    1
    18    16    17   ar
    19    17    18   ar
    20    18    19   ar
    21    19    20   ar
    22    20    21   ar
    23    10    11   ar
    24    11    12   ar
    25    12    13    2
    26    12    14   ar
    27    14    15    1
    28     7     2    1
    29    14     8   ar
    30    27    22   ar
    31    21    16   ar
@<TRIPOS>MOLECULE
*****
 28 31 0 0 0
SMALL
GASTEIGER

@<TRIPOS>ATOM
      1 C           6.5083    0.0592   21.2942 C.3     1  UNL1        0.0233
      2 C           5.9982   -1.2528   21.8123 C.3     1  UNL1        0.0953
      3 C           6.7264   -1.9564   22.9190 C.3     1  UNL1        0.1106
      4 N           6.2162   -3.2684   23.4371 N.pl3   1  UNL1       -0.3024
      5 C           4.9780   -3.8768   22.8485 C.3     1  UNL1        0.1124
      6 C           4.2498   -3.1732   21.7419 C.3     1  UNL1        0.1149
      7 N           4.7599   -1.8612   21.2238 N.pl3   1  UNL1       -0.2777
      8 C           4.0317   -1.1577   20.1171 C.ar    1  UNL1        0.2035
      9 N           2.9388   -0.1822   20.4398 N.ar    1  UNL1       -0.2133
     10 C           2.2106    0.5213   19.3332 C.ar    1  UNL1        0.1065
     11 C           2.5752    0.2495   17.9037 C.ar    1  UNL1        0.0815
     12 C           3.6681   -0.7259   17.5810 C.ar    1  UNL1        0.2646
     13 O           4.0327   -0.9978   16.1517 O.2     1  UNL1       -0.2668
     14 N           4.3963   -1.4295   18.6877 N.ar    1  UNL1       -0.2667
     15 C           5.4892   -2.4050   18.3650 C.3     1  UNL1        0.1363
     16 C           1.1177    1.4968   19.6559 C.ar    1  UNL1        0.1024
     17 C           0.5789    2.4002   18.5866 C.ar    1  UNL1        0.0414
     18 C          -0.5140    3.3757   18.9094 C.ar    1  UNL1        0.1023
     19 N          -1.0680    3.4477   20.3014 N.ar    1  UNL1       -0.2224
     20 C          -0.5293    2.5442   21.3708 C.ar    1  UNL1        0.1989
     21 N           0.5636    1.5687   21.0480 N.ar    1  UNL1       -0.2224
     22 C           6.9445   -3.9720   24.5438 C.ar    1  UNL1        0.0758
     23 C           7.7550   -5.1987   24.2470 C.ar    1  UNL1        0.0168
     24 C           8.4832   -5.9023   25.3536 C.ar    1  UNL1        0.0014
     25 C           8.4009   -5.3791   26.7571 C.ar    1  UNL1        0.0024
     26 C           7.5904   -4.1524   27.0538 C.ar    1  UNL1        0.0309
     27 C           6.8621   -3.4488   25.9471 C.ar    1  UNL1        0.1533
     28 F           6.0516   -2.2220   26.2439 F       1  UNL1       -0.2029
@<TRIPOS>BOND
     1     2     1    1
     2     2     3    1
     3     3     4    1
     4     4    22    1
     5    22    23   ar
     6    23    24   ar
     7    24    25   ar
     8    25    26   ar
     9    26    27   ar
    10    27    28    1
    11     4     5    1
    12     5     6    1
    13     6     7    1
    14     7     8    1
    15     8     9   ar
    16     9    10   ar
    17    10    16    1
    18    16    17   ar
    19    17    18   ar
    20    18    19   ar
    21    19    20   ar
    22    20    21   ar
    23    10    11   ar
    24    11    12   ar
    25    12    13    2
    26    12    14   ar
    27    14    15    1
    28     7     2    1
    29    14     8   ar
    30    27    22   ar
    31    21    16   ar
@<TRIPOS>MOLECULE
*****
 28 31 0 0 0
SMALL
GASTEIGER

@<TRIPOS>ATOM
      1 C           2.7510    3.6183   29.0976 C.3     1  UNL1        0.0233
      2 C           1.5141    2.8556   28.7255 C.3     1  UNL1        0.0953
      3 C           0.6824    3.2988   27.5586 C.3     1  UNL1        0.1106
      4 N          -0.5545    2.5362   27.1864 N.pl3   1  UNL1       -0.3024
      5 C          -0.9597    1.3304   27.9813 C.3     1  UNL1        0.1124
      6 C          -0.1280    0.8872   29.1482 C.3     1  UNL1        0.1149
      7 N           1.1089    1.6498   29.5203 N.pl3   1  UNL1       -0.2777
      8 C           1.9406    1.2066   30.6874 C.ar    1  UNL1        0.2035
      9 N           2.9445    0.1050   30.5176 N.ar    1  UNL1       -0.2133
     10 C           3.7762   -0.3382   31.6845 C.ar    1  UNL1        0.1065
     11 C           3.6040    0.3201   33.0213 C.ar    1  UNL1        0.0815
     12 C           2.6002    1.4217   33.1911 C.ar    1  UNL1        0.2646
     13 O           2.4280    2.0800   34.5279 O.2     1  UNL1       -0.2668
     14 N           1.7684    1.8649   32.0241 N.ar    1  UNL1       -0.2667
     15 C           0.7646    2.9665   32.1939 C.3     1  UNL1        0.1363
     16 C           4.7800   -1.4398   31.5147 C.ar    1  UNL1        0.1024
     17 C           5.0618   -2.3792   32.6496 C.ar    1  UNL1        0.0414
     18 C           6.0656   -3.4808   32.4798 C.ar    1  UNL1        0.1023
     19 N           6.7877   -3.6429   31.1751 N.ar    1  UNL1       -0.2224
     20 C           6.5060   -2.7034   30.0401 C.ar    1  UNL1        0.1989
     21 N           5.5021   -1.6018   30.2099 N.ar    1  UNL1       -0.2224
     22 C          -1.3862    2.9794   26.0194 C.ar    1  UNL1        0.0758
     23 C          -2.7538    3.5519   26.2475 C.ar    1  UNL1        0.0168
     24 C          -3.5855    3.9951   25.0805 C.ar    1  UNL1        0.0014
     25 C          -3.0496    3.8658   23.6854 C.ar    1  UNL1        0.0024
     26 C          -1.6821    3.2934   23.4574 C.ar    1  UNL1        0.0309
     27 C          -0.8504    2.8501   24.6244 C.ar    1  UNL1        0.1533
     28 F           0.5172    2.2776   24.3963 F       1  UNL1       -0.2029
@<TRIPOS>BOND
     1     2     1    1
     2     2     3    1
     3     3     4    1
     4     4    22    1
     5    22    23   ar
     6    23    24   ar
     7    24    25   ar
     8    25    26   ar
     9    26    27   ar
    10    27    28    1
    11     4     5    1
    12     5     6    1
    13     6     7    1
    14     7     8    1
    15     8     9   ar
    16     9    10   ar
    17    10    16    1
    18    16    17   ar
    19    17    18   ar
    20    18    19   ar
    21    19    20   ar
    22    20    21   ar
    23    10    11   ar
    24    11    12   ar
    25    12    13    2
    26    12    14   ar
    27    14    15    1
    28     7     2    1
    29    14     8   ar
    30    27    22   ar
    31    21    16   ar
