@<TRIPOS>MOLECULE
*****
 42 46 0 0 0
SMALL
GASTEIGER

@<TRIPOS>ATOM
      1 N           6.8078   -5.1337   31.9085 N.am    1  UNL1       -0.2902
      2 C           6.2877   -3.7318   32.0267 C.2     1  UNL1        0.3044
      3 O           6.9116   -2.6301   31.2224 O.2     1  UNL1       -0.2525
      4 N           5.1437   -3.4315   32.9493 N.am    1  UNL1       -0.2683
      5 H           6.3983   -5.8568   32.4364 H       1  UNL1        0.1509
      6 H           4.7342   -4.1546   33.4772 H       1  UNL1        0.1564
      7 C           4.6236   -2.0296   33.0675 C.ar    1  UNL1        0.0517
      8 C           4.9188   -1.2212   34.2961 C.ar    1  UNL1        0.0167
      9 C           4.3988    0.1808   34.4143 C.ar    1  UNL1        0.0251
     10 C           3.5835    0.7744   33.3040 C.ar    1  UNL1        0.0041
     11 C           3.2882   -0.0339   32.0754 C.ar    1  UNL1        0.0251
     12 C           3.8083   -1.4359   31.9571 C.ar    1  UNL1        0.0167
     13 C           4.6940    0.9891   35.6429 C.ar    1  UNL1        0.1108
     14 N           5.2891    2.3658   35.6706 N.ar    1  UNL1       -0.2368
     15 C           5.4089    2.7902   37.1043 C.ar    1  UNL1        0.1064
     16 C           4.8878    1.6759   37.9628 C.ar    1  UNL1        0.0575
     17 S           4.4460    0.5627   37.0595 S.2     1  UNL1       -0.0659
     18 C           2.4729    0.5598   30.9651 C.ar    1  UNL1        0.1108
     19 N           1.3520   -0.1184   30.2345 N.ar    1  UNL1       -0.2368
     20 C           0.8217    0.8385   29.2082 C.ar    1  UNL1        0.1064
     21 C           1.6149    2.1080   29.3045 C.ar    1  UNL1        0.0575
     22 S           2.6354    1.9357   30.3903 S.2     1  UNL1       -0.0659
     23 C           9.3473   -5.0391   31.3686 C.3     1  UNL1        0.0214
     24 C           7.9518   -5.4340   30.9860 C.3     1  UNL1        0.0770
     25 C           7.7002   -6.1292   29.6808 C.3     1  UNL1        0.0661
     26 C           7.1418   -5.3631   28.5184 C.3     1  UNL1        0.1738
     27 O           6.2809   -4.1584   28.7581 O.3     1  UNL1       -0.3697
     28 H           6.0052   -3.7834   27.9071 H       1  UNL1        0.2119
     29 N           7.4443   -5.8017   27.1162 N.3     1  UNL1       -0.2511
     30 C           7.6193   -7.2591   26.8074 C.3     1  UNL1        0.0742
     31 C           7.9218   -7.6976   25.4053 C.3     1  UNL1        0.0175
     32 C           8.0493   -6.6787   24.3118 C.3     1  UNL1        0.0031
     33 C           7.8742   -5.2213   24.6205 C.3     1  UNL1        0.0205
     34 C           7.5717   -4.7828   26.0227 C.3     1  UNL1        0.0745
     35 C           8.0017   -4.2025   23.5270 C.3     1  UNL1        0.0277
     36 C           6.8594   -3.9679   22.5836 C.ar    1  UNL1       -0.0220
     37 C           7.0838   -4.0376   21.1021 C.ar    1  UNL1       -0.0020
     38 C           5.9415   -3.8030   20.1587 C.ar    1  UNL1        0.0293
     39 C           4.5748   -3.4988   20.6967 C.ar    1  UNL1        0.1401
     40 F           3.4324   -3.2642   19.7531 F       1  UNL1       -0.2042
     41 C           4.3503   -3.4291   22.1781 C.ar    1  UNL1        0.0293
     42 C           5.4926   -3.6637   23.1216 C.ar    1  UNL1       -0.0020
@<TRIPOS>BOND
     1    24    23    1
     2    24    25    1
     3    25    26    1
     4    26    27    1
     5    26    29    1
     6    29    30    1
     7    30    31    1
     8    31    32    1
     9    32    33    1
    10    33    35    1
    11    35    36    1
    12    36    37   ar
    13    37    38   ar
    14    38    39   ar
    15    39    40    1
    16    39    41   ar
    17    41    42   ar
    18    33    34    1
    19    24     1    1
    20     1     2   am
    21     2     3    2
    22     2     4   am
    23     4     7    1
    24     7     8   ar
    25     8     9   ar
    26     9    13    1
    27    13    14   ar
    28    14    15   ar
    29    15    16   ar
    30    16    17   ar
    31     9    10   ar
    32    10    11   ar
    33    11    18    1
    34    18    19   ar
    35    19    20   ar
    36    20    21   ar
    37    21    22   ar
    38    11    12   ar
    39    34    29    1
    40    12     7   ar
    41    42    36   ar
    42    17    13   ar
    43    22    18   ar
    44    27    28    1
    45     1     5    1
    46     4     6    1
@<TRIPOS>MOLECULE
*****
 42 46 0 0 0
SMALL
GASTEIGER

@<TRIPOS>ATOM
      1 N           6.9588   -5.1894   31.8669 N.am    1  UNL1       -0.2902
      2 C           6.4011   -3.8026   31.9927 C.2     1  UNL1        0.3044
      3 O           6.9927   -2.6809   31.1917 O.2     1  UNL1       -0.2525
      4 N           5.2519   -3.5377   32.9195 N.am    1  UNL1       -0.2683
      5 H           6.5706   -5.9257   32.3926 H       1  UNL1        0.1509
      6 H           4.8636   -4.2740   33.4452 H       1  UNL1        0.1564
      7 C           4.6942   -2.1509   33.0454 C.ar    1  UNL1        0.0517
      8 C           3.8848   -1.5637   31.9273 C.ar    1  UNL1        0.0167
      9 C           3.3271   -0.1770   32.0531 C.ar    1  UNL1        0.0251
     10 C           3.5788    0.6226   33.2970 C.ar    1  UNL1        0.0041
     11 C           4.3881    0.0354   34.4151 C.ar    1  UNL1        0.0251
     12 C           4.9459   -1.3514   34.2893 C.ar    1  UNL1        0.0167
     13 C           2.5177    0.4102   30.9350 C.ar    1  UNL1        0.1108
     14 N           1.5596   -0.3355   30.0541 N.ar    1  UNL1       -0.2368
     15 C           0.9741    0.6395   29.0761 C.ar    1  UNL1        0.1064
     16 C           1.5703    1.9880   29.3527 C.ar    1  UNL1        0.0575
     17 S           2.5243    1.8462   30.5015 S.2     1  UNL1       -0.0659
     18 C           4.6398    0.8350   35.6590 C.ar    1  UNL1        0.1108
     19 N           5.7918    0.6576   36.6032 N.ar    1  UNL1       -0.2368
     20 C           5.6476    1.6653   37.7049 C.ar    1  UNL1        0.1064
     21 C           4.4065    2.4656   37.4416 C.ar    1  UNL1        0.0575
     22 S           3.7837    1.9524   36.1772 S.2     1  UNL1       -0.0659
     23 C           9.4898   -5.0036   31.3107 C.3     1  UNL1        0.0214
     24 C           8.1081   -5.4543   30.9400 C.3     1  UNL1        0.0770
     25 C           7.8755   -6.1701   29.6425 C.3     1  UNL1        0.0661
     26 C           7.1765   -5.4705   28.5148 C.3     1  UNL1        0.1738
     27 O           6.1880   -4.3805   28.8062 O.3     1  UNL1       -0.3697
     28 H           5.8307   -4.0367   27.9725 H       1  UNL1        0.2119
     29 N           7.4658   -5.8608   27.0956 N.3     1  UNL1       -0.2511
     30 C           7.6478   -7.3059   26.7374 C.3     1  UNL1        0.0742
     31 C           7.9372   -7.6962   25.3183 C.3     1  UNL1        0.0175
     32 C           8.0446   -6.6412   24.2573 C.3     1  UNL1        0.0031
     33 C           7.8626   -5.1961   24.6155 C.3     1  UNL1        0.0205
     34 C           7.5732   -4.8058   26.0346 C.3     1  UNL1        0.0745
     35 C           7.9700   -4.1411   23.5546 C.3     1  UNL1        0.0277
     36 C           6.8565   -3.9545   22.5670 C.ar    1  UNL1       -0.0220
     37 C           5.4759   -3.6187   23.0479 C.ar    1  UNL1       -0.0020
     38 C           4.3624   -3.4321   22.0604 C.ar    1  UNL1        0.0293
     39 C           4.6295   -3.5813   20.5919 C.ar    1  UNL1        0.1401
     40 F           3.5159   -3.3947   19.6043 F       1  UNL1       -0.2042
     41 C           6.0100   -3.9172   20.1110 C.ar    1  UNL1        0.0293
     42 C           7.1236   -4.1038   21.0986 C.ar    1  UNL1       -0.0020
@<TRIPOS>BOND
     1    24    23    1
     2    24    25    1
     3    25    26    1
     4    26    27    1
     5    26    29    1
     6    29    30    1
     7    30    31    1
     8    31    32    1
     9    32    33    1
    10    33    35    1
    11    35    36    1
    12    36    37   ar
    13    37    38   ar
    14    38    39   ar
    15    39    40    1
    16    39    41   ar
    17    41    42   ar
    18    33    34    1
    19    24     1    1
    20     1     2   am
    21     2     3    2
    22     2     4   am
    23     4     7    1
    24     7     8   ar
    25     8     9   ar
    26     9    13    1
    27    13    14   ar
    28    14    15   ar
    29    15    16   ar
    30    16    17   ar
    31     9    10   ar
    32    10    11   ar
    33    11    18    1
    34    18    19   ar
    35    19    20   ar
    36    20    21   ar
    37    21    22   ar
    38    11    12   ar
    39    34    29    1
    40    12     7   ar
    41    42    36   ar
    42    17    13   ar
    43    22    18   ar
    44    27    28    1
    45     1     5    1
    46     4     6    1
@<TRIPOS>MOLECULE
*****
 42 46 0 0 0
SMALL
GASTEIGER

@<TRIPOS>ATOM
      1 N           2.3406   -0.1959   19.8559 N.am    1  UNL1       -0.2902
      2 C           3.2036   -0.3848   21.0681 C.2     1  UNL1        0.3044
      3 O           4.4400    0.4458   21.2453 O.2     1  UNL1       -0.2525
      4 N           2.8303   -1.4044   22.1031 N.am    1  UNL1       -0.2683
      5 H           1.5291   -0.7411   19.7396 H       1  UNL1        0.1509
      6 H           2.0188   -1.9496   21.9867 H       1  UNL1        0.1564
      7 C           3.6934   -1.5933   23.3152 C.ar    1  UNL1        0.0517
      8 C           3.5327   -0.6863   24.4991 C.ar    1  UNL1        0.0167
      9 C           4.3957   -0.8752   25.7113 C.ar    1  UNL1        0.0251
     10 C           5.4195   -1.9711   25.7396 C.ar    1  UNL1        0.0041
     11 C           5.5803   -2.8781   24.5558 C.ar    1  UNL1        0.0251
     12 C           4.7172   -2.6892   23.3436 C.ar    1  UNL1        0.0167
     13 C           4.2350    0.0318   26.8951 C.ar    1  UNL1        0.1108
     14 N           2.9825    0.2185   27.6992 N.ar    1  UNL1       -0.2368
     15 C           3.2719    1.2135   28.7838 C.ar    1  UNL1        0.1064
     16 C           4.7032    1.6418   28.6500 C.ar    1  UNL1        0.0575
     17 S           5.2985    0.9114   27.4827 S.2     1  UNL1       -0.0659
     18 C           6.6041   -3.9740   24.5842 C.ar    1  UNL1        0.1108
     19 N           6.9749   -4.8641   23.4351 N.ar    1  UNL1       -0.2368
     20 C           8.0368   -5.8125   23.9074 C.ar    1  UNL1        0.1064
     21 C           8.3223   -5.5085   25.3483 C.ar    1  UNL1        0.0575
     22 S           7.4368   -4.3723   25.7665 S.2     1  UNL1       -0.0659
     23 C           2.0192    2.1528   18.7928 C.3     1  UNL1        0.0214
     24 C           2.7138    0.8236   18.8209 C.3     1  UNL1        0.0770
     25 C           3.7818    0.5140   17.8141 C.3     1  UNL1        0.0661
     26 C           4.0153   -0.9027   17.3800 C.3     1  UNL1        0.1738
     27 O           3.5855   -1.3491   16.0140 O.3     1  UNL1       -0.3697
     28 H           3.8085   -2.2856   15.8948 H       1  UNL1        0.2119
     29 N           4.6786   -1.8731   18.3120 N.3     1  UNL1       -0.2511
     30 C           3.9588   -3.1199   18.7333 C.3     1  UNL1        0.0742
     31 C           4.6221   -4.0901   19.6652 C.3     1  UNL1        0.0175
     32 C           6.0051   -3.8137   20.1759 C.3     1  UNL1        0.0031
     33 C           6.7249   -2.5669   19.7546 C.3     1  UNL1        0.0205
     34 C           6.0616   -1.5966   18.8227 C.3     1  UNL1        0.0745
     35 C           8.1079   -2.2905   20.2653 C.3     1  UNL1        0.0277
     36 C           8.3007   -1.7327   21.6443 C.ar    1  UNL1       -0.0220
     37 C           9.3289   -2.3307   22.5582 C.ar    1  UNL1       -0.0020
     38 C           9.5217   -1.7729   23.9372 C.ar    1  UNL1        0.0293
     39 C           8.6863   -0.6172   24.4023 C.ar    1  UNL1        0.1401
     40 F           8.8791   -0.0594   25.7814 F       1  UNL1       -0.2042
     41 C           7.6581   -0.0192   23.4885 C.ar    1  UNL1        0.0293
     42 C           7.4653   -0.5770   22.1094 C.ar    1  UNL1       -0.0020
@<TRIPOS>BOND
     1    24    23    1
     2    24    25    1
     3    25    26    1
     4    26    27    1
     5    26    29    1
     6    29    30    1
     7    30    31    1
     8    31    32    1
     9    32    33    1
    10    33    35    1
    11    35    36    1
    12    36    37   ar
    13    37    38   ar
    14    38    39   ar
    15    39    40    1
    16    39    41   ar
    17    41    42   ar
    18    33    34    1
    19    24     1    1
    20     1     2   am
    21     2     3    2
    22     2     4   am
    23     4     7    1
    24     7     8   ar
    25     8     9   ar
    26     9    13    1
    27    13    14   ar
    28    14    15   ar
    29    15    16   ar
    30    16    17   ar
    31     9    10   ar
    32    10    11   ar
    33    11    18    1
    34    18    19   ar
    35    19    20   ar
    36    20    21   ar
    37    21    22   ar
    38    11    12   ar
    39    34    29    1
    40    12     7   ar
    41    42    36   ar
    42    17    13   ar
    43    22    18   ar
    44    27    28    1
    45     1     5    1
    46     4     6    1
@<TRIPOS>MOLECULE
*****
 42 46 0 0 0
SMALL
GASTEIGER

@<TRIPOS>ATOM
      1 N          -0.2839    0.9575   26.1534 N.am    1  UNL1       -0.2902
      2 C           0.5488    1.1595   27.3846 C.2     1  UNL1        0.3044
      3 O           1.7238    2.0912   27.3507 O.2     1  UNL1       -0.2525
      4 N           0.2065    0.4297   28.6496 N.am    1  UNL1       -0.2683
      5 H          -1.0551    0.3459   26.1756 H       1  UNL1        0.1509
      6 H          -0.5647   -0.1818   28.6718 H       1  UNL1        0.1564
      7 C           1.0391    0.6318   29.8808 C.ar    1  UNL1        0.0517
      8 C           2.1388   -0.3341   30.2093 C.ar    1  UNL1        0.0167
      9 C           2.9715   -0.1321   31.4405 C.ar    1  UNL1        0.0251
     10 C           2.7045    1.0358   32.3432 C.ar    1  UNL1        0.0041
     11 C           1.6049    2.0016   32.0147 C.ar    1  UNL1        0.0251
     12 C           0.7722    1.7996   30.7835 C.ar    1  UNL1        0.0167
     13 C           4.0711   -1.0979   31.7690 C.ar    1  UNL1        0.1108
     14 N           3.9896   -2.2243   32.7563 N.ar    1  UNL1       -0.2368
     15 C           5.3134   -2.9295   32.7654 C.ar    1  UNL1        0.1064
     16 C           6.2132   -2.2390   31.7836 C.ar    1  UNL1        0.0575
     17 S           5.4454   -1.1070   31.1678 S.2     1  UNL1       -0.0659
     18 C           1.3379    3.1694   32.9174 C.ar    1  UNL1        0.1108
     19 N           1.9940    3.4286   34.2412 N.ar    1  UNL1       -0.2368
     20 C           1.4295    4.7026   34.7968 C.ar    1  UNL1        0.1064
     21 C           0.4246    5.2306   33.8163 C.ar    1  UNL1        0.0575
     22 S           0.3680    4.2831   32.6549 S.2     1  UNL1       -0.0659
     23 C          -0.4840    3.0646   24.6469 C.3     1  UNL1        0.0214
     24 C           0.0585    1.6872   24.8884 C.3     1  UNL1        0.0770
     25 C           0.9434    1.0394   23.8649 C.3     1  UNL1        0.0661
     26 C           2.3974    0.8208   24.1612 C.3     1  UNL1        0.1738
     27 O           3.1472    1.8074   25.0065 O.3     1  UNL1       -0.3697
     28 H           4.0686    1.5188   25.0997 H       1  UNL1        0.2119
     29 N           3.1018   -0.3844   23.6121 N.3     1  UNL1       -0.2511
     30 C           3.9154   -1.2567   24.5216 C.3     1  UNL1        0.0742
     31 C           4.6197   -2.4618   23.9725 C.3     1  UNL1        0.0175
     32 C           4.5104   -2.7947   22.5140 C.3     1  UNL1        0.0031
     33 C           3.6968   -1.9224   21.6046 C.3     1  UNL1        0.0205
     34 C           2.9925   -0.7173   22.1536 C.3     1  UNL1        0.0745
     35 C           3.5875   -2.2553   20.1461 C.3     1  UNL1        0.0277
     36 C           4.4036   -1.4982   19.1408 C.ar    1  UNL1       -0.0220
     37 C           5.7938   -1.0525   19.4858 C.ar    1  UNL1       -0.0020
     38 C           6.6099   -0.2954   18.4805 C.ar    1  UNL1        0.0293
     39 C           6.0360    0.0161   17.1301 C.ar    1  UNL1        0.1401
     40 F           6.8522    0.7733   16.1248 F       1  UNL1       -0.2042
     41 C           4.6459   -0.4295   16.7850 C.ar    1  UNL1        0.0293
     42 C           3.8297   -1.1867   17.7904 C.ar    1  UNL1       -0.0020
@<TRIPOS>BOND
     1    24    23    1
     2    24    25    1
     3    25    26    1
     4    26    27    1
     5    26    29    1
     6    29    30    1
     7    30    31    1
     8    31    32    1
     9    32    33    1
    10    33    35    1
    11    35    36    1
    12    36    37   ar
    13    37    38   ar
    14    38    39   ar
    15    39    40    1
    16    39    41   ar
    17    41    42   ar
    18    33    34    1
    19    24     1    1
    20     1     2   am
    21     2     3    2
    22     2     4   am
    23     4     7    1
    24     7     8   ar
    25     8     9   ar
    26     9    13    1
    27    13    14   ar
    28    14    15   ar
    29    15    16   ar
    30    16    17   ar
    31     9    10   ar
    32    10    11   ar
    33    11    18    1
    34    18    19   ar
    35    19    20   ar
    36    20    21   ar
    37    21    22   ar
    38    11    12   ar
    39    34    29    1
    40    12     7   ar
    41    42    36   ar
    42    17    13   ar
    43    22    18   ar
    44    27    28    1
    45     1     5    1
    46     4     6    1
@<TRIPOS>MOLECULE
*****
 42 46 0 0 0
SMALL
GASTEIGER

@<TRIPOS>ATOM
      1 N           5.8042   -3.5036   20.4007 N.am    1  UNL1       -0.2902
      2 C           5.7032   -3.7429   21.8780 C.2     1  UNL1        0.3044
      3 O           4.4309   -4.2772   22.4659 O.2     1  UNL1       -0.2525
      4 N           6.8744   -3.4478   22.7675 N.am    1  UNL1       -0.2683
      5 H           6.6393   -3.1528   20.0149 H       1  UNL1        0.1509
      6 H           7.7095   -3.0971   22.3816 H       1  UNL1        0.1564
      7 C           6.7733   -3.6871   24.2448 C.ar    1  UNL1        0.0517
      8 C           7.2952   -4.9635   24.8352 C.ar    1  UNL1        0.0167
      9 C           7.1941   -5.2028   26.3125 C.ar    1  UNL1        0.0251
     10 C           6.5712   -4.1658   27.1994 C.ar    1  UNL1        0.0041
     11 C           6.0494   -2.8895   26.6091 C.ar    1  UNL1        0.0251
     12 C           6.1505   -2.6501   25.1317 C.ar    1  UNL1        0.0167
     13 C           7.7159   -6.4792   26.9029 C.ar    1  UNL1        0.1108
     14 N           7.5987   -7.8451   26.2940 N.ar    1  UNL1       -0.2368
     15 C           8.2569   -8.8238   27.2206 C.ar    1  UNL1        0.1064
     16 C           8.7811   -8.0630   28.4023 C.ar    1  UNL1        0.0575
     17 S           8.4467   -6.6139   28.2060 S.2     1  UNL1       -0.0659
     18 C           5.4265   -1.8525   27.4960 C.ar    1  UNL1        0.1108
     19 N           3.9657   -1.7252   27.8124 N.ar    1  UNL1       -0.2368
     20 C           3.7915   -0.5547   28.7341 C.ar    1  UNL1        0.1064
     21 C           5.1445    0.0414   28.9874 C.ar    1  UNL1        0.0575
     22 S           6.1550   -0.7607   28.2222 S.2     1  UNL1       -0.0659
     23 C           4.5773   -5.0884   18.7476 C.3     1  UNL1        0.0214
     24 C           4.6330   -3.7986   19.5113 C.3     1  UNL1        0.0770
     25 C           3.5173   -2.8038   19.3855 C.3     1  UNL1        0.0661
     26 C           3.7640   -1.3571   19.6956 C.3     1  UNL1        0.1738
     27 O           5.0762   -0.7259   19.3352 O.3     1  UNL1       -0.3697
     28 H           5.0708    0.2064   19.6027 H       1  UNL1        0.2119
     29 N           2.6985   -0.5415   20.3661 N.3     1  UNL1       -0.2511
     30 C           1.3265   -0.4606   19.7653 C.3     1  UNL1        0.0742
     31 C           0.2611    0.3550   20.4359 C.3     1  UNL1        0.0175
     32 C           0.5676    1.0897   21.7072 C.3     1  UNL1        0.0031
     33 C           1.9396    1.0088   22.3080 C.3     1  UNL1        0.0205
     34 C           3.0051    0.1932   21.6375 C.3     1  UNL1        0.0745
     35 C           2.2462    1.7435   23.5793 C.3     1  UNL1        0.0277
     36 C           1.2912    1.6752   24.7340 C.ar    1  UNL1       -0.0220
     37 C           1.6991    0.9913   26.0052 C.ar    1  UNL1       -0.0020
     38 C           0.7442    0.9230   27.1599 C.ar    1  UNL1        0.0293
     39 C          -0.6188    1.5385   27.0434 C.ar    1  UNL1        0.1401
     40 F          -1.5738    1.4702   28.1981 F       1  UNL1       -0.2042
     41 C          -1.0267    2.2223   25.7722 C.ar    1  UNL1        0.0293
     42 C          -0.0717    2.2907   24.6175 C.ar    1  UNL1       -0.0020
@<TRIPOS>BOND
     1    24    23    1
     2    24    25    1
     3    25    26    1
     4    26    27    1
     5    26    29    1
     6    29    30    1
     7    30    31    1
     8    31    32    1
     9    32    33    1
    10    33    35    1
    11    35    36    1
    12    36    37   ar
    13    37    38   ar
    14    38    39   ar
    15    39    40    1
    16    39    41   ar
    17    41    42   ar
    18    33    34    1
    19    24     1    1
    20     1     2   am
    21     2     3    2
    22     2     4   am
    23     4     7    1
    24     7     8   ar
    25     8     9   ar
    26     9    13    1
    27    13    14   ar
    28    14    15   ar
    29    15    16   ar
    30    16    17   ar
    31     9    10   ar
    32    10    11   ar
    33    11    18    1
    34    18    19   ar
    35    19    20   ar
    36    20    21   ar
    37    21    22   ar
    38    11    12   ar
    39    34    29    1
    40    12     7   ar
    41    42    36   ar
    42    17    13   ar
    43    22    18   ar
    44    27    28    1
    45     1     5    1
    46     4     6    1
@<TRIPOS>MOLECULE
*****
 42 46 0 0 0
SMALL
GASTEIGER

@<TRIPOS>ATOM
      1 N           4.0790   -0.1831   27.5317 N.am    1  UNL1       -0.2902
      2 C           3.8354    0.1191   26.0828 C.2     1  UNL1        0.3044
      3 O           4.3412    1.4001   25.4886 O.2     1  UNL1       -0.2525
      4 N           3.0860   -0.8597   25.2282 N.am    1  UNL1       -0.2683
      5 H           3.7470   -1.0239   27.9218 H       1  UNL1        0.1509
      6 H           2.7540   -1.7004   25.6183 H       1  UNL1        0.1564
      7 C           2.8424   -0.5575   23.7793 C.ar    1  UNL1        0.0517
      8 C           3.5629   -1.3366   22.7192 C.ar    1  UNL1        0.0167
      9 C           3.3193   -1.0344   21.2703 C.ar    1  UNL1        0.0251
     10 C           2.3552    0.0469   20.8815 C.ar    1  UNL1        0.0041
     11 C           1.6347    0.8261   21.9416 C.ar    1  UNL1        0.0251
     12 C           1.8783    0.5239   23.3905 C.ar    1  UNL1        0.0167
     13 C           4.0398   -1.8135   20.2103 C.ar    1  UNL1        0.1108
     14 N           3.7157   -3.2100   19.7687 N.ar    1  UNL1       -0.2368
     15 C           4.6865   -3.5926   18.6912 C.ar    1  UNL1        0.1064
     16 C           5.6108   -2.4326   18.4667 C.ar    1  UNL1        0.0575
     17 S           5.2111   -1.3331   19.4056 S.2     1  UNL1       -0.0659
     18 C           0.6706    1.9074   21.5527 C.ar    1  UNL1        0.1108
     19 N          -0.6636    1.7053   20.8976 N.ar    1  UNL1       -0.2368
     20 C          -1.2874    3.0537   20.6907 C.ar    1  UNL1        0.1064
     21 C          -0.3388    4.0891   21.2180 C.ar    1  UNL1        0.0575
     22 S           0.8713    3.3807   21.7508 S.2     1  UNL1       -0.0659
     23 C           6.3190    0.9101   28.2645 C.3     1  UNL1        0.0214
     24 C           4.8284    0.7956   28.3863 C.3     1  UNL1        0.0770
     25 C           4.0871    1.6600   29.3628 C.3     1  UNL1        0.0661
     26 C           2.8289    1.1564   30.0055 C.3     1  UNL1        0.1738
     27 O           2.8599    0.6432   31.4146 O.3     1  UNL1       -0.3697
     28 H           1.9699    0.3587   31.6748 H       1  UNL1        0.2119
     29 N           1.5394    1.1660   29.2391 N.3     1  UNL1       -0.2511
     30 C           0.7174   -0.0846   29.1386 C.3     1  UNL1        0.0742
     31 C          -0.5720   -0.0750   28.3722 C.3     1  UNL1        0.0175
     32 C          -1.0393    1.1853   27.7063 C.3     1  UNL1        0.0031
     33 C          -0.2172    2.4359   27.8068 C.3     1  UNL1        0.0205
     34 C           1.0721    2.4263   28.5732 C.3     1  UNL1        0.0745
     35 C          -0.6845    3.6961   27.1409 C.3     1  UNL1        0.0277
     36 C          -1.9074    3.6766   26.2725 C.ar    1  UNL1       -0.0220
     37 C          -3.2517    3.9833   26.8632 C.ar    1  UNL1       -0.0020
     38 C          -4.4746    3.9637   25.9949 C.ar    1  UNL1        0.0293
     39 C          -4.3533    3.6374   24.5358 C.ar    1  UNL1        0.1401
     40 F          -5.5763    3.6178   23.6675 F       1  UNL1       -0.2042
     41 C          -3.0091    3.3307   23.9451 C.ar    1  UNL1        0.0293
     42 C          -1.7861    3.3503   24.8135 C.ar    1  UNL1       -0.0020
@<TRIPOS>BOND
     1    24    23    1
     2    24    25    1
     3    25    26    1
     4    26    27    1
     5    26    29    1
     6    29    30    1
     7    30    31    1
     8    31    32    1
     9    32    33    1
    10    33    35    1
    11    35    36    1
    12    36    37   ar
    13    37    38   ar
    14    38    39   ar
    15    39    40    1
    16    39    41   ar
    17    41    42   ar
    18    33    34    1
    19    24     1    1
    20     1     2   am
    21     2     3    2
    22     2     4   am
    23     4     7    1
    24     7     8   ar
    25     8     9   ar
    26     9    13    1
    27    13    14   ar
    28    14    15   ar
    29    15    16   ar
    30    16    17   ar
    31     9    10   ar
    32    10    11   ar
    33    11    18    1
    34    18    19   ar
    35    19    20   ar
    36    20    21   ar
    37    21    22   ar
    38    11    12   ar
    39    34    29    1
    40    12     7   ar
    41    42    36   ar
    42    17    13   ar
    43    22    18   ar
    44    27    28    1
    45     1     5    1
    46     4     6    1
@<TRIPOS>MOLECULE
*****
 42 46 0 0 0
SMALL
GASTEIGER

@<TRIPOS>ATOM
      1 N           5.7722   -3.9162   23.5924 N.am    1  UNL1       -0.2902
      2 C           5.3289   -2.4844   23.6485 C.2     1  UNL1        0.3044
      3 O           6.2251   -1.4450   24.2539 O.2     1  UNL1       -0.2525
      4 N           3.9895   -2.0918   23.0991 N.am    1  UNL1       -0.2683
      5 H           5.1840   -4.5984   23.1951 H       1  UNL1        0.1509
      6 H           3.4013   -2.7740   22.7017 H       1  UNL1        0.1564
      7 C           3.5462   -0.6600   23.1551 C.ar    1  UNL1        0.0517
      8 C           4.0512    0.3218   22.1396 C.ar    1  UNL1        0.0167
      9 C           3.6079    1.7537   22.1957 C.ar    1  UNL1        0.0251
     10 C           2.6596    2.2039   23.2672 C.ar    1  UNL1        0.0041
     11 C           2.1547    1.2222   24.2827 C.ar    1  UNL1        0.0251
     12 C           2.5979   -0.2098   24.2267 C.ar    1  UNL1        0.0167
     13 C           4.1129    2.7354   21.1802 C.ar    1  UNL1        0.1108
     14 N           5.3017    2.5454   20.2853 N.ar    1  UNL1       -0.2368
     15 C           5.4413    3.7720   19.4333 C.ar    1  UNL1        0.1064
     16 C           4.3388    4.7202   19.8015 C.ar    1  UNL1        0.0575
     17 S           3.5177    4.0794   20.8812 S.2     1  UNL1       -0.0659
     18 C           1.2064    1.6724   25.3542 C.ar    1  UNL1        0.1108
     19 N          -0.2913    1.6302   25.2808 N.ar    1  UNL1       -0.2368
     20 C          -0.8339    2.1756   26.5685 C.ar    1  UNL1        0.1064
     21 C           0.3283    2.5548   27.4377 C.ar    1  UNL1        0.0575
     22 S           1.5893    2.2438   26.6872 S.2     1  UNL1       -0.0659
     23 C           7.3010   -4.4563   25.6224 C.3     1  UNL1        0.0214
     24 C           7.1116   -4.3088   24.1418 C.3     1  UNL1        0.0770
     25 C           8.2617   -4.5538   23.2104 C.3     1  UNL1        0.0661
     26 C           8.0427   -4.5332   21.7267 C.3     1  UNL1        0.1738
     27 O           8.2692   -5.7759   20.9178 O.3     1  UNL1       -0.3697
     28 H           8.0842   -5.5918   19.9835 H       1  UNL1        0.2119
     29 N           7.5973   -3.2698   21.0517 N.3     1  UNL1       -0.2511
     30 C           8.3330   -1.9866   21.3012 C.3     1  UNL1        0.0742
     31 C           7.8875   -0.7233   20.6263 C.3     1  UNL1        0.0175
     32 C           6.7063   -0.7432   19.7019 C.3     1  UNL1        0.0031
     33 C           5.9706   -2.0263   19.4524 C.3     1  UNL1        0.0205
     34 C           6.4161   -3.2896   20.1274 C.3     1  UNL1        0.0745
     35 C           4.7895   -2.0461   18.5281 C.3     1  UNL1        0.0277
     36 C           3.5872   -1.2013   18.8292 C.ar    1  UNL1       -0.0220
     37 C           2.5436   -1.6959   19.7864 C.ar    1  UNL1       -0.0020
     38 C           1.3413   -0.8511   20.0875 C.ar    1  UNL1        0.0293
     39 C           1.1826    0.4885   19.4314 C.ar    1  UNL1        0.1401
     40 F          -0.0198    1.3333   19.7326 F       1  UNL1       -0.2042
     41 C           2.2261    0.9831   18.4742 C.ar    1  UNL1        0.0293
     42 C           3.4285    0.1383   18.1731 C.ar    1  UNL1       -0.0020
@<TRIPOS>BOND
     1    24    23    1
     2    24    25    1
     3    25    26    1
     4    26    27    1
     5    26    29    1
     6    29    30    1
     7    30    31    1
     8    31    32    1
     9    32    33    1
    10    33    35    1
    11    35    36    1
    12    36    37   ar
    13    37    38   ar
    14    38    39   ar
    15    39    40    1
    16    39    41   ar
    17    41    42   ar
    18    33    34    1
    19    24     1    1
    20     1     2   am
    21     2     3    2
    22     2     4   am
    23     4     7    1
    24     7     8   ar
    25     8     9   ar
    26     9    13    1
    27    13    14   ar
    28    14    15   ar
    29    15    16   ar
    30    16    17   ar
    31     9    10   ar
    32    10    11   ar
    33    11    18    1
    34    18    19   ar
    35    19    20   ar
    36    20    21   ar
    37    21    22   ar
    38    11    12   ar
    39    34    29    1
    40    12     7   ar
    41    42    36   ar
    42    17    13   ar
    43    22    18   ar
    44    27    28    1
    45     1     5    1
    46     4     6    1
@<TRIPOS>MOLECULE
*****
 42 46 0 0 0
SMALL
GASTEIGER

@<TRIPOS>ATOM
      1 N           6.0968   -4.1998   23.6102 N.am    1  UNL1       -0.2902
      2 C           5.7083   -2.7555   23.4961 C.2     1  UNL1        0.3044
      3 O           6.6750   -1.6842   23.9055 O.2     1  UNL1       -0.2525
      4 N           4.3530   -2.3825   22.9725 N.am    1  UNL1       -0.2683
      5 H           5.4623   -4.9029   23.3415 H       1  UNL1        0.1509
      6 H           3.7185   -3.0857   22.7038 H       1  UNL1        0.1564
      7 C           3.9645   -0.9383   22.8584 C.ar    1  UNL1        0.0517
      8 C           2.7651   -0.4235   23.5978 C.ar    1  UNL1        0.0167
      9 C           2.3766    1.0207   23.4836 C.ar    1  UNL1        0.0251
     10 C           3.1874    1.9503   22.6301 C.ar    1  UNL1        0.0041
     11 C           4.3867    1.4357   21.8907 C.ar    1  UNL1        0.0251
     12 C           4.7753   -0.0087   22.0048 C.ar    1  UNL1        0.0167
     13 C           1.1773    1.5354   24.2230 C.ar    1  UNL1        0.1108
     14 N           0.7849    1.1760   25.6255 N.ar    1  UNL1       -0.2368
     15 C          -0.4751    1.9183   25.9591 C.ar    1  UNL1        0.1064
     16 C          -0.8616    2.7366   24.7627 C.ar    1  UNL1        0.0575
     17 S           0.1597    2.4999   23.6898 S.2     1  UNL1       -0.0659
     18 C           5.1974    2.3653   21.0372 C.ar    1  UNL1        0.1108
     19 N           5.2759    3.8559   21.1857 N.ar    1  UNL1       -0.2368
     20 C           6.1990    4.3793   20.1255 C.ar    1  UNL1        0.1064
     21 C           6.6911    3.2123   19.3219 C.ar    1  UNL1        0.0575
     22 S           6.0721    1.9675   19.8853 S.2     1  UNL1       -0.0659
     23 C           7.6430   -4.8410   25.5972 C.3     1  UNL1        0.0214
     24 C           7.4521   -4.5727   24.1338 C.3     1  UNL1        0.0770
     25 C           8.6165   -4.6775   23.1939 C.3     1  UNL1        0.0661
     26 C           8.3810   -4.9155   21.7318 C.3     1  UNL1        0.1738
     27 O           8.5637   -6.2886   21.1564 O.3     1  UNL1       -0.3697
     28 H           8.3730   -6.2688   20.2056 H       1  UNL1        0.2119
     29 N           7.9629   -3.7802   20.8449 N.3     1  UNL1       -0.2511
     30 C           8.8517   -2.5818   20.6913 C.3     1  UNL1        0.0742
     31 C           8.4335   -1.4467   19.8044 C.3     1  UNL1        0.0175
     32 C           7.1265   -1.5100   19.0712 C.3     1  UNL1        0.0031
     33 C           6.2376   -2.7084   19.2249 C.3     1  UNL1        0.0205
     34 C           6.6558   -3.8435   20.1117 C.3     1  UNL1        0.0745
     35 C           4.9306   -2.7717   18.4916 C.3     1  UNL1        0.0277
     36 C           3.8677   -1.7488   18.7637 C.ar    1  UNL1       -0.0220
     37 C           2.7868   -2.0378   19.7628 C.ar    1  UNL1       -0.0020
     38 C           1.7240   -1.0150   20.0348 C.ar    1  UNL1        0.0293
     39 C           1.7419    0.2969   19.3078 C.ar    1  UNL1        0.1401
     40 F           0.6790    1.3198   19.5799 F       1  UNL1       -0.2042
     41 C           2.8228    0.5860   18.3087 C.ar    1  UNL1        0.0293
     42 C           3.8857   -0.4369   18.0366 C.ar    1  UNL1       -0.0020
@<TRIPOS>BOND
     1    24    23    1
     2    24    25    1
     3    25    26    1
     4    26    27    1
     5    26    29    1
     6    29    30    1
     7    30    31    1
     8    31    32    1
     9    32    33    1
    10    33    35    1
    11    35    36    1
    12    36    37   ar
    13    37    38   ar
    14    38    39   ar
    15    39    40    1
    16    39    41   ar
    17    41    42   ar
    18    33    34    1
    19    24     1    1
    20     1     2   am
    21     2     3    2
    22     2     4   am
    23     4     7    1
    24     7     8   ar
    25     8     9   ar
    26     9    13    1
    27    13    14   ar
    28    14    15   ar
    29    15    16   ar
    30    16    17   ar
    31     9    10   ar
    32    10    11   ar
    33    11    18    1
    34    18    19   ar
    35    19    20   ar
    36    20    21   ar
    37    21    22   ar
    38    11    12   ar
    39    34    29    1
    40    12     7   ar
    41    42    36   ar
    42    17    13   ar
    43    22    18   ar
    44    27    28    1
    45     1     5    1
    46     4     6    1
@<TRIPOS>MOLECULE
*****
 42 46 0 0 0
SMALL
GASTEIGER

@<TRIPOS>ATOM
      1 N           5.7647   -3.5240   20.2701 N.am    1  UNL1       -0.2902
      2 C           5.6525   -3.7500   21.7487 C.2     1  UNL1        0.3044
      3 O           4.4228   -4.3934   22.3178 O.2     1  UNL1       -0.2525
      4 N           6.7699   -3.3326   22.6582 N.am    1  UNL1       -0.2683
      5 H           6.5718   -3.1018   19.8965 H       1  UNL1        0.1509
      6 H           7.5770   -2.9103   22.2846 H       1  UNL1        0.1564
      7 C           6.6576   -3.5586   24.1367 C.ar    1  UNL1        0.0517
      8 C           6.0086   -2.5230   25.0066 C.ar    1  UNL1        0.0167
      9 C           5.8964   -2.7490   26.4852 C.ar    1  UNL1        0.0251
     10 C           6.4331   -4.0105   27.0940 C.ar    1  UNL1        0.0041
     11 C           7.0821   -5.0460   26.2243 C.ar    1  UNL1        0.0251
     12 C           7.1943   -4.8200   24.7456 C.ar    1  UNL1        0.0167
     13 C           5.2474   -1.7135   27.3550 C.ar    1  UNL1        0.1108
     14 N           3.7972   -1.6645   27.7351 N.ar    1  UNL1       -0.2368
     15 C           3.5881   -0.4659   28.6124 C.ar    1  UNL1        0.1064
     16 C           4.9092    0.2259   28.7746 C.ar    1  UNL1        0.0575
     17 S           5.9347   -0.5452   27.9974 S.2     1  UNL1       -0.0659
     18 C           7.6188   -6.3074   26.8331 C.ar    1  UNL1        0.1108
     19 N           7.5387   -7.6797   26.2326 N.ar    1  UNL1       -0.2368
     20 C           8.2003   -8.6385   27.1777 C.ar    1  UNL1        0.1064
     21 C           8.6891   -7.8588   28.3622 C.ar    1  UNL1        0.0575
     22 S           8.3298   -6.4181   28.1492 S.2     1  UNL1       -0.0659
     23 C           4.6825   -5.2866   18.6977 C.3     1  UNL1        0.0214
     24 C           4.6473   -3.9415   19.3606 C.3     1  UNL1        0.0770
     25 C           3.4947   -3.0137   19.1140 C.3     1  UNL1        0.0661
     26 C           3.7115   -1.7294   18.3700 C.3     1  UNL1        0.1738
     27 O           4.3749   -1.7448   17.0247 O.3     1  UNL1       -0.3697
     28 H           4.4370   -0.8385   16.6845 H       1  UNL1        0.2119
     29 N           3.2649   -0.4297   18.9712 N.3     1  UNL1       -0.2511
     30 C           3.9115    0.8550   18.5454 C.3     1  UNL1        0.0742
     31 C           3.4650    2.1546   19.1467 C.3     1  UNL1        0.0175
     32 C           2.3718    2.1695   20.1737 C.3     1  UNL1        0.0031
     33 C           1.7252    0.8848   20.5995 C.3     1  UNL1        0.0205
     34 C           2.1718   -0.4148   19.9982 C.3     1  UNL1        0.0745
     35 C           0.6320    0.8997   21.6265 C.3     1  UNL1        0.0277
     36 C           0.9562    1.1861   23.0627 C.ar    1  UNL1       -0.0220
     37 C           0.1453    2.1888   23.8291 C.ar    1  UNL1       -0.0020
     38 C           0.4694    2.4753   25.2653 C.ar    1  UNL1        0.0293
     39 C           1.6044    1.7591   25.9353 C.ar    1  UNL1        0.1401
     40 F           1.9285    2.0456   27.3716 F       1  UNL1       -0.2042
     41 C           2.4153    0.7565   25.1691 C.ar    1  UNL1        0.0293
     42 C           2.0912    0.4700   23.7327 C.ar    1  UNL1       -0.0020
@<TRIPOS>BOND
     1    24    23    1
     2    24    25    1
     3    25    26    1
     4    26    27    1
     5    26    29    1
     6    29    30    1
     7    30    31    1
     8    31    32    1
     9    32    33    1
    10    33    35    1
    11    35    36    1
    12    36    37   ar
    13    37    38   ar
    14    38    39   ar
    15    39    40    1
    16    39    41   ar
    17    41    42   ar
    18    33    34    1
    19    24     1    1
    20     1     2   am
    21     2     3    2
    22     2     4   am
    23     4     7    1
    24     7     8   ar
    25     8     9   ar
    26     9    13    1
    27    13    14   ar
    28    14    15   ar
    29    15    16   ar
    30    16    17   ar
    31     9    10   ar
    32    10    11   ar
    33    11    18    1
    34    18    19   ar
    35    19    20   ar
    36    20    21   ar
    37    21    22   ar
    38    11    12   ar
    39    34    29    1
    40    12     7   ar
    41    42    36   ar
    42    17    13   ar
    43    22    18   ar
    44    27    28    1
    45     1     5    1
    46     4     6    1
