@<TRIPOS>MOLECULE
*****
 34 37 0 0 0
SMALL
GASTEIGER

@<TRIPOS>ATOM
      1 C          -6.4560  -18.9633   19.8506 C.3     1  UNL1        0.0725
      2 C          -7.1234  -18.4124   21.0758 C.3     1  UNL1        0.0239
      3 C          -8.5878  -18.6458   21.3012 C.3     1  UNL1        0.0237
      4 C          -9.3849  -19.4302   20.3014 C.2     1  UNL1       -0.0441
      5 C         -10.8494  -19.6636   20.5269 C.2     1  UNL1       -0.0084
      6 C          -8.7175  -19.9811   19.0763 C.3     1  UNL1        0.0237
      7 C          -7.2530  -19.7477   18.8509 C.3     1  UNL1        0.0239
      8 C         -11.5168  -19.1126   21.7520 C.ar    1  UNL1        0.0024
      9 C         -12.9216  -18.5930   21.6713 C.ar    1  UNL1        0.0002
     10 C         -13.5890  -18.0421   22.8965 C.ar    1  UNL1        0.0031
     11 C         -12.8516  -18.0107   24.2023 C.ar    1  UNL1        0.0376
     12 C         -11.4468  -18.5303   24.2830 C.ar    1  UNL1        0.1472
     13 C         -10.7794  -19.0813   23.0579 C.ar    1  UNL1        0.0375
     14 O         -10.7094  -18.4990   25.5888 O.3     1  UNL1       -0.4361
     15 C          -9.5111  -17.6115   25.7524 C.ar    1  UNL1        0.2297
     16 C          -8.9209  -16.9208   24.5589 C.ar    1  UNL1        0.0581
     17 C          -7.7227  -16.0334   24.7224 C.ar    1  UNL1        0.0102
     18 C          -7.1147  -15.8367   26.0795 C.ar    1  UNL1        0.0907
     19 C          -7.7050  -16.5274   27.2730 C.ar    1  UNL1        0.1059
     20 N          -8.9032  -17.4148   27.1095 N.ar    1  UNL1       -0.2099
     21 C          -5.9165  -14.9493   26.2430 C.3     1  UNL1        0.4200
     22 F          -4.7183  -14.0619   26.4066 F       1  UNL1       -0.1658
     23 F          -5.5365  -15.1989   24.8136 F       1  UNL1       -0.1658
     24 F          -6.2964  -14.6996   27.6725 F       1  UNL1       -0.1658
     25 O          -4.6784  -18.2468   22.1587 O.2     1  UNL1       -0.2701
     26 C          -4.1027  -18.3716   20.7792 C.2     1  UNL1        0.2473
     27 N          -4.9915  -18.7299   19.6252 N.am    1  UNL1       -0.3024
     28 H          -4.6136  -18.8119   18.7198 H       1  UNL1        0.1497
     29 C          -2.6382  -18.1382   20.5537 C.ar    1  UNL1        0.0725
     30 C          -2.0471  -16.7830   20.8065 C.ar    1  UNL1        0.0077
     31 C          -0.5826  -16.5497   20.5810 C.ar    1  UNL1        0.0208
     32 C           0.2907  -17.6715   20.1028 C.ar    1  UNL1        0.0989
     33 N          -0.3004  -19.0267   19.8501 N.ar    1  UNL1       -0.2422
     34 C          -1.7649  -19.2601   20.0755 C.ar    1  UNL1        0.1034
@<TRIPOS>BOND
     1    25    26    2
     2    26    27   am
     3    27     1    1
     4     1     2    1
     5     2     3    1
     6     3     4    1
     7     4     5    2
     8     5     8    1
     9     8     9   ar
    10     9    10   ar
    11    10    11   ar
    12    11    12   ar
    13    12    14    1
    14    14    15    1
    15    15    16   ar
    16    16    17   ar
    17    17    18   ar
    18    18    21    1
    19    21    22    1
    20    21    23    1
    21    21    24    1
    22    18    19   ar
    23    19    20   ar
    24    12    13   ar
    25     4     6    1
    26     6     7    1
    27    26    29    1
    28    29    30   ar
    29    30    31   ar
    30    31    32   ar
    31    32    33   ar
    32    33    34   ar
    33     7     1    1
    34    34    29   ar
    35    13     8   ar
    36    20    15   ar
    37    27    28    1
@<TRIPOS>MOLECULE
*****
 34 37 0 0 0
SMALL
GASTEIGER

@<TRIPOS>ATOM
      1 C         -12.5284   -0.1199   18.1426 C.3     1  UNL1        0.0725
      2 C         -12.7516   -1.4874   18.7170 C.3     1  UNL1        0.0239
      3 C         -11.8853   -2.6330   18.2844 C.3     1  UNL1        0.0237
      4 C         -10.7959   -2.4111   17.2776 C.2     1  UNL1       -0.0441
      5 C          -9.9296   -3.5568   16.8450 C.2     1  UNL1       -0.0084
      6 C         -10.5727   -1.0435   16.7032 C.3     1  UNL1        0.0237
      7 C         -11.4389    0.1021   17.1358 C.3     1  UNL1        0.0239
      8 C         -10.1528   -4.9243   17.4194 C.ar    1  UNL1        0.0024
      9 C          -9.2548   -5.4372   18.5059 C.ar    1  UNL1        0.0002
     10 C          -9.4781   -6.8049   19.0803 C.ar    1  UNL1        0.0031
     11 C         -10.5993   -7.6595   18.5681 C.ar    1  UNL1        0.0376
     12 C         -11.4972   -7.1467   17.4815 C.ar    1  UNL1        0.1472
     13 C         -11.2740   -5.7791   16.9072 C.ar    1  UNL1        0.0375
     14 O         -12.6184   -8.0014   16.9693 O.3     1  UNL1       -0.4361
     15 C         -13.9072   -8.0844   17.7324 C.ar    1  UNL1        0.2297
     16 C         -14.3388   -6.9410   18.6021 C.ar    1  UNL1        0.0581
     17 C         -15.6275   -7.0240   19.3652 C.ar    1  UNL1        0.0102
     18 C         -16.4846   -8.2503   19.2586 C.ar    1  UNL1        0.0907
     19 C         -16.0529   -9.3937   18.3889 C.ar    1  UNL1        0.1059
     20 N         -14.7642   -9.3108   17.6259 N.ar    1  UNL1       -0.2099
     21 C         -17.7733   -8.3334   20.0217 C.3     1  UNL1        0.4200
     22 F         -19.0620   -8.4164   20.7848 F       1  UNL1       -0.1658
     23 F         -17.7024   -9.8310   19.9785 F       1  UNL1       -0.1658
     24 F         -17.8443   -6.8357   20.0649 F       1  UNL1       -0.1658
     25 O         -14.9771    0.5897   16.5613 O.2     1  UNL1       -0.2701
     26 C         -14.6190    1.3806   17.7845 C.2     1  UNL1        0.2473
     27 N         -13.3947    1.0258   18.5752 N.am    1  UNL1       -0.3024
     28 H         -13.1597    1.5449   19.3780 H       1  UNL1        0.1497
     29 C         -15.4853    2.5263   18.2171 C.ar    1  UNL1        0.0725
     30 C         -15.5698    2.8965   19.6681 C.ar    1  UNL1        0.0077
     31 C         -16.4360    4.0422   20.1006 C.ar    1  UNL1        0.0208
     32 C         -17.2178    4.8175   19.0820 C.ar    1  UNL1        0.0989
     33 N         -17.1333    4.4473   17.6309 N.ar    1  UNL1       -0.2422
     34 C         -16.2670    3.3017   17.1984 C.ar    1  UNL1        0.1034
@<TRIPOS>BOND
     1    25    26    2
     2    26    27   am
     3    27     1    1
     4     1     2    1
     5     2     3    1
     6     3     4    1
     7     4     5    2
     8     5     8    1
     9     8     9   ar
    10     9    10   ar
    11    10    11   ar
    12    11    12   ar
    13    12    14    1
    14    14    15    1
    15    15    16   ar
    16    16    17   ar
    17    17    18   ar
    18    18    21    1
    19    21    22    1
    20    21    23    1
    21    21    24    1
    22    18    19   ar
    23    19    20   ar
    24    12    13   ar
    25     4     6    1
    26     6     7    1
    27    26    29    1
    28    29    30   ar
    29    30    31   ar
    30    31    32   ar
    31    32    33   ar
    32    33    34   ar
    33     7     1    1
    34    34    29   ar
    35    13     8   ar
    36    20    15   ar
    37    27    28    1
@<TRIPOS>MOLECULE
*****
 34 37 0 0 0
SMALL
GASTEIGER

@<TRIPOS>ATOM
      1 C           6.1111   -2.9408   21.8950 C.3     1  UNL1        0.0725
      2 C           5.8796   -3.4056   23.3022 C.3     1  UNL1        0.0239
      3 C           6.8027   -4.4134   23.9205 C.3     1  UNL1        0.0237
      4 C           7.9572   -4.9563   23.1316 C.2     1  UNL1       -0.0441
      5 C           8.8803   -5.9641   23.7500 C.2     1  UNL1       -0.0084
      6 C           8.1886   -4.4914   21.7244 C.3     1  UNL1        0.0237
      7 C           7.2655   -3.4837   21.1061 C.3     1  UNL1        0.0239
      8 C           8.6489   -6.4289   25.1572 C.ar    1  UNL1        0.0024
      9 C           7.9844   -7.7495   25.4112 C.ar    1  UNL1        0.0002
     10 C           7.7530   -8.2143   26.8185 C.ar    1  UNL1        0.0031
     11 C           8.1861   -7.3585   27.9718 C.ar    1  UNL1        0.0376
     12 C           8.8505   -6.0379   27.7178 C.ar    1  UNL1        0.1472
     13 C           9.0820   -5.5731   26.3106 C.ar    1  UNL1        0.0375
     14 O           9.2836   -5.1821   28.8711 O.3     1  UNL1       -0.4361
     15 C           8.2597   -4.4549   29.6914 C.ar    1  UNL1        0.2297
     16 C           7.8905   -4.9639   31.0533 C.ar    1  UNL1        0.0581
     17 C           6.8667   -4.2367   31.8736 C.ar    1  UNL1        0.0102
     18 C           6.2121   -3.0005   31.3321 C.ar    1  UNL1        0.0907
     19 C           6.5813   -2.4916   29.9702 C.ar    1  UNL1        0.1059
     20 N           7.6051   -3.2187   29.1499 N.ar    1  UNL1       -0.2099
     21 C           5.1882   -2.2733   32.1524 C.3     1  UNL1        0.4200
     22 F           4.1644   -1.5460   32.9726 F       1  UNL1       -0.1658
     23 F           5.1707   -1.1619   31.1452 F       1  UNL1       -0.1658
     24 F           5.2057   -3.3846   33.1596 F       1  UNL1       -0.1658
     25 O           3.8683   -3.8502   20.1222 O.2     1  UNL1       -0.2701
     26 C           4.0666   -2.3877   20.3902 C.2     1  UNL1        0.2473
     27 N           5.1879   -1.9330   21.2766 N.am    1  UNL1       -0.3024
     28 H           5.3181   -0.9731   21.4526 H       1  UNL1        0.1497
     29 C           3.1435   -1.3799   19.7718 C.ar    1  UNL1        0.0725
     30 C           1.8598   -1.0182   20.4583 C.ar    1  UNL1        0.0077
     31 C           0.9368   -0.0105   19.8399 C.ar    1  UNL1        0.0208
     32 C           1.2974    0.6356   18.5351 C.ar    1  UNL1        0.0989
     33 N           2.5811    0.2738   17.8486 N.ar    1  UNL1       -0.2422
     34 C           3.5042   -0.7339   18.4670 C.ar    1  UNL1        0.1034
@<TRIPOS>BOND
     1    25    26    2
     2    26    27   am
     3    27     1    1
     4     1     2    1
     5     2     3    1
     6     3     4    1
     7     4     5    2
     8     5     8    1
     9     8     9   ar
    10     9    10   ar
    11    10    11   ar
    12    11    12   ar
    13    12    14    1
    14    14    15    1
    15    15    16   ar
    16    16    17   ar
    17    17    18   ar
    18    18    21    1
    19    21    22    1
    20    21    23    1
    21    21    24    1
    22    18    19   ar
    23    19    20   ar
    24    12    13   ar
    25     4     6    1
    26     6     7    1
    27    26    29    1
    28    29    30   ar
    29    30    31   ar
    30    31    32   ar
    31    32    33   ar
    32    33    34   ar
    33     7     1    1
    34    34    29   ar
    35    13     8   ar
    36    20    15   ar
    37    27    28    1
@<TRIPOS>MOLECULE
*****
 34 37 0 0 0
SMALL
GASTEIGER

@<TRIPOS>ATOM
      1 C           6.6736   -4.1740   25.8450 C.3     1  UNL1        0.0725
      2 C           6.4332   -3.1014   24.8244 C.3     1  UNL1        0.0239
      3 C           6.8936   -3.2952   23.4101 C.3     1  UNL1        0.0237
      4 C           7.5944   -4.5616   23.0164 C.2     1  UNL1       -0.0441
      5 C           8.0548   -4.7554   21.6019 C.2     1  UNL1       -0.0084
      6 C           7.8348   -5.6342   24.0370 C.3     1  UNL1        0.0237
      7 C           7.3744   -5.4404   25.4513 C.3     1  UNL1        0.0239
      8 C           7.8144   -3.6828   20.5813 C.ar    1  UNL1        0.0024
      9 C           8.8673   -2.6470   20.3196 C.ar    1  UNL1        0.0002
     10 C           8.6268   -1.5744   19.2989 C.ar    1  UNL1        0.0031
     11 C           7.3335   -1.5376   18.5400 C.ar    1  UNL1        0.0376
     12 C           6.2806   -2.5734   18.8018 C.ar    1  UNL1        0.1472
     13 C           6.5210   -3.6460   19.8224 C.ar    1  UNL1        0.0375
     14 O           4.9873   -2.5367   18.0429 O.3     1  UNL1       -0.4361
     15 C           3.8617   -1.6678   18.5207 C.ar    1  UNL1        0.2297
     16 C           3.1960   -1.9573   19.8334 C.ar    1  UNL1        0.0581
     17 C           2.0705   -1.0885   20.3112 C.ar    1  UNL1        0.0102
     18 C           1.6107    0.0698   19.4764 C.ar    1  UNL1        0.0907
     19 C           2.2765    0.3593   18.1638 C.ar    1  UNL1        0.1059
     20 N           3.4020   -0.5095   17.6860 N.ar    1  UNL1       -0.2099
     21 C           0.4852    0.9387   19.9543 C.3     1  UNL1        0.4200
     22 F          -0.6403    1.8076   20.4321 F       1  UNL1       -0.1658
     23 F           1.0923    2.1140   19.2472 F       1  UNL1       -0.1658
     24 F          -0.1219   -0.2366   20.6614 F       1  UNL1       -0.1658
     25 O           8.4757   -2.8427   27.8401 O.2     1  UNL1       -0.2701
     26 C           7.1142   -3.3146   28.2570 C.2     1  UNL1        0.2473
     27 N           6.2132   -3.9802   27.2595 N.am    1  UNL1       -0.3024
     28 H           5.3196   -4.2898   27.5331 H       1  UNL1        0.1497
     29 C           6.6538   -3.1208   29.6714 C.ar    1  UNL1        0.0725
     30 C           6.9997   -4.1374   30.7187 C.ar    1  UNL1        0.0077
     31 C           6.5392   -3.9436   32.1330 C.ar    1  UNL1        0.0208
     32 C           5.7330   -2.7331   32.5001 C.ar    1  UNL1        0.0989
     33 N           5.3871   -1.7165   31.4528 N.ar    1  UNL1       -0.2422
     34 C           5.8475   -1.9103   30.0385 C.ar    1  UNL1        0.1034
@<TRIPOS>BOND
     1    25    26    2
     2    26    27   am
     3    27     1    1
     4     1     2    1
     5     2     3    1
     6     3     4    1
     7     4     5    2
     8     5     8    1
     9     8     9   ar
    10     9    10   ar
    11    10    11   ar
    12    11    12   ar
    13    12    14    1
    14    14    15    1
    15    15    16   ar
    16    16    17   ar
    17    17    18   ar
    18    18    21    1
    19    21    22    1
    20    21    23    1
    21    21    24    1
    22    18    19   ar
    23    19    20   ar
    24    12    13   ar
    25     4     6    1
    26     6     7    1
    27    26    29    1
    28    29    30   ar
    29    30    31   ar
    30    31    32   ar
    31    32    33   ar
    32    33    34   ar
    33     7     1    1
    34    34    29   ar
    35    13     8   ar
    36    20    15   ar
    37    27    28    1
@<TRIPOS>MOLECULE
*****
 34 37 0 0 0
SMALL
GASTEIGER

@<TRIPOS>ATOM
      1 C           0.2139    1.3705   20.2343 C.3     1  UNL1        0.0725
      2 C           0.7139    0.0647   20.7773 C.3     1  UNL1        0.0239
      3 C           1.9217   -0.5864   20.1713 C.3     1  UNL1        0.0237
      4 C           2.6295    0.0684   19.0222 C.2     1  UNL1       -0.0441
      5 C           3.8374   -0.5828   18.4162 C.2     1  UNL1       -0.0084
      6 C           2.1295    1.3741   18.4792 C.3     1  UNL1        0.0237
      7 C           0.9217    2.0252   19.0852 C.3     1  UNL1        0.0239
      8 C           4.3374   -1.8885   18.9592 C.ar    1  UNL1        0.0024
      9 C           3.5361   -3.1405   18.7581 C.ar    1  UNL1        0.0002
     10 C           4.0362   -4.4464   19.3011 C.ar    1  UNL1        0.0031
     11 C           5.3374   -4.5001   20.0453 C.ar    1  UNL1        0.0376
     12 C           6.1387   -3.2481   20.2465 C.ar    1  UNL1        0.1472
     13 C           5.6387   -1.9423   19.7034 C.ar    1  UNL1        0.0375
     14 O           7.4399   -3.3018   20.9907 O.3     1  UNL1       -0.4361
     15 C           7.6730   -4.3701   22.0176 C.ar    1  UNL1        0.2297
     16 C           7.0815   -4.2337   23.3893 C.ar    1  UNL1        0.0581
     17 C           7.3146   -5.3018   24.4162 C.ar    1  UNL1        0.0102
     18 C           8.1392   -6.5064   24.0715 C.ar    1  UNL1        0.0907
     19 C           8.7308   -6.6428   22.6998 C.ar    1  UNL1        0.1059
     20 N           8.4977   -5.5747   21.6729 N.ar    1  UNL1       -0.2099
     21 C           8.3724   -7.5747   25.0984 C.3     1  UNL1        0.4200
     22 F           8.6056   -8.6429   26.1253 F       1  UNL1       -0.1658
     23 F           9.5301   -8.0921   24.2973 F       1  UNL1       -0.1658
     24 F           7.2147   -7.0572   25.8996 F       1  UNL1       -0.1658
     25 O           0.5230    3.2200   22.5761 O.2     1  UNL1       -0.2701
     26 C          -0.8394    2.9463   22.0112 C.2     1  UNL1        0.2473
     27 N          -0.9939    2.0216   20.8404 N.am    1  UNL1       -0.3024
     28 H          -1.8881    1.8420   20.4696 H       1  UNL1        0.1497
     29 C          -2.0472    3.5974   22.6173 C.ar    1  UNL1        0.0725
     30 C          -2.0196    4.0438   24.0490 C.ar    1  UNL1        0.0077
     31 C          -3.2274    4.6949   24.6550 C.ar    1  UNL1        0.0208
     32 C          -4.4628    4.8996   23.8292 C.ar    1  UNL1        0.0989
     33 N          -4.4904    4.4532   22.3975 N.ar    1  UNL1       -0.2422
     34 C          -3.2826    3.8021   21.7915 C.ar    1  UNL1        0.1034
@<TRIPOS>BOND
     1    25    26    2
     2    26    27   am
     3    27     1    1
     4     1     2    1
     5     2     3    1
     6     3     4    1
     7     4     5    2
     8     5     8    1
     9     8     9   ar
    10     9    10   ar
    11    10    11   ar
    12    11    12   ar
    13    12    14    1
    14    14    15    1
    15    15    16   ar
    16    16    17   ar
    17    17    18   ar
    18    18    21    1
    19    21    22    1
    20    21    23    1
    21    21    24    1
    22    18    19   ar
    23    19    20   ar
    24    12    13   ar
    25     4     6    1
    26     6     7    1
    27    26    29    1
    28    29    30   ar
    29    30    31   ar
    30    31    32   ar
    31    32    33   ar
    32    33    34   ar
    33     7     1    1
    34    34    29   ar
    35    13     8   ar
    36    20    15   ar
    37    27    28    1
@<TRIPOS>MOLECULE
*****
 34 37 0 0 0
SMALL
GASTEIGER

@<TRIPOS>ATOM
      1 C         -17.8313   -3.0262   20.0128 C.3     1  UNL1        0.0725
      2 C         -16.7282   -4.0310   19.8589 C.3     1  UNL1        0.0239
      3 C         -17.0377   -5.4159   19.3730 C.3     1  UNL1        0.0237
      4 C         -18.4502   -5.7960   19.0409 C.2     1  UNL1       -0.0441
      5 C         -18.7596   -7.1811   18.5549 C.2     1  UNL1       -0.0084
      6 C         -19.5532   -4.7913   19.1947 C.3     1  UNL1        0.0237
      7 C         -19.2438   -3.4064   19.6807 C.3     1  UNL1        0.0239
      8 C         -17.6565   -8.1858   18.4010 C.ar    1  UNL1        0.0024
      9 C         -17.9342   -9.6437   18.6186 C.ar    1  UNL1        0.0002
     10 C         -16.8311  -10.6485   18.4647 C.ar    1  UNL1        0.0031
     11 C         -15.4503  -10.1953   18.0932 C.ar    1  UNL1        0.0376
     12 C         -15.1726   -8.7373   17.8756 C.ar    1  UNL1        0.1472
     13 C         -16.2757   -7.7326   18.0295 C.ar    1  UNL1        0.0375
     14 O         -13.7918   -8.2842   17.5042 O.3     1  UNL1       -0.4361
     15 C         -13.3287   -6.9070   17.8771 C.ar    1  UNL1        0.2297
     16 C         -13.4264   -6.4425   19.3000 C.ar    1  UNL1        0.0581
     17 C         -12.9634   -5.0654   19.6730 C.ar    1  UNL1        0.0102
     18 C         -12.4026   -4.1528   18.6230 C.ar    1  UNL1        0.0907
     19 C         -12.3049   -4.6172   17.2000 C.ar    1  UNL1        0.1059
     20 N         -12.7680   -5.9943   16.8271 N.ar    1  UNL1       -0.2099
     21 C         -11.9395   -2.7756   18.9959 C.3     1  UNL1        0.4200
     22 F         -11.4765   -1.3985   19.3688 F       1  UNL1       -0.1658
     23 F         -12.7014   -2.8684   20.2847 F       1  UNL1       -0.1658
     24 F         -11.1777   -2.6827   17.7072 F       1  UNL1       -0.1658
     25 O         -16.6831   -0.9960   18.1260 O.2     1  UNL1       -0.2701
     26 C         -16.9478   -0.6261   19.5554 C.2     1  UNL1        0.2473
     27 N         -17.5219   -1.6412   20.4988 N.am    1  UNL1       -0.3024
     28 H         -17.6956   -1.3985   21.4370 H       1  UNL1        0.1497
     29 C         -16.6384    0.7589   20.0414 C.ar    1  UNL1        0.0725
     30 C         -17.3661    1.3173   21.2282 C.ar    1  UNL1        0.0077
     31 C         -17.0567    2.7022   21.7141 C.ar    1  UNL1        0.0208
     32 C         -16.0195    3.5287   21.0133 C.ar    1  UNL1        0.0989
     33 N         -15.2918    2.9703   19.8265 N.ar    1  UNL1       -0.2422
     34 C         -15.6012    1.5853   19.3406 C.ar    1  UNL1        0.1034
@<TRIPOS>BOND
     1    25    26    2
     2    26    27   am
     3    27     1    1
     4     1     2    1
     5     2     3    1
     6     3     4    1
     7     4     5    2
     8     5     8    1
     9     8     9   ar
    10     9    10   ar
    11    10    11   ar
    12    11    12   ar
    13    12    14    1
    14    14    15    1
    15    15    16   ar
    16    16    17   ar
    17    17    18   ar
    18    18    21    1
    19    21    22    1
    20    21    23    1
    21    21    24    1
    22    18    19   ar
    23    19    20   ar
    24    12    13   ar
    25     4     6    1
    26     6     7    1
    27    26    29    1
    28    29    30   ar
    29    30    31   ar
    30    31    32   ar
    31    32    33   ar
    32    33    34   ar
    33     7     1    1
    34    34    29   ar
    35    13     8   ar
    36    20    15   ar
    37    27    28    1
@<TRIPOS>MOLECULE
*****
 34 37 0 0 0
SMALL
GASTEIGER

@<TRIPOS>ATOM
      1 C           0.9150    1.5680   23.5076 C.3     1  UNL1        0.0725
      2 C          -0.1326    2.6133   23.2632 C.3     1  UNL1        0.0239
      3 C          -1.0430    3.0375   24.3773 C.3     1  UNL1        0.0237
      4 C          -0.9057    2.4165   25.7357 C.2     1  UNL1       -0.0441
      5 C          -1.8161    2.8408   26.8499 C.2     1  UNL1       -0.0084
      6 C           0.1420    1.3712   25.9802 C.3     1  UNL1        0.0237
      7 C           1.0523    0.9470   24.8661 C.3     1  UNL1        0.0239
      8 C          -2.8638    3.8861   26.6054 C.ar    1  UNL1        0.0024
      9 C          -2.7492    5.2305   27.2608 C.ar    1  UNL1        0.0002
     10 C          -3.7969    6.2758   27.0164 C.ar    1  UNL1        0.0031
     11 C          -4.9591    5.9767   26.1166 C.ar    1  UNL1        0.0376
     12 C          -5.0737    4.6323   25.4612 C.ar    1  UNL1        0.1472
     13 C          -4.0261    3.5870   25.7056 C.ar    1  UNL1        0.0375
     14 O          -6.2360    4.3332   24.5614 O.3     1  UNL1       -0.4361
     15 C          -6.0162    4.1467   23.0893 C.ar    1  UNL1        0.2297
     16 C          -4.9486    3.2120   22.6029 C.ar    1  UNL1        0.0581
     17 C          -4.7288    3.0255   21.1308 C.ar    1  UNL1        0.0102
     18 C          -5.5767    3.7735   20.1453 C.ar    1  UNL1        0.0907
     19 C          -6.6444    4.7082   20.6317 C.ar    1  UNL1        0.1059
     20 N          -6.8641    4.8947   22.1037 N.ar    1  UNL1       -0.2099
     21 C          -5.3570    3.5870   18.6732 C.3     1  UNL1        0.4200
     22 F          -5.1372    3.4005   17.2011 F       1  UNL1       -0.1658
     23 F          -4.1499    4.4748   18.7409 F       1  UNL1       -0.1658
     24 F          -6.5641    2.6992   18.6054 F       1  UNL1       -0.1658
     25 O          -0.2137    0.2079   21.0835 O.2     1  UNL1       -0.2701
     26 C           1.2611    0.4636   21.1815 C.2     1  UNL1        0.2473
     27 N           1.8254    1.1437   22.3935 N.am    1  UNL1       -0.3024
     28 H           2.7934    1.3115   22.4578 H       1  UNL1        0.1497
     29 C           2.1715    0.0393   20.0674 C.ar    1  UNL1        0.0725
     30 C           2.7675   -1.3371   20.0689 C.ar    1  UNL1        0.0077
     31 C           3.6779   -1.7614   18.9548 C.ar    1  UNL1        0.0208
     32 C           3.9922   -0.8092   17.8392 C.ar    1  UNL1        0.0989
     33 N           3.3962    0.5673   17.8377 N.ar    1  UNL1       -0.2422
     34 C           2.4858    0.9915   18.9518 C.ar    1  UNL1        0.1034
@<TRIPOS>BOND
     1    25    26    2
     2    26    27   am
     3    27     1    1
     4     1     2    1
     5     2     3    1
     6     3     4    1
     7     4     5    2
     8     5     8    1
     9     8     9   ar
    10     9    10   ar
    11    10    11   ar
    12    11    12   ar
    13    12    14    1
    14    14    15    1
    15    15    16   ar
    16    16    17   ar
    17    17    18   ar
    18    18    21    1
    19    21    22    1
    20    21    23    1
    21    21    24    1
    22    18    19   ar
    23    19    20   ar
    24    12    13   ar
    25     4     6    1
    26     6     7    1
    27    26    29    1
    28    29    30   ar
    29    30    31   ar
    30    31    32   ar
    31    32    33   ar
    32    33    34   ar
    33     7     1    1
    34    34    29   ar
    35    13     8   ar
    36    20    15   ar
    37    27    28    1
@<TRIPOS>MOLECULE
*****
 34 37 0 0 0
SMALL
GASTEIGER

@<TRIPOS>ATOM
      1 C           7.1236   -3.6641   29.4694 C.3     1  UNL1        0.0725
      2 C           6.5858   -2.2643   29.4389 C.3     1  UNL1        0.0239
      3 C           6.0308   -1.6468   30.6881 C.3     1  UNL1        0.0237
      4 C           6.0137   -2.4291   31.9678 C.2     1  UNL1       -0.0441
      5 C           5.4587   -1.8115   33.2171 C.2     1  UNL1       -0.0084
      6 C           6.5516   -3.8290   31.9983 C.3     1  UNL1        0.0237
      7 C           7.1066   -4.4465   30.7490 C.3     1  UNL1        0.0239
      8 C           4.9208   -0.4117   33.1867 C.ar    1  UNL1        0.0024
      9 C           5.8060    0.7402   33.5604 C.ar    1  UNL1        0.0002
     10 C           5.2680    2.1402   33.5299 C.ar    1  UNL1        0.0031
     11 C           3.8450    2.3881   33.1257 C.ar    1  UNL1        0.0376
     12 C           2.9598    1.2363   32.7520 C.ar    1  UNL1        0.1472
     13 C           3.4977   -0.1636   32.7825 C.ar    1  UNL1        0.0375
     14 O           1.5368    1.4842   32.3479 O.3     1  UNL1       -0.4361
     15 C           1.1510    1.4458   30.8987 C.ar    1  UNL1        0.2297
     16 C           0.7808    2.7134   30.1874 C.ar    1  UNL1        0.0581
     17 C           0.3951    2.6751   28.7383 C.ar    1  UNL1        0.0102
     18 C           0.3797    1.3691   28.0007 C.ar    1  UNL1        0.0907
     19 C           0.7500    0.1015   28.7121 C.ar    1  UNL1        0.1059
     20 N           1.1356    0.1399   30.1611 N.ar    1  UNL1       -0.2099
     21 C          -0.0060    1.3307   26.5516 C.3     1  UNL1        0.4200
     22 F          -0.3918    1.2923   25.1026 F       1  UNL1       -0.1658
     23 F          -1.3587    1.8792   26.8971 F       1  UNL1       -0.1658
     24 F           1.3466    0.7821   26.2061 F       1  UNL1       -0.1658
     25 O           5.5185   -5.7019   27.9624 O.2     1  UNL1       -0.2701
     26 C           6.8761   -5.3006   27.4666 C.2     1  UNL1        0.2473
     27 N           7.6787   -4.2817   28.2201 N.am    1  UNL1       -0.3024
     28 H           8.5697   -4.0183   27.8947 H       1  UNL1        0.1497
     29 C           7.4311   -5.9182   26.2174 C.ar    1  UNL1        0.0725
     30 C           8.1665   -7.2236   26.2888 C.ar    1  UNL1        0.0077
     31 C           8.7214   -7.8411   25.0396 C.ar    1  UNL1        0.0208
     32 C           8.5410   -7.1532   23.7189 C.ar    1  UNL1        0.0989
     33 N           7.8056   -5.8478   23.6474 N.ar    1  UNL1       -0.2422
     34 C           7.2507   -5.2303   24.8966 C.ar    1  UNL1        0.1034
@<TRIPOS>BOND
     1    25    26    2
     2    26    27   am
     3    27     1    1
     4     1     2    1
     5     2     3    1
     6     3     4    1
     7     4     5    2
     8     5     8    1
     9     8     9   ar
    10     9    10   ar
    11    10    11   ar
    12    11    12   ar
    13    12    14    1
    14    14    15    1
    15    15    16   ar
    16    16    17   ar
    17    17    18   ar
    18    18    21    1
    19    21    22    1
    20    21    23    1
    21    21    24    1
    22    18    19   ar
    23    19    20   ar
    24    12    13   ar
    25     4     6    1
    26     6     7    1
    27    26    29    1
    28    29    30   ar
    29    30    31   ar
    30    31    32   ar
    31    32    33   ar
    32    33    34   ar
    33     7     1    1
    34    34    29   ar
    35    13     8   ar
    36    20    15   ar
    37    27    28    1
@<TRIPOS>MOLECULE
*****
 34 37 0 0 0
SMALL
GASTEIGER

@<TRIPOS>ATOM
      1 C           3.0913    1.1289   30.6873 C.3     1  UNL1        0.0725
      2 C           4.2022    0.3204   30.0855 C.3     1  UNL1        0.0239
      3 C           5.0224   -0.5888   30.9518 C.3     1  UNL1        0.0237
      4 C           4.7317   -0.6895   32.4200 C.2     1  UNL1       -0.0441
      5 C           5.5520   -1.5988   33.2863 C.2     1  UNL1       -0.0084
      6 C           3.6208    0.1190   33.0217 C.3     1  UNL1        0.0237
      7 C           2.8006    1.0282   32.1554 C.3     1  UNL1        0.0239
      8 C           6.6629   -2.4073   32.6845 C.ar    1  UNL1        0.0024
      9 C           8.0617   -1.8660   32.6703 C.ar    1  UNL1        0.0002
     10 C           9.1727   -2.6746   32.0685 C.ar    1  UNL1        0.0031
     11 C           8.8847   -4.0244   31.4809 C.ar    1  UNL1        0.0376
     12 C           7.4858   -4.5656   31.4952 C.ar    1  UNL1        0.1472
     13 C           6.3749   -3.7571   32.0970 C.ar    1  UNL1        0.0375
     14 O           7.1978   -5.9153   30.9077 O.3     1  UNL1       -0.4361
     15 C           7.3779   -6.1470   29.4366 C.ar    1  UNL1        0.2297
     16 C           8.4849   -7.0328   28.9469 C.ar    1  UNL1        0.0581
     17 C           8.6651   -7.2644   27.4759 C.ar    1  UNL1        0.0102
     18 C           7.7382   -6.6102   26.4946 C.ar    1  UNL1        0.0907
     19 C           6.6312   -5.7244   26.9844 C.ar    1  UNL1        0.1059
     20 N           6.4511   -5.4927   28.4553 N.ar    1  UNL1       -0.2099
     21 C           7.9184   -6.8418   25.0236 C.3     1  UNL1        0.4200
     22 F           8.0985   -7.0735   23.5526 F       1  UNL1       -0.1658
     23 F           8.6279   -8.1312   25.3135 F       1  UNL1       -0.1658
     24 F           7.2088   -5.5525   24.7336 F       1  UNL1       -0.1658
     25 O           0.4503    0.1967   29.6121 O.2     1  UNL1       -0.2701
     26 C           0.9506    1.5721   29.2833 C.2     1  UNL1        0.2473
     27 N           2.2711    2.0382   29.8209 N.am    1  UNL1       -0.3024
     28 H           2.5994    2.9409   29.6052 H       1  UNL1        0.1497
     29 C           0.1304    2.4814   28.4170 C.ar    1  UNL1        0.0725
     30 C          -0.8780    1.9048   27.4679 C.ar    1  UNL1        0.0077
     31 C          -1.6982    2.8141   26.6017 C.ar    1  UNL1        0.0208
     32 C          -1.5100    4.2999   26.6844 C.ar    1  UNL1        0.0989
     33 N          -0.5017    4.8765   27.6335 N.ar    1  UNL1       -0.2422
     34 C           0.3185    3.9672   28.4998 C.ar    1  UNL1        0.1034
@<TRIPOS>BOND
     1    25    26    2
     2    26    27   am
     3    27     1    1
     4     1     2    1
     5     2     3    1
     6     3     4    1
     7     4     5    2
     8     5     8    1
     9     8     9   ar
    10     9    10   ar
    11    10    11   ar
    12    11    12   ar
    13    12    14    1
    14    14    15    1
    15    15    16   ar
    16    16    17   ar
    17    17    18   ar
    18    18    21    1
    19    21    22    1
    20    21    23    1
    21    21    24    1
    22    18    19   ar
    23    19    20   ar
    24    12    13   ar
    25     4     6    1
    26     6     7    1
    27    26    29    1
    28    29    30   ar
    29    30    31   ar
    30    31    32   ar
    31    32    33   ar
    32    33    34   ar
    33     7     1    1
    34    34    29   ar
    35    13     8   ar
    36    20    15   ar
    37    27    28    1
