@<TRIPOS>MOLECULE
*****
 40 43 0 0 0
SMALL
GASTEIGER

@<TRIPOS>ATOM
      1 C           6.6906   -3.3209   20.1535 C.ar    1  UNL1        0.1432
      2 C           6.0368   -2.1370   19.5048 C.ar    1  UNL1        0.0691
      3 C           4.7236   -2.2990   18.7983 C.ar    1  UNL1        0.1368
      4 N           4.0642   -3.6450   18.7404 N.ar    1  UNL1       -0.2088
      5 C           4.7180   -4.8290   19.3891 C.ar    1  UNL1        0.2012
      6 N           6.0312   -4.6670   20.0956 N.ar    1  UNL1       -0.2085
      7 N           7.0424   -4.3979   22.9313 N.am    1  UNL1       -0.2663
      8 C           8.1797   -3.6974   22.2490 C.2     1  UNL1        0.3126
      9 O           9.4929   -3.5353   22.9555 O.2     1  UNL1       -0.2519
     10 N           8.0038   -3.1588   20.8600 N.am    1  UNL1       -0.2261
     11 C           9.1412   -2.4583   20.1777 C.3     1  UNL1        0.1231
     12 H           6.1804   -4.5042   22.4676 H       1  UNL1        0.1565
     13 C           6.8944   -4.6909   26.8864 C.ar    1  UNL1        0.1535
     14 C           7.5698   -6.0133   27.0981 C.ar    1  UNL1        0.0756
     15 C           8.0695   -6.7973   25.9210 C.ar    1  UNL1        0.1535
     16 C           7.8937   -6.2588   24.5321 C.ar    1  UNL1        0.1060
     17 CL          8.3933   -7.0428   23.3549 Cl      1  UNL1       -0.0777
     18 C           7.2182   -4.9364   24.3203 C.ar    1  UNL1        0.0788
     19 C           6.7186   -4.1524   25.4975 C.ar    1  UNL1        0.1060
     20 CL          6.0431   -2.8299   25.2857 Cl      1  UNL1       -0.0777
     21 C           7.3471   -3.4866   29.1436 C.3     1  UNL1        0.2525
     22 O           6.3947   -3.9069   28.0636 O.3     1  UNL1       -0.4704
     23 O           8.7450   -8.1198   26.1328 O.3     1  UNL1       -0.4704
     24 C           8.4278   -8.9376   27.3496 C.3     1  UNL1        0.2525
     25 N           4.0698   -1.1151   18.1497 N.pl3   1  UNL1       -0.2978
     26 H           4.4093   -0.7746   17.2906 H       1  UNL1        0.1536
     27 C           2.8987   -0.4498   18.8100 C.ar    1  UNL1        0.0496
     28 C           2.2932    0.7800   18.2008 C.ar    1  UNL1        0.0178
     29 C           1.1222    1.4453   18.8611 C.ar    1  UNL1        0.0382
     30 C           0.5565    0.8808   20.1304 C.ar    1  UNL1        0.1387
     31 C           1.1619   -0.3490   20.7395 C.ar    1  UNL1        0.0382
     32 C           2.3330   -1.0143   20.0793 C.ar    1  UNL1        0.0178
     33 O          -0.6146    1.5461   20.7907 O.3     1  UNL1       -0.4740
     34 C          -1.0984    2.8768   20.2956 C.3     1  UNL1        0.2226
     35 C          -2.5615    3.2050   20.3352 C.3     1  UNL1        0.1200
     36 N          -3.2752    3.2927   21.6516 N.3     1  UNL1       -0.2696
     37 C          -2.6611    3.6841   22.9630 C.3     1  UNL1        0.0722
     38 C          -3.7346    3.6378   24.0097 C.3     1  UNL1        0.0188
     39 C          -5.0121    3.2179   23.3451 C.3     1  UNL1        0.0188
     40 C          -4.7281    3.0046   21.8878 C.3     1  UNL1        0.0722
@<TRIPOS>BOND
     1    21    22    1
     2    22    13    1
     3    13    14   ar
     4    14    15   ar
     5    15    23    1
     6    23    24    1
     7    15    16   ar
     8    16    17    1
     9    16    18   ar
    10    18     7    1
    11     7     8   am
    12     8     9    2
    13     8    10   am
    14    10    11    1
    15    10     1    1
    16     1     2   ar
    17     2     3   ar
    18     3    25    1
    19    25    27    1
    20    27    28   ar
    21    28    29   ar
    22    29    30   ar
    23    30    33    1
    24    33    34    1
    25    34    35    1
    26    35    36    1
    27    36    37    1
    28    37    38    1
    29    38    39    1
    30    39    40    1
    31    30    31   ar
    32    31    32   ar
    33     3     4   ar
    34     4     5   ar
    35     5     6   ar
    36    18    19   ar
    37    19    20    1
    38    19    13   ar
    39     6     1   ar
    40    32    27   ar
    41    40    36    1
    42     7    12    1
    43    25    26    1
@<TRIPOS>MOLECULE
*****
 40 43 0 0 0
SMALL
GASTEIGER

@<TRIPOS>ATOM
      1 C           6.6014   -3.2495   20.1354 C.ar    1  UNL1        0.1432
      2 C           5.9413   -2.0779   19.4708 C.ar    1  UNL1        0.0691
      3 C           4.6129   -2.2491   18.7955 C.ar    1  UNL1        0.1368
      4 N           3.9446   -3.5919   18.7848 N.ar    1  UNL1       -0.2088
      5 C           4.6047   -4.7636   19.4493 C.ar    1  UNL1        0.2012
      6 N           5.9331   -4.5924   20.1246 N.ar    1  UNL1       -0.2085
      7 N           7.0476   -4.3831   22.8769 N.am    1  UNL1       -0.2663
      8 C           8.1529   -3.6451   22.1815 C.2     1  UNL1        0.3126
      9 O           9.4813   -3.4739   22.8568 O.2     1  UNL1       -0.2519
     10 N           7.9298   -3.0783   20.8106 N.am    1  UNL1       -0.2261
     11 C           9.0351   -2.3403   20.1152 C.3     1  UNL1        0.1231
     12 H           6.1757   -4.4954   22.4337 H       1  UNL1        0.1565
     13 C           8.2170   -6.8206   25.7823 C.ar    1  UNL1        0.1535
     14 C           7.7169   -6.0835   26.9891 C.ar    1  UNL1        0.0756
     15 C           6.9937   -4.7796   26.8253 C.ar    1  UNL1        0.1535
     16 C           6.7706   -4.2128   25.4546 C.ar    1  UNL1        0.1060
     17 CL          6.0474   -2.9089   25.2907 Cl      1  UNL1       -0.0777
     18 C           7.2707   -4.9499   24.2477 C.ar    1  UNL1        0.0788
     19 C           7.9939   -6.2538   24.4116 C.ar    1  UNL1        0.1060
     20 CL          8.4940   -6.9908   23.2046 Cl      1  UNL1       -0.0777
     21 C           8.9097   -8.8384   27.2650 C.3     1  UNL1        0.2525
     22 O           8.9401   -8.1245   25.9461 O.3     1  UNL1       -0.4704
     23 O           6.4935   -4.0425   28.0322 O.3     1  UNL1       -0.4704
     24 C           7.3989   -3.0932   28.7597 C.3     1  UNL1        0.2525
     25 N           3.9528   -1.0775   18.1310 N.pl3   1  UNL1       -0.2978
     26 H           4.2629   -0.7739   17.2473 H       1  UNL1        0.1536
     27 C           2.8203   -0.3686   18.8129 C.ar    1  UNL1        0.0496
     28 C           2.1139   -1.0187   19.9654 C.ar    1  UNL1        0.0178
     29 C           0.9814   -0.3099   20.6472 C.ar    1  UNL1        0.0382
     30 C           0.5553    1.0491   20.1766 C.ar    1  UNL1        0.1387
     31 C           1.2618    1.6993   19.0241 C.ar    1  UNL1        0.0382
     32 C           2.3943    0.9904   18.3422 C.ar    1  UNL1        0.0178
     33 O          -0.5772    1.7581   20.8584 O.3     1  UNL1       -0.4740
     34 C          -1.2249    2.9413   20.2023 C.3     1  UNL1        0.2226
     35 C          -2.5276    3.4693   20.7259 C.3     1  UNL1        0.1200
     36 N          -3.7292    3.5239   19.8298 N.3     1  UNL1       -0.2696
     37 C          -5.1445    3.2353   20.2343 C.3     1  UNL1        0.0722
     38 C          -6.0166    3.4097   19.0263 C.3     1  UNL1        0.0188
     39 C          -5.1403    3.8060   17.8753 C.3     1  UNL1        0.0188
     40 C          -3.7266    3.8766   18.3719 C.3     1  UNL1        0.0722
@<TRIPOS>BOND
     1    21    22    1
     2    22    13    1
     3    13    14   ar
     4    14    15   ar
     5    15    23    1
     6    23    24    1
     7    15    16   ar
     8    16    17    1
     9    16    18   ar
    10    18     7    1
    11     7     8   am
    12     8     9    2
    13     8    10   am
    14    10    11    1
    15    10     1    1
    16     1     2   ar
    17     2     3   ar
    18     3    25    1
    19    25    27    1
    20    27    28   ar
    21    28    29   ar
    22    29    30   ar
    23    30    33    1
    24    33    34    1
    25    34    35    1
    26    35    36    1
    27    36    37    1
    28    37    38    1
    29    38    39    1
    30    39    40    1
    31    30    31   ar
    32    31    32   ar
    33     3     4   ar
    34     4     5   ar
    35     5     6   ar
    36    18    19   ar
    37    19    20    1
    38    19    13   ar
    39     6     1   ar
    40    32    27   ar
    41    40    36    1
    42     7    12    1
    43    25    26    1
@<TRIPOS>MOLECULE
*****
 40 43 0 0 0
SMALL
GASTEIGER

@<TRIPOS>ATOM
      1 C           1.7194    1.3353   27.1060 C.ar    1  UNL1        0.1432
      2 C           2.4349    0.5799   28.1864 C.ar    1  UNL1        0.0691
      3 C           1.6527   -0.2104   29.1931 C.ar    1  UNL1        0.1368
      4 N           0.1549   -0.2451   29.1196 N.ar    1  UNL1       -0.2088
      5 C          -0.5607    0.5104   28.0391 C.ar    1  UNL1        0.2012
      6 N           0.2216    1.3006   27.0324 N.ar    1  UNL1       -0.2085
      7 N           2.1727    0.2286   24.3547 N.am    1  UNL1       -0.2663
      8 C           2.7283    1.5722   24.7235 C.2     1  UNL1        0.3126
      9 O           3.5106    2.3624   23.7167 O.2     1  UNL1       -0.2519
     10 N           2.5017    2.1256   26.0992 N.am    1  UNL1       -0.2261
     11 C           3.0573    3.4691   26.4681 C.3     1  UNL1        0.1231
     12 H           1.6593   -0.2900   25.0155 H       1  UNL1        0.1565
     13 C           1.7652   -0.4251   20.4615 C.ar    1  UNL1        0.1535
     14 C           2.8526   -1.4315   20.2277 C.ar    1  UNL1        0.0756
     15 C           3.7134   -1.8845   21.3696 C.ar    1  UNL1        0.1535
     16 C           3.4868   -1.3312   22.7452 C.ar    1  UNL1        0.1060
     17 CL          4.3476   -1.7843   23.8870 Cl      1  UNL1       -0.0777
     18 C           2.3994   -0.3248   22.9790 C.ar    1  UNL1        0.0788
     19 C           1.5386    0.1283   21.8371 C.ar    1  UNL1        0.1060
     20 CL          0.4512    1.1347   22.0710 Cl      1  UNL1       -0.0777
     21 C           1.3281    1.1951   18.4781 C.3     1  UNL1        0.2525
     22 O           0.9044    0.0280   19.3197 O.3     1  UNL1       -0.4704
     23 O           4.8008   -2.8910   21.1357 O.3     1  UNL1       -0.4704
     24 C           4.5944   -4.0027   20.1501 C.3     1  UNL1        0.2525
     25 N           2.3682   -0.9659   30.2735 N.pl3   1  UNL1       -0.2978
     26 H           2.5099   -1.9361   30.1847 H       1  UNL1        0.1536
     27 C           2.8678   -0.2432   31.4893 C.ar    1  UNL1        0.0496
     28 C           2.3594    1.1320   31.8062 C.ar    1  UNL1        0.0178
     29 C           2.8589    1.8547   33.0219 C.ar    1  UNL1        0.0382
     30 C           3.8670    1.2022   33.9208 C.ar    1  UNL1        0.1387
     31 C           4.3754   -0.1729   33.6040 C.ar    1  UNL1        0.0382
     32 C           3.8759   -0.8956   32.3883 C.ar    1  UNL1        0.0178
     33 O           4.3666    1.9249   35.1366 O.3     1  UNL1       -0.4740
     34 C           3.4349    2.7939   35.9283 C.3     1  UNL1        0.2226
     35 C           3.5261    2.8227   37.4252 C.3     1  UNL1        0.1200
     36 N           2.4828    2.1333   38.2536 N.3     1  UNL1       -0.2696
     37 C           2.4916    0.6894   38.6597 C.3     1  UNL1        0.0722
     38 C           1.2617    0.4305   39.4784 C.3     1  UNL1        0.0188
     39 C           0.4927    1.7146   39.5784 C.3     1  UNL1        0.0188
     40 C           1.2474    2.7669   38.8214 C.3     1  UNL1        0.0722
@<TRIPOS>BOND
     1    21    22    1
     2    22    13    1
     3    13    14   ar
     4    14    15   ar
     5    15    23    1
     6    23    24    1
     7    15    16   ar
     8    16    17    1
     9    16    18   ar
    10    18     7    1
    11     7     8   am
    12     8     9    2
    13     8    10   am
    14    10    11    1
    15    10     1    1
    16     1     2   ar
    17     2     3   ar
    18     3    25    1
    19    25    27    1
    20    27    28   ar
    21    28    29   ar
    22    29    30   ar
    23    30    33    1
    24    33    34    1
    25    34    35    1
    26    35    36    1
    27    36    37    1
    28    37    38    1
    29    38    39    1
    30    39    40    1
    31    30    31   ar
    32    31    32   ar
    33     3     4   ar
    34     4     5   ar
    35     5     6   ar
    36    18    19   ar
    37    19    20    1
    38    19    13   ar
    39     6     1   ar
    40    32    27   ar
    41    40    36    1
    42     7    12    1
    43    25    26    1
@<TRIPOS>MOLECULE
*****
 40 43 0 0 0
SMALL
GASTEIGER

@<TRIPOS>ATOM
      1 C           7.0374   -2.8711   28.3684 C.ar    1  UNL1        0.1432
      2 C           6.9303   -2.8629   29.8645 C.ar    1  UNL1        0.0691
      3 C           6.6660   -4.1406   30.6046 C.ar    1  UNL1        0.1368
      4 N           6.5088   -5.4265   29.8485 N.ar    1  UNL1       -0.2088
      5 C           6.6159   -5.4347   28.3523 C.ar    1  UNL1        0.2012
      6 N           6.8802   -4.1571   27.6122 N.ar    1  UNL1       -0.2085
      7 N           5.3964   -2.1669   25.9578 N.am    1  UNL1       -0.2663
      8 C           6.4812   -1.2413   26.4230 C.2     1  UNL1        0.3126
      9 O           6.7455    0.0364   25.6830 O.2     1  UNL1       -0.2519
     10 N           7.3018   -1.5934   27.6283 N.am    1  UNL1       -0.2261
     11 C           8.3866   -0.6679   28.0936 C.3     1  UNL1        0.1231
     12 H           5.2229   -3.0054   26.4435 H       1  UNL1        0.1565
     13 C           2.7192   -0.3815   23.6350 C.ar    1  UNL1        0.1535
     14 C           2.9347   -1.1105   22.3420 C.ar    1  UNL1        0.0756
     15 C           3.9708   -2.1916   22.2541 C.ar    1  UNL1        0.1535
     16 C           4.7913   -2.5437   23.4594 C.ar    1  UNL1        0.1060
     17 CL          5.8274   -3.6248   23.3716 Cl      1  UNL1       -0.0777
     18 C           4.5758   -1.8147   24.7524 C.ar    1  UNL1        0.0788
     19 C           3.5397   -0.7336   24.8403 C.ar    1  UNL1        0.1060
     20 CL          3.3242   -0.0046   26.1334 Cl      1  UNL1       -0.0777
     21 C           2.0859    2.1376   23.5824 C.3     1  UNL1        0.2525
     22 O           1.6831    0.6996   23.7229 O.3     1  UNL1       -0.4704
     23 O           4.1863   -2.9206   20.9610 O.3     1  UNL1       -0.4704
     24 C           3.7615   -2.2931   19.6665 C.3     1  UNL1        0.2525
     25 N           6.5589   -4.1323   32.1007 N.pl3   1  UNL1       -0.2978
     26 H           6.7872   -4.9402   32.6150 H       1  UNL1        0.1536
     27 C           6.1039   -2.8932   32.8133 C.ar    1  UNL1        0.0496
     28 C           7.0860   -1.8024   33.1223 C.ar    1  UNL1        0.0178
     29 C           6.6311   -0.5633   33.8348 C.ar    1  UNL1        0.0382
     30 C           5.1940   -0.4152   34.2383 C.ar    1  UNL1        0.1387
     31 C           4.2119   -1.5060   33.9293 C.ar    1  UNL1        0.0382
     32 C           4.6668   -2.7451   33.2168 C.ar    1  UNL1        0.0178
     33 O           4.7390    0.8239   34.9509 O.3     1  UNL1       -0.4740
     34 C           4.3109    0.7490   36.3866 C.3     1  UNL1        0.2226
     35 C           3.7721    1.9689   37.0732 C.3     1  UNL1        0.1200
     36 N           2.5892    1.8536   37.9883 N.3     1  UNL1       -0.2696
     37 C           1.5995    2.9394   38.2911 C.3     1  UNL1        0.0722
     38 C           0.5870    2.3891   39.2513 C.3     1  UNL1        0.0188
     39 C           0.9508    0.9632   39.5419 C.3     1  UNL1        0.0188
     40 C           2.1883    0.6323   38.7613 C.3     1  UNL1        0.0722
@<TRIPOS>BOND
     1    21    22    1
     2    22    13    1
     3    13    14   ar
     4    14    15   ar
     5    15    23    1
     6    23    24    1
     7    15    16   ar
     8    16    17    1
     9    16    18   ar
    10    18     7    1
    11     7     8   am
    12     8     9    2
    13     8    10   am
    14    10    11    1
    15    10     1    1
    16     1     2   ar
    17     2     3   ar
    18     3    25    1
    19    25    27    1
    20    27    28   ar
    21    28    29   ar
    22    29    30   ar
    23    30    33    1
    24    33    34    1
    25    34    35    1
    26    35    36    1
    27    36    37    1
    28    37    38    1
    29    38    39    1
    30    39    40    1
    31    30    31   ar
    32    31    32   ar
    33     3     4   ar
    34     4     5   ar
    35     5     6   ar
    36    18    19   ar
    37    19    20    1
    38    19    13   ar
    39     6     1   ar
    40    32    27   ar
    41    40    36    1
    42     7    12    1
    43    25    26    1
@<TRIPOS>MOLECULE
*****
 40 43 0 0 0
SMALL
GASTEIGER

@<TRIPOS>ATOM
      1 C           7.4815   -3.0672   28.1442 C.ar    1  UNL1        0.1432
      2 C           7.6762   -2.8512   29.6157 C.ar    1  UNL1        0.0691
      3 C           7.2381   -3.9019   30.5925 C.ar    1  UNL1        0.1368
      4 N           6.6053   -5.1687   30.0978 N.ar    1  UNL1       -0.2088
      5 C           6.4105   -5.3848   28.6262 C.ar    1  UNL1        0.2012
      6 N           6.8486   -4.3340   27.6494 N.ar    1  UNL1       -0.2085
      7 N           5.7281   -2.3603   25.8148 N.am    1  UNL1       -0.2663
      8 C           7.0428   -1.6630   26.0027 C.2     1  UNL1        0.3126
      9 O           7.4809   -0.6123   25.0260 O.2     1  UNL1       -0.2519
     10 N           7.9195   -2.0165   27.1675 N.am    1  UNL1       -0.2261
     11 C           9.2342   -1.3192   27.3554 C.3     1  UNL1        0.1231
     12 H           5.4406   -3.0499   26.4559 H       1  UNL1        0.1565
     13 C           4.1394   -2.3703   22.1781 C.ar    1  UNL1        0.1535
     14 C           3.0982   -1.3000   22.3207 C.ar    1  UNL1        0.0756
     15 C           2.9336   -0.5831   23.6280 C.ar    1  UNL1        0.1535
     16 C           3.8102   -0.9365   24.7927 C.ar    1  UNL1        0.1060
     17 CL          3.6457   -0.2197   26.1000 Cl      1  UNL1       -0.0777
     18 C           4.8514   -2.0068   24.6501 C.ar    1  UNL1        0.0788
     19 C           5.0160   -2.7237   23.3428 C.ar    1  UNL1        0.1060
     20 CL          6.0572   -3.7940   23.2002 Cl      1  UNL1       -0.0777
     21 C           3.4604   -2.7008   19.6922 C.3     1  UNL1        0.2525
     22 O           4.3039   -3.0872   20.8708 O.3     1  UNL1       -0.4704
     23 O           1.8924    0.4872   23.7705 O.3     1  UNL1       -0.4704
     24 C           1.3012    1.1259   22.5488 C.3     1  UNL1        0.2525
     25 N           7.4329   -3.6859   32.0640 N.pl3   1  UNL1       -0.2978
     26 H           8.0836   -4.2334   32.5600 H       1  UNL1        0.1536
     27 C           6.6362   -2.6356   32.7798 C.ar    1  UNL1        0.0496
     28 C           7.3174   -1.4087   33.3096 C.ar    1  UNL1        0.0178
     29 C           6.5207   -0.3585   34.0253 C.ar    1  UNL1        0.0382
     30 C           5.0429   -0.5352   34.2114 C.ar    1  UNL1        0.1387
     31 C           4.3617   -1.7621   33.6816 C.ar    1  UNL1        0.0382
     32 C           5.1583   -2.8123   32.9658 C.ar    1  UNL1        0.0178
     33 O           4.2461    0.5150   34.9272 O.3     1  UNL1       -0.4740
     34 C           4.2297    0.5518   36.4266 C.3     1  UNL1        0.2226
     35 C           3.7851    1.7931   37.1416 C.3     1  UNL1        0.1200
     36 N           2.5906    1.7496   38.0478 N.3     1  UNL1       -0.2696
     37 C           1.6463    2.8835   38.3171 C.3     1  UNL1        0.0722
     38 C           0.6028    2.3992   39.2796 C.3     1  UNL1        0.0188
     39 C           0.9021    0.9659   39.6052 C.3     1  UNL1        0.0188
     40 C           2.1306    0.5644   38.8439 C.3     1  UNL1        0.0722
@<TRIPOS>BOND
     1    21    22    1
     2    22    13    1
     3    13    14   ar
     4    14    15   ar
     5    15    23    1
     6    23    24    1
     7    15    16   ar
     8    16    17    1
     9    16    18   ar
    10    18     7    1
    11     7     8   am
    12     8     9    2
    13     8    10   am
    14    10    11    1
    15    10     1    1
    16     1     2   ar
    17     2     3   ar
    18     3    25    1
    19    25    27    1
    20    27    28   ar
    21    28    29   ar
    22    29    30   ar
    23    30    33    1
    24    33    34    1
    25    34    35    1
    26    35    36    1
    27    36    37    1
    28    37    38    1
    29    38    39    1
    30    39    40    1
    31    30    31   ar
    32    31    32   ar
    33     3     4   ar
    34     4     5   ar
    35     5     6   ar
    36    18    19   ar
    37    19    20    1
    38    19    13   ar
    39     6     1   ar
    40    32    27   ar
    41    40    36    1
    42     7    12    1
    43    25    26    1
@<TRIPOS>MOLECULE
*****
 40 43 0 0 0
SMALL
GASTEIGER

@<TRIPOS>ATOM
      1 C           0.6108    2.4086   19.7942 C.ar    1  UNL1        0.1432
      2 C           1.4435    1.9055   18.6525 C.ar    1  UNL1        0.0691
      3 C           1.8199    0.4552   18.5808 C.ar    1  UNL1        0.1368
      4 N           1.3635   -0.4919   19.6507 N.ar    1  UNL1       -0.2088
      5 C           0.5308    0.0113   20.7924 C.ar    1  UNL1        0.2012
      6 N           0.1544    1.4615   20.8642 N.ar    1  UNL1       -0.2085
      7 N          -2.2637    3.1973   20.1338 N.am    1  UNL1       -0.2663
      8 C          -1.2029    4.2532   20.0357 C.2     1  UNL1        0.3126
      9 O          -1.5792    5.7035   20.1074 O.2     1  UNL1       -0.2519
     10 N           0.2344    3.8589   19.8659 N.am    1  UNL1       -0.2261
     11 C           1.2953    4.9148   19.7679 C.3     1  UNL1        0.1231
     12 H          -2.0167    2.2455   20.0867 H       1  UNL1        0.1565
     13 C          -5.7124    4.1536   21.8490 C.ar    1  UNL1        0.1535
     14 C          -6.5754    4.3803   20.6432 C.ar    1  UNL1        0.0756
     15 C          -6.0012    4.2126   19.2677 C.ar    1  UNL1        0.1535
     16 C          -4.5640    3.8183   19.0978 C.ar    1  UNL1        0.1060
     17 CL         -3.9898    3.6507   17.7223 Cl      1  UNL1       -0.0777
     18 C          -3.7010    3.5917   20.3036 C.ar    1  UNL1        0.0788
     19 C          -4.2752    3.7593   21.6791 C.ar    1  UNL1        0.1060
     20 CL         -3.4122    3.5326   22.8849 Cl      1  UNL1       -0.0777
     21 C          -7.7695    4.4549   23.4071 C.3     1  UNL1        0.2525
     22 O          -6.2867    4.3213   23.2245 O.3     1  UNL1       -0.4704
     23 O          -6.8643    4.4393   18.0619 O.3     1  UNL1       -0.4704
     24 C          -6.8185    5.7553   17.3436 C.3     1  UNL1        0.2525
     25 N           2.6526   -0.0480   17.4392 N.pl3   1  UNL1       -0.2978
     26 H           2.3014   -0.0113   16.5202 H       1  UNL1        0.1536
     27 C           4.0203   -0.6070   17.6978 C.ar    1  UNL1        0.0496
     28 C           4.1939   -2.0739   17.9591 C.ar    1  UNL1        0.0178
     29 C           5.5615   -2.6329   18.2176 C.ar    1  UNL1        0.0382
     30 C           6.7556   -1.7252   18.2149 C.ar    1  UNL1        0.1387
     31 C           6.5821   -0.2584   17.9536 C.ar    1  UNL1        0.0382
     32 C           5.2144    0.3007   17.6951 C.ar    1  UNL1        0.0178
     33 O           8.1234   -2.2843   18.4735 O.3     1  UNL1       -0.4740
     34 C           8.5165   -2.6923   19.8624 C.3     1  UNL1        0.2226
     35 C           7.9245   -1.9879   21.0469 C.3     1  UNL1        0.1200
     36 N           6.5463   -2.3443   21.5198 N.3     1  UNL1       -0.2696
     37 C           5.4032   -1.3906   21.7037 C.3     1  UNL1        0.0722
     38 C           4.2196   -2.1738   22.1893 C.3     1  UNL1        0.0188
     39 C           4.6313   -3.6115   22.3056 C.3     1  UNL1        0.0188
     40 C           6.0692   -3.7169   21.8918 C.3     1  UNL1        0.0722
@<TRIPOS>BOND
     1    21    22    1
     2    22    13    1
     3    13    14   ar
     4    14    15   ar
     5    15    23    1
     6    23    24    1
     7    15    16   ar
     8    16    17    1
     9    16    18   ar
    10    18     7    1
    11     7     8   am
    12     8     9    2
    13     8    10   am
    14    10    11    1
    15    10     1    1
    16     1     2   ar
    17     2     3   ar
    18     3    25    1
    19    25    27    1
    20    27    28   ar
    21    28    29   ar
    22    29    30   ar
    23    30    33    1
    24    33    34    1
    25    34    35    1
    26    35    36    1
    27    36    37    1
    28    37    38    1
    29    38    39    1
    30    39    40    1
    31    30    31   ar
    32    31    32   ar
    33     3     4   ar
    34     4     5   ar
    35     5     6   ar
    36    18    19   ar
    37    19    20    1
    38    19    13   ar
    39     6     1   ar
    40    32    27   ar
    41    40    36    1
    42     7    12    1
    43    25    26    1
@<TRIPOS>MOLECULE
*****
 40 43 0 0 0
SMALL
GASTEIGER

@<TRIPOS>ATOM
      1 C           4.2827   -0.0062   28.4970 C.ar    1  UNL1        0.1432
      2 C           4.5738   -0.5581   29.8610 C.ar    1  UNL1        0.0691
      3 C           3.4452   -0.9522   30.7671 C.ar    1  UNL1        0.1368
      4 N           2.0256   -0.7945   30.3092 N.ar    1  UNL1       -0.2088
      5 C           1.7345   -0.2426   28.9451 C.ar    1  UNL1        0.2012
      6 N           2.8630    0.1516   28.0390 N.ar    1  UNL1       -0.2085
      7 N           4.6271   -1.3725   25.8484 N.am    1  UNL1       -0.2663
      8 C           5.5834   -0.2953   26.2666 C.2     1  UNL1        0.3126
      9 O           6.7120    0.0989   25.3604 O.2     1  UNL1       -0.2519
     10 N           5.4113    0.3879   27.5909 N.am    1  UNL1       -0.2261
     11 C           6.3676    1.4652   28.0090 C.3     1  UNL1        0.1231
     12 H           3.8864   -1.6312   26.4431 H       1  UNL1        0.1565
     13 C           4.1229   -2.3337   22.0311 C.ar    1  UNL1        0.1535
     14 C           5.1434   -3.4219   21.8756 C.ar    1  UNL1        0.0756
     15 C           5.9919   -3.8270   23.0444 C.ar    1  UNL1        0.1535
     16 C           5.8198   -3.1439   24.3686 C.ar    1  UNL1        0.1060
     17 CL          6.6682   -3.5489   25.5374 Cl      1  UNL1       -0.0777
     18 C           4.7992   -2.0557   24.5241 C.ar    1  UNL1        0.0788
     19 C           3.9508   -1.6506   23.3553 C.ar    1  UNL1        0.1060
     20 CL          2.9301   -0.5623   23.5109 Cl      1  UNL1       -0.0777
     21 C           3.4039   -2.6523   19.5549 C.3     1  UNL1        0.2525
     22 O           3.2744   -1.9286   20.8623 O.3     1  UNL1       -0.4704
     23 O           7.0125   -4.9152   22.8888 O.3     1  UNL1       -0.4704
     24 C           8.1381   -4.7535   21.9106 C.3     1  UNL1        0.2525
     25 N           3.7363   -1.5041   32.1312 N.pl3   1  UNL1       -0.2978
     26 H           3.7527   -2.4779   32.2750 H       1  UNL1        0.1536
     27 C           4.0024   -0.5722   33.2762 C.ar    1  UNL1        0.0496
     28 C           4.5779   -1.1020   34.5561 C.ar    1  UNL1        0.0178
     29 C           4.8440   -0.1702   35.7010 C.ar    1  UNL1        0.0382
     30 C           4.5346    1.2913   35.5661 C.ar    1  UNL1        0.1387
     31 C           3.9591    1.8210   34.2862 C.ar    1  UNL1        0.0382
     32 C           3.6930    0.8893   33.1412 C.ar    1  UNL1        0.0178
     33 O           4.8007    2.2231   36.7111 O.3     1  UNL1       -0.4740
     34 C           3.8354    3.3296   37.0174 C.3     1  UNL1        0.2226
     35 C           2.3646    3.0437   37.0882 C.3     1  UNL1        0.1200
     36 N           1.8221    2.1702   38.1803 N.3     1  UNL1       -0.2696
     37 C           0.7563    2.5497   39.1653 C.3     1  UNL1        0.0722
     38 C           0.5256    1.3779   40.0730 C.3     1  UNL1        0.0188
     39 C           1.4487    0.2743   39.6489 C.3     1  UNL1        0.0188
     40 C           2.2500    0.7640   38.4792 C.3     1  UNL1        0.0722
@<TRIPOS>BOND
     1    21    22    1
     2    22    13    1
     3    13    14   ar
     4    14    15   ar
     5    15    23    1
     6    23    24    1
     7    15    16   ar
     8    16    17    1
     9    16    18   ar
    10    18     7    1
    11     7     8   am
    12     8     9    2
    13     8    10   am
    14    10    11    1
    15    10     1    1
    16     1     2   ar
    17     2     3   ar
    18     3    25    1
    19    25    27    1
    20    27    28   ar
    21    28    29   ar
    22    29    30   ar
    23    30    33    1
    24    33    34    1
    25    34    35    1
    26    35    36    1
    27    36    37    1
    28    37    38    1
    29    38    39    1
    30    39    40    1
    31    30    31   ar
    32    31    32   ar
    33     3     4   ar
    34     4     5   ar
    35     5     6   ar
    36    18    19   ar
    37    19    20    1
    38    19    13   ar
    39     6     1   ar
    40    32    27   ar
    41    40    36    1
    42     7    12    1
    43    25    26    1
@<TRIPOS>MOLECULE
*****
 40 43 0 0 0
SMALL
GASTEIGER

@<TRIPOS>ATOM
      1 C           0.6473    3.5715   22.9357 C.ar    1  UNL1        0.1432
      2 C           0.9050    2.8209   21.6629 C.ar    1  UNL1        0.0691
      3 C          -0.2414    2.4263   20.7797 C.ar    1  UNL1        0.1368
      4 N          -1.6455    2.7823   21.1692 N.ar    1  UNL1       -0.2088
      5 C          -1.9032    3.5330   22.4421 C.ar    1  UNL1        0.2012
      6 N          -0.7568    3.9276   23.3253 N.ar    1  UNL1       -0.2085
      7 N           1.2456    1.9894   25.4134 N.am    1  UNL1       -0.2663
      8 C           2.0928    3.1750   25.0578 C.2     1  UNL1        0.3126
      9 O           3.2392    3.5696   25.9411 O.2     1  UNL1       -0.2519
     10 N           1.7937    3.9661   23.8189 N.am    1  UNL1       -0.2261
     11 C           2.6409    5.1517   23.4633 C.3     1  UNL1        0.1231
     12 H           0.4932    1.7304   24.8337 H       1  UNL1        0.1565
     13 C           2.8520   -0.7026   27.8471 C.ar    1  UNL1        0.1535
     14 C           2.1430   -0.3838   29.1299 C.ar    1  UNL1        0.0756
     15 C           1.1349    0.7260   29.1739 C.ar    1  UNL1        0.1535
     16 C           0.8357    1.5171   27.9351 C.ar    1  UNL1        0.1060
     17 CL         -0.1724    2.6269   27.9792 Cl      1  UNL1       -0.0777
     18 C           1.5447    1.1983   26.6523 C.ar    1  UNL1        0.0788
     19 C           2.5529    0.0885   26.6083 C.ar    1  UNL1        0.1060
     20 CL          3.2619   -0.2302   25.3254 Cl      1  UNL1       -0.0777
     21 C           5.2955   -1.5356   28.1395 C.3     1  UNL1        0.2525
     22 O           3.8602   -1.8124   27.8031 O.3     1  UNL1       -0.4704
     23 O           0.4259    1.0447   30.4569 O.3     1  UNL1       -0.4704
     24 C           1.0323    2.0136   31.4282 C.3     1  UNL1        0.2525
     25 N           0.0162    1.6756   19.5069 N.pl3   1  UNL1       -0.2978
     26 H          -0.6104    1.7570   18.7519 H       1  UNL1        0.1536
     27 C           1.2287    0.8009   19.3843 C.ar    1  UNL1        0.0496
     28 C           2.3596    1.2081   18.4870 C.ar    1  UNL1        0.0178
     29 C           3.5720    0.3335   18.3644 C.ar    1  UNL1        0.0382
     30 C           3.6535   -0.9483   19.1391 C.ar    1  UNL1        0.1387
     31 C           2.5225   -1.3556   20.0363 C.ar    1  UNL1        0.0382
     32 C           1.3101   -0.4810   20.1589 C.ar    1  UNL1        0.0178
     33 O           4.8659   -1.8231   19.0165 O.3     1  UNL1       -0.4740
     34 C           4.7172   -3.2574   18.6034 C.3     1  UNL1        0.2226
     35 C           5.1170   -4.3544   19.5450 C.3     1  UNL1        0.1200
     36 N           5.4879   -4.0288   20.9616 N.3     1  UNL1       -0.2696
     37 C           4.5301   -3.7563   22.0833 C.3     1  UNL1        0.0722
     38 C           5.3319   -3.4777   23.3201 C.3     1  UNL1        0.0188
     39 C           6.7852   -3.5780   22.9626 C.3     1  UNL1        0.0188
     40 C           6.8816   -3.9186   21.5050 C.3     1  UNL1        0.0722
@<TRIPOS>BOND
     1    21    22    1
     2    22    13    1
     3    13    14   ar
     4    14    15   ar
     5    15    23    1
     6    23    24    1
     7    15    16   ar
     8    16    17    1
     9    16    18   ar
    10    18     7    1
    11     7     8   am
    12     8     9    2
    13     8    10   am
    14    10    11    1
    15    10     1    1
    16     1     2   ar
    17     2     3   ar
    18     3    25    1
    19    25    27    1
    20    27    28   ar
    21    28    29   ar
    22    29    30   ar
    23    30    33    1
    24    33    34    1
    25    34    35    1
    26    35    36    1
    27    36    37    1
    28    37    38    1
    29    38    39    1
    30    39    40    1
    31    30    31   ar
    32    31    32   ar
    33     3     4   ar
    34     4     5   ar
    35     5     6   ar
    36    18    19   ar
    37    19    20    1
    38    19    13   ar
    39     6     1   ar
    40    32    27   ar
    41    40    36    1
    42     7    12    1
    43    25    26    1
@<TRIPOS>MOLECULE
*****
 40 43 0 0 0
SMALL
GASTEIGER

@<TRIPOS>ATOM
      1 C           7.7015   -3.5793   28.5524 C.ar    1  UNL1        0.1432
      2 C           7.3329   -3.3374   29.9861 C.ar    1  UNL1        0.0691
      3 C           6.9311   -4.4873   30.8615 C.ar    1  UNL1        0.1368
      4 N           6.8979   -5.8791   30.3032 N.ar    1  UNL1       -0.2088
      5 C           7.2664   -6.1210   28.8694 C.ar    1  UNL1        0.2012
      6 N           7.6682   -4.9711   27.9940 N.ar    1  UNL1       -0.2085
      7 N           6.3504   -3.1652   25.9060 N.am    1  UNL1       -0.2663
      8 C           7.4277   -2.2224   26.3538 C.2     1  UNL1        0.3126
      9 O           7.8295   -1.0725   25.4784 O.2     1  UNL1       -0.2519
     10 N           8.1032   -2.4294   27.6770 N.am    1  UNL1       -0.2261
     11 C           9.1805   -1.4866   28.1248 C.3     1  UNL1        0.1231
     12 H           6.0867   -3.9199   26.4806 H       1  UNL1        0.1565
     13 C           3.8749   -1.7657   23.1377 C.ar    1  UNL1        0.1535
     14 C           4.3238   -2.5440   21.9365 C.ar    1  UNL1        0.0756
     15 C           5.4482   -3.5293   22.0585 C.ar    1  UNL1        0.1535
     16 C           6.1238   -3.7363   23.3816 C.ar    1  UNL1        0.1060
     17 CL          7.2482   -4.7216   23.5036 Cl      1  UNL1       -0.0777
     18 C           5.6749   -2.9581   24.5828 C.ar    1  UNL1        0.0788
     19 C           4.5505   -1.9728   24.4608 C.ar    1  UNL1        0.1060
     20 CL          4.1016   -1.1946   25.6621 Cl      1  UNL1       -0.0777
     21 C           2.5454   -0.0316   21.7323 C.3     1  UNL1        0.2525
     22 O           2.7505   -0.7804   23.0157 O.3     1  UNL1       -0.4704
     23 O           5.8971   -4.3075   20.8572 O.3     1  UNL1       -0.4704
     24 C           5.0976   -4.2568   19.5891 C.3     1  UNL1        0.2525
     25 N           6.5625   -4.2454   32.2952 N.pl3   1  UNL1       -0.2978
     26 H           6.6559   -4.9689   32.9563 H       1  UNL1        0.1536
     27 C           6.0517   -2.9011   32.7218 C.ar    1  UNL1        0.0496
     28 C           6.9974   -1.7430   32.8422 C.ar    1  UNL1        0.0178
     29 C           6.4867   -0.3988   33.2687 C.ar    1  UNL1        0.0382
     30 C           5.0301   -0.2125   33.5748 C.ar    1  UNL1        0.1387
     31 C           4.0844   -1.3705   33.4544 C.ar    1  UNL1        0.0382
     32 C           4.5951   -2.7148   33.0278 C.ar    1  UNL1        0.0178
     33 O           4.5193    1.1318   34.0014 O.3     1  UNL1       -0.4740
     34 C           3.0966    1.5166   33.7223 C.3     1  UNL1        0.2226
     35 C           2.6963    1.9631   32.3474 C.3     1  UNL1        0.1200
     36 N           3.1097    1.1618   31.1486 N.3     1  UNL1       -0.2696
     37 C           2.3341    0.0368   30.5299 C.3     1  UNL1        0.0722
     38 C           3.1162   -0.4755   29.3569 C.3     1  UNL1        0.0188
     39 C           4.3753    0.3330   29.2507 C.3     1  UNL1        0.0188
     40 C           4.3712    1.3448   30.3580 C.3     1  UNL1        0.0722
@<TRIPOS>BOND
     1    21    22    1
     2    22    13    1
     3    13    14   ar
     4    14    15   ar
     5    15    23    1
     6    23    24    1
     7    15    16   ar
     8    16    17    1
     9    16    18   ar
    10    18     7    1
    11     7     8   am
    12     8     9    2
    13     8    10   am
    14    10    11    1
    15    10     1    1
    16     1     2   ar
    17     2     3   ar
    18     3    25    1
    19    25    27    1
    20    27    28   ar
    21    28    29   ar
    22    29    30   ar
    23    30    33    1
    24    33    34    1
    25    34    35    1
    26    35    36    1
    27    36    37    1
    28    37    38    1
    29    38    39    1
    30    39    40    1
    31    30    31   ar
    32    31    32   ar
    33     3     4   ar
    34     4     5   ar
    35     5     6   ar
    36    18    19   ar
    37    19    20    1
    38    19    13   ar
    39     6     1   ar
    40    32    27   ar
    41    40    36    1
    42     7    12    1
    43    25    26    1
