@<TRIPOS>MOLECULE
*****
 24 27 0 0 0
SMALL
GASTEIGER

@<TRIPOS>ATOM
      1 C          -7.7914  -19.2608   21.6246 C.ar    1  UNL1       -0.0144
      2 C          -8.3912  -19.5748   20.2861 C.ar    1  UNL1        0.0051
      3 S          -7.2751  -19.9361   19.3514 S.2     1  UNL1       -0.0915
      4 C          -5.9855  -19.8454   20.1122 C.ar    1  UNL1        0.0288
      5 C          -4.5619  -20.0889   19.7072 C.ar    1  UNL1        0.0065
      6 C          -3.4575  -19.9151   20.7072 C.ar    1  UNL1        0.0005
      7 C          -3.7767  -19.4978   22.1121 C.ar    1  UNL1        0.0000
      8 C          -5.2002  -19.2542   22.5172 C.ar    1  UNL1        0.0002
      9 C          -6.3047  -19.4280   21.5172 C.ar    1  UNL1        0.0025
     10 C          -9.4891  -19.8154   23.5116 C.3     1  UNL1        0.0110
     11 C          -8.5460  -18.8514   22.8547 C.3     1  UNL1        0.0627
     12 C          -8.3575  -17.4783   23.4280 C.ar    1  UNL1        0.0627
     13 C          -9.0635  -17.0903   24.6934 C.ar    1  UNL1        0.0151
     14 C          -8.8750  -15.7171   25.2668 C.ar    1  UNL1        0.0028
     15 C          -7.9805  -14.7317   24.5747 C.ar    1  UNL1        0.0207
     16 C          -7.2745  -15.1196   23.3093 C.ar    1  UNL1        0.0985
     17 N          -7.4630  -16.4928   22.7360 N.ar    1  UNL1       -0.2478
     18 C          -9.8508  -19.5345   19.9426 C.3     1  UNL1        0.0499
     19 C         -10.5411  -18.2161   19.7555 C.3     1  UNL1        0.0773
     20 N         -11.2473  -17.5688   20.9097 N.3     1  UNL1       -0.2724
     21 C         -11.0544  -16.1583   21.3826 C.3     1  UNL1        0.0721
     22 C         -11.9583  -15.9361   22.5588 C.3     1  UNL1        0.0188
     23 C         -12.7099  -17.2091   22.8129 C.3     1  UNL1        0.0188
     24 C         -12.2705  -18.2181   21.7937 C.3     1  UNL1        0.0721
@<TRIPOS>BOND
     1    11    10    1
     2    11    12    1
     3    12    13   ar
     4    13    14   ar
     5    14    15   ar
     6    15    16   ar
     7    16    17   ar
     8    11     1    1
     9     1     2   ar
    10     2    18    1
    11    18    19    1
    12    19    20    1
    13    20    21    1
    14    21    22    1
    15    22    23    1
    16    23    24    1
    17     2     3   ar
    18     3     4   ar
    19     4     5   ar
    20     5     6   ar
    21     6     7   ar
    22     7     8   ar
    23     8     9   ar
    24    17    12   ar
    25     9     1   ar
    26    24    20    1
    27     9     4   ar
@<TRIPOS>MOLECULE
*****
 24 27 0 0 0
SMALL
GASTEIGER

@<TRIPOS>ATOM
      1 C          -8.6672  -17.0021   22.5285 C.ar    1  UNL1       -0.0144
      2 C          -8.0578  -18.3101   22.1187 C.ar    1  UNL1        0.0051
      3 S          -9.1697  -19.2354   21.7222 S.2     1  UNL1       -0.0915
      4 C         -10.4663  -18.4994   21.8869 C.ar    1  UNL1        0.0288
      5 C         -11.8897  -18.9077   21.6476 C.ar    1  UNL1        0.0065
      6 C         -13.0024  -17.9358   21.9065 C.ar    1  UNL1        0.0005
      7 C         -12.6918  -16.5555   22.4048 C.ar    1  UNL1        0.0000
      8 C         -11.2684  -16.1472   22.6442 C.ar    1  UNL1        0.0002
      9 C         -10.1557  -17.1191   22.3853 C.ar    1  UNL1        0.0025
     10 C          -7.5657  -14.7030   22.0275 C.3     1  UNL1        0.0110
     11 C          -7.9193  -15.7899   22.9990 C.3     1  UNL1        0.0627
     12 C          -7.5250  -15.6646   24.4407 C.ar    1  UNL1        0.0627
     13 C          -8.5757  -15.6935   25.5109 C.ar    1  UNL1        0.0151
     14 C          -8.1815  -15.5682   26.9527 C.ar    1  UNL1        0.0028
     15 C          -6.7364  -15.4140   27.3244 C.ar    1  UNL1        0.0207
     16 C          -5.6857  -15.3851   26.2542 C.ar    1  UNL1        0.0985
     17 N          -6.0800  -15.5104   24.8124 N.ar    1  UNL1       -0.2478
     18 C          -6.5935  -18.6355   22.1074 C.3     1  UNL1        0.0499
     19 C          -5.9527  -19.1658   20.8592 C.3     1  UNL1        0.0773
     20 N          -4.4676  -19.0610   20.6758 N.3     1  UNL1       -0.2724
     21 C          -3.7616  -18.6438   19.4198 C.3     1  UNL1        0.0721
     22 C          -2.2855  -18.6800   19.6840 C.3     1  UNL1        0.0188
     23 C          -2.0792  -19.1195   21.1033 C.3     1  UNL1        0.0188
     24 C          -3.4279  -19.3550   21.7162 C.3     1  UNL1        0.0721
@<TRIPOS>BOND
     1    11    10    1
     2    11    12    1
     3    12    13   ar
     4    13    14   ar
     5    14    15   ar
     6    15    16   ar
     7    16    17   ar
     8    11     1    1
     9     1     2   ar
    10     2    18    1
    11    18    19    1
    12    19    20    1
    13    20    21    1
    14    21    22    1
    15    22    23    1
    16    23    24    1
    17     2     3   ar
    18     3     4   ar
    19     4     5   ar
    20     5     6   ar
    21     6     7   ar
    22     7     8   ar
    23     8     9   ar
    24    17    12   ar
    25     9     1   ar
    26    24    20    1
    27     9     4   ar
@<TRIPOS>MOLECULE
*****
 24 27 0 0 0
SMALL
GASTEIGER

@<TRIPOS>ATOM
      1 C          -6.6530  -17.8214   22.7035 C.ar    1  UNL1       -0.0144
      2 C          -7.2907  -19.1110   22.2788 C.ar    1  UNL1        0.0051
      3 S          -6.1986  -20.0584   21.8790 S.2     1  UNL1       -0.0915
      4 C          -4.8861  -19.3544   22.0566 C.ar    1  UNL1        0.0288
      5 C          -3.4715  -19.7936   21.8202 C.ar    1  UNL1        0.0065
      6 C          -2.3377  -18.8503   22.0933 C.ar    1  UNL1        0.0005
      7 C          -2.6185  -17.4678   22.6029 C.ar    1  UNL1        0.0000
      8 C          -4.0331  -17.0285   22.8394 C.ar    1  UNL1        0.0002
      9 C          -5.1669  -17.9718   22.5662 C.ar    1  UNL1        0.0025
     10 C          -8.1754  -15.7731   22.2166 C.3     1  UNL1        0.0110
     11 C          -7.3747  -16.5965   23.1817 C.3     1  UNL1        0.0627
     12 C          -7.2959  -16.1948   24.6246 C.ar    1  UNL1        0.0627
     13 C          -8.4678  -16.4247   25.5323 C.ar    1  UNL1        0.0151
     14 C          -8.3890  -16.0230   26.9754 C.ar    1  UNL1        0.0028
     15 C          -7.1382  -15.3913   27.5108 C.ar    1  UNL1        0.0207
     16 C          -5.9664  -15.1614   26.6032 C.ar    1  UNL1        0.0985
     17 N          -6.0452  -15.5631   25.1601 N.ar    1  UNL1       -0.2478
     18 C          -8.7620  -19.4020   22.2576 C.3     1  UNL1        0.0499
     19 C          -9.5855  -19.0174   21.0644 C.3     1  UNL1        0.0773
     20 N         -10.6882  -18.0106   21.2072 N.3     1  UNL1       -0.2724
     21 C         -11.3036  -17.2134   20.0954 C.3     1  UNL1        0.0721
     22 C         -12.3649  -16.3343   20.6879 C.3     1  UNL1        0.0188
     23 C         -12.4054  -16.5881   22.1658 C.3     1  UNL1        0.0188
     24 C         -11.3691  -17.6241   22.4866 C.3     1  UNL1        0.0721
@<TRIPOS>BOND
     1    11    10    1
     2    11    12    1
     3    12    13   ar
     4    13    14   ar
     5    14    15   ar
     6    15    16   ar
     7    16    17   ar
     8    11     1    1
     9     1     2   ar
    10     2    18    1
    11    18    19    1
    12    19    20    1
    13    20    21    1
    14    21    22    1
    15    22    23    1
    16    23    24    1
    17     2     3   ar
    18     3     4   ar
    19     4     5   ar
    20     5     6   ar
    21     6     7   ar
    22     7     8   ar
    23     8     9   ar
    24    17    12   ar
    25     9     1   ar
    26    24    20    1
    27     9     4   ar
@<TRIPOS>MOLECULE
*****
 24 27 0 0 0
SMALL
GASTEIGER

@<TRIPOS>ATOM
      1 C          -8.4237  -17.1950   24.0860 C.ar    1  UNL1       -0.0144
      2 C          -7.3056  -17.2118   23.0862 C.ar    1  UNL1        0.0051
      3 S          -6.1655  -16.4184   23.6526 S.2     1  UNL1       -0.0915
      4 C          -6.5791  -15.9112   25.0024 C.ar    1  UNL1        0.0288
      5 C          -5.8651  -15.0744   26.0221 C.ar    1  UNL1        0.0065
      6 C          -6.5468  -14.7176   27.3097 C.ar    1  UNL1        0.0005
      7 C          -7.9425  -15.1976   27.5775 C.ar    1  UNL1        0.0000
      8 C          -8.6564  -16.0344   26.5578 C.ar    1  UNL1        0.0002
      9 C          -7.9747  -16.3912   25.2702 C.ar    1  UNL1        0.0025
     10 C         -10.1555  -18.9698   24.8615 C.3     1  UNL1        0.0110
     11 C          -9.7569  -17.8644   23.9290 C.3     1  UNL1        0.0627
     12 C         -10.6914  -17.4286   22.8398 C.ar    1  UNL1        0.0627
     13 C         -12.0004  -18.1355   22.6472 C.ar    1  UNL1        0.0151
     14 C         -12.9350  -17.6997   21.5579 C.ar    1  UNL1        0.0028
     15 C         -12.5607  -16.5570   20.6612 C.ar    1  UNL1        0.0207
     16 C         -11.2518  -15.8501   20.8538 C.ar    1  UNL1        0.0985
     17 N         -10.3172  -16.2859   21.9430 N.ar    1  UNL1       -0.2478
     18 C          -7.3242  -17.9009   21.7540 C.3     1  UNL1        0.0499
     19 C          -6.6792  -19.2459   21.5963 C.3     1  UNL1        0.0773
     20 N          -5.2010  -19.3460   21.3619 N.3     1  UNL1       -0.2724
     21 C          -4.1424  -19.4103   22.4227 C.3     1  UNL1        0.0721
     22 C          -2.8090  -19.5034   21.7418 C.3     1  UNL1        0.0188
     23 C          -3.0436  -19.4965   20.2603 C.3     1  UNL1        0.0188
     24 C          -4.5219  -19.3993   20.0255 C.3     1  UNL1        0.0721
@<TRIPOS>BOND
     1    11    10    1
     2    11    12    1
     3    12    13   ar
     4    13    14   ar
     5    14    15   ar
     6    15    16   ar
     7    16    17   ar
     8    11     1    1
     9     1     2   ar
    10     2    18    1
    11    18    19    1
    12    19    20    1
    13    20    21    1
    14    21    22    1
    15    22    23    1
    16    23    24    1
    17     2     3   ar
    18     3     4   ar
    19     4     5   ar
    20     5     6   ar
    21     6     7   ar
    22     7     8   ar
    23     8     9   ar
    24    17    12   ar
    25     9     1   ar
    26    24    20    1
    27     9     4   ar
@<TRIPOS>MOLECULE
*****
 24 27 0 0 0
SMALL
GASTEIGER

@<TRIPOS>ATOM
      1 C          -7.0708  -18.3201   22.1613 C.ar    1  UNL1       -0.0144
      2 C          -5.7205  -18.9649   22.0578 C.ar    1  UNL1        0.0051
      3 S          -4.7605  -18.1660   22.8887 S.2     1  UNL1       -0.0915
      4 C          -5.5176  -17.0275   23.5057 C.ar    1  UNL1        0.0288
      5 C          -5.0913  -15.9164   24.4187 C.ar    1  UNL1        0.0065
      6 C          -6.0929  -14.9006   24.8822 C.ar    1  UNL1        0.0005
      7 C          -7.5208  -14.9958   24.4326 C.ar    1  UNL1        0.0000
      8 C          -7.9471  -16.1069   23.5196 C.ar    1  UNL1        0.0002
      9 C          -6.9455  -17.1227   23.0561 C.ar    1  UNL1        0.0025
     10 C          -8.2616  -19.3879   20.1138 C.3     1  UNL1        0.0110
     11 C          -8.3262  -18.7901   21.4881 C.3     1  UNL1        0.0627
     12 C          -9.6461  -18.6623   22.1890 C.ar    1  UNL1        0.0627
     13 C          -9.8683  -19.3536   23.5017 C.ar    1  UNL1        0.0151
     14 C         -11.1882  -19.2259   24.2027 C.ar    1  UNL1        0.0028
     15 C         -12.2861  -18.4069   23.5911 C.ar    1  UNL1        0.0207
     16 C         -12.0639  -17.7156   22.2785 C.ar    1  UNL1        0.0985
     17 N         -10.7440  -17.8434   21.5775 N.ar    1  UNL1       -0.2478
     18 C          -5.3883  -20.1929   21.2631 C.3     1  UNL1        0.0499
     19 C          -4.6431  -20.0688   19.9673 C.3     1  UNL1        0.0773
     20 N          -3.3833  -19.2573   19.9013 N.3     1  UNL1       -0.2724
     21 C          -3.1461  -18.0675   19.0191 C.3     1  UNL1        0.0721
     22 C          -1.7557  -17.5679   19.2786 C.3     1  UNL1        0.0188
     23 C          -1.1336  -18.4489   20.3212 C.3     1  UNL1        0.0188
     24 C          -2.1395  -19.4929   20.7061 C.3     1  UNL1        0.0721
@<TRIPOS>BOND
     1    11    10    1
     2    11    12    1
     3    12    13   ar
     4    13    14   ar
     5    14    15   ar
     6    15    16   ar
     7    16    17   ar
     8    11     1    1
     9     1     2   ar
    10     2    18    1
    11    18    19    1
    12    19    20    1
    13    20    21    1
    14    21    22    1
    15    22    23    1
    16    23    24    1
    17     2     3   ar
    18     3     4   ar
    19     4     5   ar
    20     5     6   ar
    21     6     7   ar
    22     7     8   ar
    23     8     9   ar
    24    17    12   ar
    25     9     1   ar
    26    24    20    1
    27     9     4   ar
@<TRIPOS>MOLECULE
*****
 24 27 0 0 0
SMALL
GASTEIGER

@<TRIPOS>ATOM
      1 C          -8.4112  -16.9999   24.2177 C.ar    1  UNL1       -0.0144
      2 C          -7.3155  -16.9202   23.1964 C.ar    1  UNL1        0.0051
      3 S          -6.1940  -16.1143   23.7818 S.2     1  UNL1       -0.0915
      4 C          -6.5965  -15.6959   25.1649 C.ar    1  UNL1        0.0288
      5 C          -5.8923  -14.8873   26.2137 C.ar    1  UNL1        0.0065
      6 C          -6.5584  -14.6259   27.5320 C.ar    1  UNL1        0.0005
      7 C          -7.9287  -15.1733   27.8015 C.ar    1  UNL1        0.0000
      8 C          -8.6329  -15.9819   26.7526 C.ar    1  UNL1        0.0002
      9 C          -7.9668  -16.2432   25.4343 C.ar    1  UNL1        0.0025
     10 C         -10.0922  -18.8270   24.9833 C.3     1  UNL1        0.0110
     11 C          -9.7213  -17.7113   24.0517 C.3     1  UNL1        0.0627
     12 C         -10.6604  -17.3071   22.9542 C.ar    1  UNL1        0.0627
     13 C         -11.9860  -17.9944   22.8104 C.ar    1  UNL1        0.0151
     14 C         -12.9252  -17.5903   21.7129 C.ar    1  UNL1        0.0028
     15 C         -12.5389  -16.4988   20.7592 C.ar    1  UNL1        0.0207
     16 C         -11.2134  -15.8115   20.9030 C.ar    1  UNL1        0.0985
     17 N         -10.2742  -16.2157   22.0005 N.ar    1  UNL1       -0.2478
     18 C          -7.3375  -17.5379   21.8297 C.3     1  UNL1        0.0499
     19 C          -7.6131  -19.0041   21.6737 C.3     1  UNL1        0.0773
     20 N          -8.3844  -19.5002   20.4867 N.3     1  UNL1       -0.2724
     21 C          -9.8603  -19.3460   20.2671 C.3     1  UNL1        0.0721
     22 C         -10.2033  -19.9881   18.9556 C.3     1  UNL1        0.0188
     23 C          -8.9395  -20.5390   18.3646 C.3     1  UNL1        0.0188
     24 C          -7.8154  -20.2375   19.3108 C.3     1  UNL1        0.0721
@<TRIPOS>BOND
     1    11    10    1
     2    11    12    1
     3    12    13   ar
     4    13    14   ar
     5    14    15   ar
     6    15    16   ar
     7    16    17   ar
     8    11     1    1
     9     1     2   ar
    10     2    18    1
    11    18    19    1
    12    19    20    1
    13    20    21    1
    14    21    22    1
    15    22    23    1
    16    23    24    1
    17     2     3   ar
    18     3     4   ar
    19     4     5   ar
    20     5     6   ar
    21     6     7   ar
    22     7     8   ar
    23     8     9   ar
    24    17    12   ar
    25     9     1   ar
    26    24    20    1
    27     9     4   ar
@<TRIPOS>MOLECULE
*****
 24 27 0 0 0
SMALL
GASTEIGER

@<TRIPOS>ATOM
      1 C         -15.0507   -6.6061   17.6177 C.ar    1  UNL1       -0.0144
      2 C         -14.0617   -7.6864   17.2939 C.ar    1  UNL1        0.0051
      3 S         -14.5207   -8.9497   17.9597 S.2     1  UNL1       -0.0915
      4 C         -15.7934   -8.6502   18.6950 C.ar    1  UNL1        0.0288
      5 C         -16.6962   -9.5093   19.5297 C.ar    1  UNL1        0.0065
      6 C         -17.9267   -8.9199   20.1531 C.ar    1  UNL1        0.0005
      7 C         -18.2542   -7.4714   19.9417 C.ar    1  UNL1        0.0000
      8 C         -17.3513   -6.6124   19.1070 C.ar    1  UNL1        0.0002
      9 C         -16.1209   -7.2018   18.4837 C.ar    1  UNL1        0.0025
     10 C         -15.8000   -4.7315   15.9823 C.3     1  UNL1        0.0110
     11 C         -14.9816   -5.1804   17.1566 C.3     1  UNL1        0.0627
     12 C         -14.0943   -4.2037   17.8696 C.ar    1  UNL1        0.0627
     13 C         -13.8543   -4.3458   19.3435 C.ar    1  UNL1        0.0151
     14 C         -12.9669   -3.3690   20.0565 C.ar    1  UNL1        0.0028
     15 C         -12.3195   -2.2501   19.2957 C.ar    1  UNL1        0.0207
     16 C         -12.5595   -2.1079   17.8219 C.ar    1  UNL1        0.0985
     17 N         -13.4468   -3.0847   17.1088 N.ar    1  UNL1       -0.2478
     18 C         -12.8300   -7.5307   16.4521 C.3     1  UNL1        0.0499
     19 C         -11.4728   -7.6425   17.0808 C.3     1  UNL1        0.0773
     20 N         -10.7541   -6.4079   17.5381 N.3     1  UNL1       -0.2724
     21 C         -10.3165   -6.1114   18.9420 C.3     1  UNL1        0.0721
     22 C          -9.6387   -4.7732   18.9434 C.3     1  UNL1        0.0188
     23 C          -9.6574   -4.2427   17.5404 C.3     1  UNL1        0.0188
     24 C         -10.3467   -5.2530   16.6720 C.3     1  UNL1        0.0721
@<TRIPOS>BOND
     1    11    10    1
     2    11    12    1
     3    12    13   ar
     4    13    14   ar
     5    14    15   ar
     6    15    16   ar
     7    16    17   ar
     8    11     1    1
     9     1     2   ar
    10     2    18    1
    11    18    19    1
    12    19    20    1
    13    20    21    1
    14    21    22    1
    15    22    23    1
    16    23    24    1
    17     2     3   ar
    18     3     4   ar
    19     4     5   ar
    20     5     6   ar
    21     6     7   ar
    22     7     8   ar
    23     8     9   ar
    24    17    12   ar
    25     9     1   ar
    26    24    20    1
    27     9     4   ar
@<TRIPOS>MOLECULE
*****
 24 27 0 0 0
SMALL
GASTEIGER

@<TRIPOS>ATOM
      1 C         -13.2246   -4.8310   19.1383 C.ar    1  UNL1       -0.0144
      2 C         -14.2746   -5.8142   18.7131 C.ar    1  UNL1        0.0051
      3 S         -13.5824   -7.0690   18.2701 S.2     1  UNL1       -0.0915
      4 C         -12.1045   -6.8614   18.4215 C.ar    1  UNL1        0.0288
      5 C         -10.9317   -7.7531   18.1402 C.ar    1  UNL1        0.0065
      6 C          -9.5377   -7.2616   18.3954 C.ar    1  UNL1        0.0005
      7 C          -9.3166   -5.8784   18.9319 C.ar    1  UNL1        0.0000
      8 C         -10.4894   -4.9867   19.2133 C.ar    1  UNL1        0.0002
      9 C         -11.8834   -5.4782   18.9581 C.ar    1  UNL1        0.0025
     10 C         -13.9152   -3.2387   21.0716 C.3     1  UNL1        0.0110
     11 C         -13.4722   -3.4441   19.6532 C.3     1  UNL1        0.0627
     12 C         -13.2769   -2.2627   18.7500 C.ar    1  UNL1        0.0627
     13 C         -11.9578   -1.5490   18.7232 C.ar    1  UNL1        0.0151
     14 C         -11.7624   -0.3675   17.8199 C.ar    1  UNL1        0.0028
     15 C         -12.8863    0.1004   16.9434 C.ar    1  UNL1        0.0207
     16 C         -14.2053   -0.6132   16.9703 C.ar    1  UNL1        0.0985
     17 N         -14.4007   -1.7948   17.8735 N.ar    1  UNL1       -0.2478
     18 C         -15.7566   -5.5831   18.7282 C.3     1  UNL1        0.0499
     19 C         -16.6353   -6.4084   19.6208 C.3     1  UNL1        0.0773
     20 N         -16.9406   -7.8329   19.2636 N.3     1  UNL1       -0.2724
     21 C         -16.6469   -9.0364   20.1096 C.3     1  UNL1        0.0721
     22 C         -17.1180  -10.2513   19.3665 C.3     1  UNL1        0.0188
     23 C         -17.7026   -9.7988   18.0614 C.3     1  UNL1        0.0188
     24 C         -17.5930   -8.3041   17.9978 C.3     1  UNL1        0.0721
@<TRIPOS>BOND
     1    11    10    1
     2    11    12    1
     3    12    13   ar
     4    13    14   ar
     5    14    15   ar
     6    15    16   ar
     7    16    17   ar
     8    11     1    1
     9     1     2   ar
    10     2    18    1
    11    18    19    1
    12    19    20    1
    13    20    21    1
    14    21    22    1
    15    22    23    1
    16    23    24    1
    17     2     3   ar
    18     3     4   ar
    19     4     5   ar
    20     5     6   ar
    21     6     7   ar
    22     7     8   ar
    23     8     9   ar
    24    17    12   ar
    25     9     1   ar
    26    24    20    1
    27     9     4   ar
@<TRIPOS>MOLECULE
*****
 24 27 0 0 0
SMALL
GASTEIGER

@<TRIPOS>ATOM
      1 C         -14.9394   -6.2668   18.2943 C.ar    1  UNL1       -0.0144
      2 C         -15.3045   -5.6470   16.9780 C.ar    1  UNL1        0.0051
      3 S         -16.4777   -6.3981   16.4216 S.2     1  UNL1       -0.0915
      4 C         -16.8377   -7.4819   17.3941 C.ar    1  UNL1        0.0288
      5 C         -17.9084   -8.5323   17.3752 C.ar    1  UNL1        0.0065
      6 C         -18.0283   -9.5015   18.5137 C.ar    1  UNL1        0.0005
      7 C         -17.0775   -9.4203   19.6711 C.ar    1  UNL1        0.0000
      8 C         -16.0069   -8.3700   19.6899 C.ar    1  UNL1        0.0002
      9 C         -15.8869   -7.4008   18.5514 C.ar    1  UNL1        0.0025
     10 C         -14.1266   -5.0620   20.4479 C.3     1  UNL1        0.0110
     11 C         -13.8227   -5.8293   19.1952 C.3     1  UNL1        0.0627
     12 C         -12.4024   -6.1591   18.8437 C.ar    1  UNL1        0.0627
     13 C         -11.2947   -5.2326   19.2498 C.ar    1  UNL1        0.0151
     14 C          -9.8743   -5.5623   18.8983 C.ar    1  UNL1        0.0028
     15 C          -9.5614   -6.8186   18.1407 C.ar    1  UNL1        0.0207
     16 C         -10.6690   -7.7451   17.7347 C.ar    1  UNL1        0.0985
     17 N         -12.0894   -7.4153   18.0862 N.ar    1  UNL1       -0.2478
     18 C         -14.6171   -4.4810   16.3315 C.3     1  UNL1        0.0499
     19 C         -14.5973   -3.1474   17.0178 C.3     1  UNL1        0.0773
     20 N         -13.3010   -2.5777   17.5126 N.3     1  UNL1       -0.2724
     21 C         -12.0018   -2.5611   16.7628 C.3     1  UNL1        0.0721
     22 C         -10.9741   -1.8976   17.6310 C.3     1  UNL1        0.0188
     23 C         -11.6380   -1.5042   18.9172 C.3     1  UNL1        0.0188
     24 C         -13.0760   -1.9245   18.8441 C.3     1  UNL1        0.0721
@<TRIPOS>BOND
     1    11    10    1
     2    11    12    1
     3    12    13   ar
     4    13    14   ar
     5    14    15   ar
     6    15    16   ar
     7    16    17   ar
     8    11     1    1
     9     1     2   ar
    10     2    18    1
    11    18    19    1
    12    19    20    1
    13    20    21    1
    14    21    22    1
    15    22    23    1
    16    23    24    1
    17     2     3   ar
    18     3     4   ar
    19     4     5   ar
    20     5     6   ar
    21     6     7   ar
    22     7     8   ar
    23     8     9   ar
    24    17    12   ar
    25     9     1   ar
    26    24    20    1
    27     9     4   ar
