@<TRIPOS>MOLECULE
*****
 35 38 0 0 0
SMALL
GASTEIGER

@<TRIPOS>ATOM
      1 N          -8.2854  -19.3654   21.4531 N.3     1  UNL1       -0.1450
      2 S          -8.0970  -18.2408   22.4276 S.O2    1  UNL1        0.0654
      3 O          -8.5741  -19.1256   23.5409 O.2     1  UNL1       -0.1527
      4 O          -7.6199  -17.3560   21.3143 O.2     1  UNL1       -0.1527
      5 C          -7.9086  -17.1162   23.4022 C.ar    1  UNL1        0.1413
      6 C          -9.0529  -16.6705   24.2635 C.ar    1  UNL1        0.0231
      7 C          -8.8645  -15.5459   25.2380 C.ar    1  UNL1        0.0221
      8 C          -7.5318  -14.8670   25.3513 C.ar    1  UNL1        0.0990
      9 N          -6.3873  -15.3127   24.4900 N.ar    1  UNL1       -0.2409
     10 C          -6.5758  -16.4373   23.5155 C.ar    1  UNL1        0.1187
     11 C          -9.6118  -19.5605   20.7803 C.3     1  UNL1        0.1416
     12 C         -12.5982  -17.2691   22.0377 C.ar    1  UNL1        0.1284
     13 C         -12.7008  -16.2906   20.9054 C.ar    1  UNL1        0.0341
     14 C         -11.7738  -16.4020   19.7315 C.ar    1  UNL1        0.0041
     15 C         -10.7441  -17.4920   19.6897 C.ar    1  UNL1        0.0163
     16 C         -10.6415  -18.4705   20.8220 C.ar    1  UNL1        0.0783
     17 N         -11.5685  -18.3590   21.9959 N.ar    1  UNL1       -0.2338
     18 N         -13.5252  -17.1576   23.2116 N.pl3   1  UNL1       -0.3135
     19 H         -14.2151  -16.4555   23.2292 H       1  UNL1        0.1485
     20 C         -13.4012  -18.1160   24.3588 C.3     1  UNL1        0.1306
     21 O         -15.8836  -18.8796   24.2894 O.co2   1  UNL1       -0.5474
     22 C         -14.6313  -18.6016   25.0668 C.2     1  UNL1        0.0702
     23 O         -14.6089  -18.8091   26.5523 O.co2   1  UNL1       -0.5474
     24 C          -7.1474  -20.2949   21.1514 C.3     1  UNL1        0.1225
     25 C          -5.7640  -19.7486   20.9574 C.ar    1  UNL1       -0.0044
     26 C          -5.3213  -19.2931   19.5985 C.ar    1  UNL1       -0.0013
     27 C          -3.9379  -18.7468   19.4045 C.ar    1  UNL1        0.0189
     28 C          -2.9971  -18.6560   20.5694 C.ar    1  UNL1        0.0828
     29 C          -3.4399  -19.1115   21.9282 C.ar    1  UNL1        0.0189
     30 C          -4.8234  -19.6579   22.1222 C.ar    1  UNL1       -0.0013
     31 N          -1.6137  -18.1097   20.3754 N.ar    1  UNL1       -0.2281
     32 C          -1.1972  -16.6800   20.5552 C.ar    1  UNL1        0.1020
     33 C           0.2700  -16.5838   20.2585 C.ar    1  UNL1        0.0431
     34 C           0.7603  -17.9541   19.8952 C.ar    1  UNL1        0.1221
     35 N          -0.4040  -18.8971   19.9674 N.ar    1  UNL1       -0.1635
@<TRIPOS>UNITY_ATOM_ATTR
21 1
charge -1
@<TRIPOS>BOND
     1    21    22   ar
     2    22    23   ar
     3    22    20    1
     4    20    18    1
     5    18    12    1
     6    12    13   ar
     7    13    14   ar
     8    14    15   ar
     9    15    16   ar
    10    16    11    1
    11    11     1    1
    12     1    24    1
    13    24    25    1
    14    25    26   ar
    15    26    27   ar
    16    27    28   ar
    17    28    31    1
    18    31    32   ar
    19    32    33   ar
    20    33    34   ar
    21    34    35   ar
    22    28    29   ar
    23    29    30   ar
    24     1     2    1
    25     2     3    2
    26     2     4    2
    27     2     5    1
    28     5     6   ar
    29     6     7   ar
    30     7     8   ar
    31     8     9   ar
    32     9    10   ar
    33    16    17   ar
    34    17    12   ar
    35    30    25   ar
    36    10     5   ar
    37    35    31   ar
    38    18    19    1
@<TRIPOS>MOLECULE
*****
 35 38 0 0 0
SMALL
GASTEIGER

@<TRIPOS>ATOM
      1 N          -8.3735  -19.6816   21.9668 N.3     1  UNL1       -0.1450
      2 S          -8.0643  -18.4034   22.6884 S.O2    1  UNL1        0.0654
      3 O          -7.8699  -17.7082   21.3735 O.2     1  UNL1       -0.1527
      4 O          -8.2588  -19.0987   24.0032 O.2     1  UNL1       -0.1527
      5 C          -7.7552  -17.1252   23.4099 C.ar    1  UNL1        0.1413
      6 C          -8.7948  -16.4860   24.2820 C.ar    1  UNL1        0.0231
      7 C          -8.4857  -15.2077   25.0035 C.ar    1  UNL1        0.0221
      8 C          -7.1370  -14.5688   24.8530 C.ar    1  UNL1        0.0990
      9 N          -6.0973  -15.2081   23.9809 N.ar    1  UNL1       -0.2409
     10 C          -6.4064  -16.4863   23.2593 C.ar    1  UNL1        0.1187
     11 C          -9.7976  -20.1189   21.7924 C.3     1  UNL1        0.1416
     12 C         -12.5246  -17.2427   21.5895 C.ar    1  UNL1        0.1284
     13 C         -13.1570  -17.3555   22.9449 C.ar    1  UNL1        0.0341
     14 C         -12.6696  -18.3894   23.9162 C.ar    1  UNL1        0.0041
     15 C         -11.5498  -19.3105   23.5321 C.ar    1  UNL1        0.0163
     16 C         -10.9175  -19.1977   22.1766 C.ar    1  UNL1        0.0783
     17 N         -11.4049  -18.1638   21.2053 N.ar    1  UNL1       -0.2338
     18 N         -13.0120  -16.2087   20.6182 N.pl3   1  UNL1       -0.3135
     19 H         -13.8498  -15.7230   20.7954 H       1  UNL1        0.1485
     20 C         -12.2229  -15.9149   19.3768 C.3     1  UNL1        0.1306
     21 O         -10.0728  -15.3778   20.7326 O.co2   1  UNL1       -0.5474
     22 C         -10.8860  -15.2425   19.4795 C.2     1  UNL1        0.0702
     23 O         -10.3623  -14.4348   18.3291 O.co2   1  UNL1       -0.5474
     24 C          -7.2583  -20.5226   21.4197 C.3     1  UNL1        0.1225
     25 C          -5.9060  -19.9165   21.1881 C.ar    1  UNL1       -0.0044
     26 C          -4.9580  -19.7367   22.3365 C.ar    1  UNL1       -0.0013
     27 C          -3.6056  -19.1305   22.1049 C.ar    1  UNL1        0.0189
     28 C          -3.2012  -18.7041   20.7248 C.ar    1  UNL1        0.0828
     29 C          -4.1492  -18.8839   19.5763 C.ar    1  UNL1        0.0189
     30 C          -5.5016  -19.4901   19.8080 C.ar    1  UNL1       -0.0013
     31 N          -1.8489  -18.0979   20.4932 N.ar    1  UNL1       -0.2281
     32 C          -1.4715  -16.6663   20.7338 C.ar    1  UNL1        0.1020
     33 C          -0.0259  -16.5005   20.3696 C.ar    1  UNL1        0.0431
     34 C           0.4903  -17.8298   19.9039 C.ar    1  UNL1        0.1221
     35 N          -0.6365  -18.8170   19.9803 N.ar    1  UNL1       -0.1635
@<TRIPOS>UNITY_ATOM_ATTR
21 1
charge -1
@<TRIPOS>BOND
     1    21    22   ar
     2    22    23   ar
     3    22    20    1
     4    20    18    1
     5    18    12    1
     6    12    13   ar
     7    13    14   ar
     8    14    15   ar
     9    15    16   ar
    10    16    11    1
    11    11     1    1
    12     1    24    1
    13    24    25    1
    14    25    26   ar
    15    26    27   ar
    16    27    28   ar
    17    28    31    1
    18    31    32   ar
    19    32    33   ar
    20    33    34   ar
    21    34    35   ar
    22    28    29   ar
    23    29    30   ar
    24     1     2    1
    25     2     3    2
    26     2     4    2
    27     2     5    1
    28     5     6   ar
    29     6     7   ar
    30     7     8   ar
    31     8     9   ar
    32     9    10   ar
    33    16    17   ar
    34    17    12   ar
    35    30    25   ar
    36    10     5   ar
    37    35    31   ar
    38    18    19    1
@<TRIPOS>MOLECULE
*****
 35 38 0 0 0
SMALL
GASTEIGER

@<TRIPOS>ATOM
      1 N          -9.5670  -19.1943   23.3291 N.3     1  UNL1       -0.1450
      2 S         -10.3371  -18.3297   22.3756 S.O2    1  UNL1        0.0654
      3 O         -11.6217  -18.9161   22.8814 O.2     1  UNL1       -0.1527
      4 O          -9.0525  -17.7433   21.8698 O.2     1  UNL1       -0.1527
      5 C         -11.1072  -17.4651   21.4220 C.ar    1  UNL1        0.1413
      6 C         -10.3996  -16.7842   20.2881 C.ar    1  UNL1        0.0231
      7 C         -11.1698  -15.9196   19.3346 C.ar    1  UNL1        0.0221
      8 C         -12.6475  -15.7358   19.5149 C.ar    1  UNL1        0.0990
      9 N         -13.3551  -16.4166   20.6488 N.ar    1  UNL1       -0.2409
     10 C         -12.5850  -17.2813   21.6024 C.ar    1  UNL1        0.1187
     11 C          -9.7224  -19.0023   24.8086 C.3     1  UNL1        0.1416
     12 C          -8.0387  -15.4411   25.2919 C.ar    1  UNL1        0.1284
     13 C          -8.0543  -15.3207   26.7869 C.ar    1  UNL1        0.0341
     14 C          -8.6259  -16.4275   27.6226 C.ar    1  UNL1        0.0041
     15 C          -9.1819  -17.6547   26.9632 C.ar    1  UNL1        0.0163
     16 C          -9.1663  -17.7750   25.4681 C.ar    1  UNL1        0.0783
     17 N          -8.5948  -16.6682   24.6325 N.ar    1  UNL1       -0.2338
     18 N          -7.4671  -14.3343   24.4563 N.pl3   1  UNL1       -0.3135
     19 H          -7.7097  -13.3991   24.6454 H       1  UNL1        0.1485
     20 C          -6.5260  -14.6524   23.3324 C.3     1  UNL1        0.1306
     21 O          -4.9576  -16.0410   24.8692 O.co2   1  UNL1       -0.5474
     22 C          -5.1724  -15.2272   23.6276 C.2     1  UNL1        0.0702
     23 O          -4.0334  -14.9880   22.6812 O.co2   1  UNL1       -0.5474
     24 C          -8.6414  -20.2511   22.8032 C.3     1  UNL1        0.1225
     25 C          -7.3328  -19.8607   22.1825 C.ar    1  UNL1       -0.0044
     26 C          -6.9276  -20.4404   20.8597 C.ar    1  UNL1       -0.0013
     27 C          -5.6190  -20.0500   20.2391 C.ar    1  UNL1        0.0189
     28 C          -4.7157  -19.0798   20.9412 C.ar    1  UNL1        0.0828
     29 C          -5.1210  -18.5002   22.2639 C.ar    1  UNL1        0.0189
     30 C          -6.4296  -18.8906   22.8846 C.ar    1  UNL1       -0.0013
     31 N          -3.4072  -18.6894   20.3205 N.ar    1  UNL1       -0.2281
     32 C          -2.0489  -19.1394   20.7705 C.ar    1  UNL1        0.1020
     33 C          -1.0294  -18.5086   19.8690 C.ar    1  UNL1        0.0431
     34 C          -1.7576  -17.6687   18.8618 C.ar    1  UNL1        0.1221
     35 N          -3.2272  -17.7805   19.1409 N.ar    1  UNL1       -0.1635
@<TRIPOS>UNITY_ATOM_ATTR
21 1
charge -1
@<TRIPOS>BOND
     1    21    22   ar
     2    22    23   ar
     3    22    20    1
     4    20    18    1
     5    18    12    1
     6    12    13   ar
     7    13    14   ar
     8    14    15   ar
     9    15    16   ar
    10    16    11    1
    11    11     1    1
    12     1    24    1
    13    24    25    1
    14    25    26   ar
    15    26    27   ar
    16    27    28   ar
    17    28    31    1
    18    31    32   ar
    19    32    33   ar
    20    33    34   ar
    21    34    35   ar
    22    28    29   ar
    23    29    30   ar
    24     1     2    1
    25     2     3    2
    26     2     4    2
    27     2     5    1
    28     5     6   ar
    29     6     7   ar
    30     7     8   ar
    31     8     9   ar
    32     9    10   ar
    33    16    17   ar
    34    17    12   ar
    35    30    25   ar
    36    10     5   ar
    37    35    31   ar
    38    18    19    1
@<TRIPOS>MOLECULE
*****
 35 38 0 0 0
SMALL
GASTEIGER

@<TRIPOS>ATOM
      1 N          -0.7123    3.3794   21.1700 N.3     1  UNL1       -0.1450
      2 S          -2.1342    3.5545   21.6146 S.O2    1  UNL1        0.0654
      3 O          -1.6970    4.5941   22.6036 O.2     1  UNL1       -0.1527
      4 O          -2.5714    2.5149   20.6256 O.2     1  UNL1       -0.1527
      5 C          -3.5561    3.7295   22.0592 C.ar    1  UNL1        0.1413
      6 C          -3.9008    3.6537   23.5170 C.ar    1  UNL1        0.0231
      7 C          -5.3227    3.8288   23.9616 C.ar    1  UNL1        0.0221
      8 C          -6.3998    4.0796   22.9483 C.ar    1  UNL1        0.0990
      9 N          -6.0551    4.1555   21.4904 N.ar    1  UNL1       -0.2409
     10 C          -4.6332    3.9804   21.0458 C.ar    1  UNL1        0.1187
     11 C           0.4124    3.7471   22.0918 C.3     1  UNL1        0.1416
     12 C           0.7854    1.1680   25.0850 C.ar    1  UNL1        0.1284
     13 C           2.1719    0.6498   24.8416 C.ar    1  UNL1        0.0341
     14 C           2.9718    1.1641   23.6816 C.ar    1  UNL1        0.0041
     15 C           2.3854    2.1965   22.7650 C.ar    1  UNL1        0.0163
     16 C           0.9989    2.7146   23.0084 C.ar    1  UNL1        0.0783
     17 N           0.1990    2.2004   24.1684 N.ar    1  UNL1       -0.2338
     18 N          -0.0145    0.6537   26.2450 N.pl3   1  UNL1       -0.3135
     19 H          -0.8297    0.1254   26.0851 H       1  UNL1        0.1485
     20 C           0.4276    0.9443   27.6486 C.3     1  UNL1        0.1306
     21 O          -1.2859   -0.6520   28.7737 O.co2   1  UNL1       -0.5474
     22 C           0.0625    0.0050   28.7596 C.2     1  UNL1        0.0702
     23 O           1.0459   -0.2773   29.8566 O.co2   1  UNL1       -0.5474
     24 C          -0.4152    2.8366   19.8035 C.3     1  UNL1        0.1225
     25 C           0.5718    1.7192   19.6387 C.ar    1  UNL1       -0.0044
     26 C           0.3199    0.3933   20.2933 C.ar    1  UNL1       -0.0013
     27 C           1.3068   -0.7241   20.1284 C.ar    1  UNL1        0.0189
     28 C           2.5458   -0.5156   19.3089 C.ar    1  UNL1        0.0828
     29 C           2.7977    0.8103   18.6543 C.ar    1  UNL1        0.0189
     30 C           1.8107    1.9277   18.8192 C.ar    1  UNL1       -0.0013
     31 N           3.5328   -1.6330   19.1440 N.ar    1  UNL1       -0.2281
     32 C           4.5007   -1.7942   18.0095 C.ar    1  UNL1        0.1020
     33 C           5.2913   -3.0462   18.2490 C.ar    1  UNL1        0.0431
     34 C           4.8120   -3.6589   19.5316 C.ar    1  UNL1        0.1221
     35 N           3.7252   -2.7854   20.0847 N.ar    1  UNL1       -0.1635
@<TRIPOS>UNITY_ATOM_ATTR
21 1
charge -1
@<TRIPOS>BOND
     1    21    22   ar
     2    22    23   ar
     3    22    20    1
     4    20    18    1
     5    18    12    1
     6    12    13   ar
     7    13    14   ar
     8    14    15   ar
     9    15    16   ar
    10    16    11    1
    11    11     1    1
    12     1    24    1
    13    24    25    1
    14    25    26   ar
    15    26    27   ar
    16    27    28   ar
    17    28    31    1
    18    31    32   ar
    19    32    33   ar
    20    33    34   ar
    21    34    35   ar
    22    28    29   ar
    23    29    30   ar
    24     1     2    1
    25     2     3    2
    26     2     4    2
    27     2     5    1
    28     5     6   ar
    29     6     7   ar
    30     7     8   ar
    31     8     9   ar
    32     9    10   ar
    33    16    17   ar
    34    17    12   ar
    35    30    25   ar
    36    10     5   ar
    37    35    31   ar
    38    18    19    1
@<TRIPOS>MOLECULE
*****
 35 38 0 0 0
SMALL
GASTEIGER

@<TRIPOS>ATOM
      1 N           5.5167   -1.1154   32.4457 N.3     1  UNL1       -0.1450
      2 S           4.2987   -0.5622   31.7672 S.O2    1  UNL1        0.0654
      3 O           3.4863   -1.7098   32.2898 O.2     1  UNL1       -0.1527
      4 O           5.1111    0.5854   31.2447 O.2     1  UNL1       -0.1527
      5 C           3.0807   -0.0089   31.0887 C.ar    1  UNL1        0.1413
      6 C           2.3892    1.1959   31.6545 C.ar    1  UNL1        0.0231
      7 C           1.1711    1.7491   30.9760 C.ar    1  UNL1        0.0221
      8 C           0.6446    1.0975   29.7317 C.ar    1  UNL1        0.0990
      9 N           1.3362   -0.1074   29.1659 N.ar    1  UNL1       -0.2409
     10 C           2.5542   -0.6606   29.8444 C.ar    1  UNL1        0.1187
     11 C           5.4683   -1.4687   33.9027 C.3     1  UNL1        0.1416
     12 C           4.5214    0.6029   37.1527 C.ar    1  UNL1        0.1284
     13 C           5.4288    1.7884   37.0076 C.ar    1  UNL1        0.0341
     14 C           6.3494    1.8882   35.8275 C.ar    1  UNL1        0.0041
     15 C           6.3625    0.8026   34.7926 C.ar    1  UNL1        0.0163
     16 C           5.4551   -0.3829   34.9377 C.ar    1  UNL1        0.0783
     17 N           4.5346   -0.4828   36.1177 N.ar    1  UNL1       -0.2338
     18 N           3.6008    0.5030   38.3328 N.pl3   1  UNL1       -0.3135
     19 H           3.8123   -0.1127   39.0713 H       1  UNL1        0.1485
     20 C           2.3581    1.3412   38.3876 C.3     1  UNL1        0.1306
     21 O          -0.1518    1.6027   39.0055 O.co2   1  UNL1       -0.5474
     22 C           1.1108    0.7931   39.0152 C.2     1  UNL1        0.0702
     23 O           1.1262   -0.5648   39.6524 O.co2   1  UNL1       -0.5474
     24 C           6.7832   -1.3154   31.6672 C.3     1  UNL1        0.1225
     25 C           6.9372   -2.5158   30.7811 C.ar    1  UNL1       -0.0044
     26 C           7.3211   -2.3412   29.3416 C.ar    1  UNL1       -0.0013
     27 C           7.4751   -3.5416   28.4555 C.ar    1  UNL1        0.0189
     28 C           7.2453   -4.9168   29.0089 C.ar    1  UNL1        0.0828
     29 C           6.8615   -5.0914   30.4484 C.ar    1  UNL1        0.0189
     30 C           6.7074   -3.8909   31.3345 C.ar    1  UNL1       -0.0013
     31 N           7.3994   -6.1172   28.1228 N.ar    1  UNL1       -0.2281
     32 C           8.2884   -7.2969   28.3832 C.ar    1  UNL1        0.1020
     33 C           8.1299   -8.2575   27.2421 C.ar    1  UNL1        0.0431
     34 C           7.1429   -7.6715   26.2764 C.ar    1  UNL1        0.1221
     35 N           6.6914   -6.3487   26.8208 N.ar    1  UNL1       -0.1635
@<TRIPOS>UNITY_ATOM_ATTR
21 1
charge -1
@<TRIPOS>BOND
     1    21    22   ar
     2    22    23   ar
     3    22    20    1
     4    20    18    1
     5    18    12    1
     6    12    13   ar
     7    13    14   ar
     8    14    15   ar
     9    15    16   ar
    10    16    11    1
    11    11     1    1
    12     1    24    1
    13    24    25    1
    14    25    26   ar
    15    26    27   ar
    16    27    28   ar
    17    28    31    1
    18    31    32   ar
    19    32    33   ar
    20    33    34   ar
    21    34    35   ar
    22    28    29   ar
    23    29    30   ar
    24     1     2    1
    25     2     3    2
    26     2     4    2
    27     2     5    1
    28     5     6   ar
    29     6     7   ar
    30     7     8   ar
    31     8     9   ar
    32     9    10   ar
    33    16    17   ar
    34    17    12   ar
    35    30    25   ar
    36    10     5   ar
    37    35    31   ar
    38    18    19    1
@<TRIPOS>MOLECULE
*****
 35 38 0 0 0
SMALL
GASTEIGER

@<TRIPOS>ATOM
      1 N           2.2094    1.4178   30.8017 N.3     1  UNL1       -0.1450
      2 S           3.1696    0.3100   31.1193 S.O2    1  UNL1        0.0654
      3 O           2.0836   -0.6981   30.8864 O.2     1  UNL1       -0.1527
      4 O           4.2556    1.3182   31.3522 O.2     1  UNL1       -0.1527
      5 C           4.1298   -0.7977   31.4369 C.ar    1  UNL1        0.1413
      6 C           4.0460   -1.5079   32.7555 C.ar    1  UNL1        0.0231
      7 C           5.0062   -2.6156   33.0730 C.ar    1  UNL1        0.0221
      8 C           6.0502   -3.0132   32.0721 C.ar    1  UNL1        0.0990
      9 N           6.1341   -2.3030   30.7535 N.ar    1  UNL1       -0.2409
     10 C           5.1738   -1.1953   30.4359 C.ar    1  UNL1        0.1187
     11 C           1.1031    1.7489   31.7590 C.3     1  UNL1        0.1416
     12 C           2.3253    3.0589   35.3002 C.ar    1  UNL1        0.1284
     13 C           1.8852    4.4916   35.2398 C.ar    1  UNL1        0.0341
     14 C           1.1843    5.0100   34.0192 C.ar    1  UNL1        0.0041
     15 C           0.9236    4.0958   32.8589 C.ar    1  UNL1        0.0163
     16 C           1.3638    2.6632   32.9193 C.ar    1  UNL1        0.0783
     17 N           2.0646    2.1447   34.1400 N.ar    1  UNL1       -0.2338
     18 N           3.0262    2.5405   36.5209 N.pl3   1  UNL1       -0.3135
     19 H           3.9055    2.1058   36.4363 H       1  UNL1        0.1485
     20 C           2.3875    2.6843   37.8704 C.3     1  UNL1        0.1306
     21 O           0.7390    0.8554   38.6996 O.co2   1  UNL1       -0.5474
     22 C           2.1085    1.4673   38.7017 C.2     1  UNL1        0.0702
     23 O           3.1990    0.8622   39.5351 O.co2   1  UNL1       -0.5474
     24 C           2.3555    2.1945   29.5268 C.3     1  UNL1        0.1225
     25 C           1.1467    2.5036   28.6942 C.ar    1  UNL1       -0.0044
     26 C           0.3437    1.3876   28.0945 C.ar    1  UNL1       -0.0013
     27 C          -0.8651    1.6968   27.2619 C.ar    1  UNL1        0.0189
     28 C          -1.2709    3.1220   27.0289 C.ar    1  UNL1        0.0828
     29 C          -0.4678    4.2380   27.6286 C.ar    1  UNL1        0.0189
     30 C           0.7410    3.9288   28.4612 C.ar    1  UNL1       -0.0013
     31 N          -2.4796    3.4311   26.1963 N.ar    1  UNL1       -0.2281
     32 C          -2.5366    3.4494   24.6975 C.ar    1  UNL1        0.1020
     33 C          -3.9358    3.8059   24.2912 C.ar    1  UNL1        0.0431
     34 C          -4.7437    4.0079   25.5389 C.ar    1  UNL1        0.1221
     35 N          -3.8436    3.7763   26.7163 N.ar    1  UNL1       -0.1635
@<TRIPOS>UNITY_ATOM_ATTR
21 1
charge -1
@<TRIPOS>BOND
     1    21    22   ar
     2    22    23   ar
     3    22    20    1
     4    20    18    1
     5    18    12    1
     6    12    13   ar
     7    13    14   ar
     8    14    15   ar
     9    15    16   ar
    10    16    11    1
    11    11     1    1
    12     1    24    1
    13    24    25    1
    14    25    26   ar
    15    26    27   ar
    16    27    28   ar
    17    28    31    1
    18    31    32   ar
    19    32    33   ar
    20    33    34   ar
    21    34    35   ar
    22    28    29   ar
    23    29    30   ar
    24     1     2    1
    25     2     3    2
    26     2     4    2
    27     2     5    1
    28     5     6   ar
    29     6     7   ar
    30     7     8   ar
    31     8     9   ar
    32     9    10   ar
    33    16    17   ar
    34    17    12   ar
    35    30    25   ar
    36    10     5   ar
    37    35    31   ar
    38    18    19    1
@<TRIPOS>MOLECULE
*****
 35 38 0 0 0
SMALL
GASTEIGER

@<TRIPOS>ATOM
      1 N          -0.5093    3.3336   20.5869 N.3     1  UNL1       -0.1450
      2 S          -1.8890    3.8969   20.7578 S.O2    1  UNL1        0.0654
      3 O          -1.3129    5.2785   20.8544 O.2     1  UNL1       -0.1527
      4 O          -2.4651    2.5154   20.6612 O.2     1  UNL1       -0.1527
      5 C          -3.2686    4.4603   20.9287 C.ar    1  UNL1        0.1413
      6 C          -4.4682    3.6053   20.6459 C.ar    1  UNL1        0.0231
      7 C          -5.8478    4.1686   20.8169 C.ar    1  UNL1        0.0221
      8 C          -6.0279    5.5869   21.2706 C.ar    1  UNL1        0.0990
      9 N          -4.8283    6.4420   21.5535 N.ar    1  UNL1       -0.2409
     10 C          -3.4487    5.8787   21.3825 C.ar    1  UNL1        0.1187
     11 C           0.5088    3.4997   21.6757 C.3     1  UNL1        0.1416
     12 C          -0.9271    2.5906   25.2621 C.ar    1  UNL1        0.1284
     13 C          -0.0617    1.4207   25.6257 C.ar    1  UNL1        0.0341
     14 C           0.9939    0.9437   24.6727 C.ar    1  UNL1        0.0041
     15 C           1.1841    1.6367   23.3561 C.ar    1  UNL1        0.0163
     16 C           0.3187    2.8066   22.9924 C.ar    1  UNL1        0.0783
     17 N          -0.7369    3.2836   23.9454 N.ar    1  UNL1       -0.2338
     18 N          -1.9827    3.0675   26.2151 N.pl3   1  UNL1       -0.3135
     19 H          -2.0492    2.6720   27.1142 H       1  UNL1        0.1485
     20 C          -2.9371    4.1470   25.7982 C.3     1  UNL1        0.1306
     21 O          -4.7215    4.7041   27.6024 O.co2   1  UNL1       -0.5474
     22 C          -4.3600    4.1140   26.2717 C.2     1  UNL1        0.0702
     23 O          -5.4215    3.4909   25.4143 O.co2   1  UNL1       -0.5474
     24 C          -0.1478    2.6042   19.3269 C.3     1  UNL1        0.1225
     25 C           0.8146    1.4547   19.3756 C.ar    1  UNL1       -0.0044
     26 C           2.1120    1.5306   18.6265 C.ar    1  UNL1       -0.0013
     27 C           3.0744    0.3811   18.6752 C.ar    1  UNL1        0.0189
     28 C           2.7396   -0.8443   19.4730 C.ar    1  UNL1        0.0828
     29 C           1.4422   -0.9201   20.2220 C.ar    1  UNL1        0.0189
     30 C           0.4797    0.2294   20.1733 C.ar    1  UNL1       -0.0013
     31 N           3.7020   -1.9937   19.5216 N.ar    1  UNL1       -0.2281
     32 C           5.1399   -1.9224   19.9426 C.ar    1  UNL1        0.1020
     33 C           5.7222   -3.3009   19.8390 C.ar    1  UNL1        0.0431
     34 C           4.6440   -4.2242   19.3540 C.ar    1  UNL1        0.1221
     35 N           3.3955   -3.4163   19.1579 N.ar    1  UNL1       -0.1635
@<TRIPOS>UNITY_ATOM_ATTR
21 1
charge -1
@<TRIPOS>BOND
     1    21    22   ar
     2    22    23   ar
     3    22    20    1
     4    20    18    1
     5    18    12    1
     6    12    13   ar
     7    13    14   ar
     8    14    15   ar
     9    15    16   ar
    10    16    11    1
    11    11     1    1
    12     1    24    1
    13    24    25    1
    14    25    26   ar
    15    26    27   ar
    16    27    28   ar
    17    28    31    1
    18    31    32   ar
    19    32    33   ar
    20    33    34   ar
    21    34    35   ar
    22    28    29   ar
    23    29    30   ar
    24     1     2    1
    25     2     3    2
    26     2     4    2
    27     2     5    1
    28     5     6   ar
    29     6     7   ar
    30     7     8   ar
    31     8     9   ar
    32     9    10   ar
    33    16    17   ar
    34    17    12   ar
    35    30    25   ar
    36    10     5   ar
    37    35    31   ar
    38    18    19    1
@<TRIPOS>MOLECULE
*****
 35 38 0 0 0
SMALL
GASTEIGER

@<TRIPOS>ATOM
      1 N         -15.9086   -1.1455   19.3619 N.3     1  UNL1       -0.1450
      2 S         -15.6950    0.3348   19.2480 S.O2    1  UNL1        0.0654
      3 O         -14.8217    0.1165   18.0481 O.2     1  UNL1       -0.1527
      4 O         -16.5683    0.5532   20.4479 O.2     1  UNL1       -0.1527
      5 C         -15.4814    1.8152   19.1341 C.ar    1  UNL1        0.1413
      6 C         -16.1086    2.7424   20.1325 C.ar    1  UNL1        0.0231
      7 C         -15.8950    4.2228   20.0185 C.ar    1  UNL1        0.0221
      8 C         -15.0543    4.7759   18.9063 C.ar    1  UNL1        0.0990
      9 N         -14.4271    3.8486   17.9078 N.ar    1  UNL1       -0.2409
     10 C         -14.6407    2.3682   18.0217 C.ar    1  UNL1        0.1187
     11 C         -16.8471   -1.8424   18.4220 C.3     1  UNL1        0.1416
     12 C         -16.7515   -5.7372   17.6662 C.ar    1  UNL1        0.1284
     13 C         -15.6909   -5.7945   16.6071 C.ar    1  UNL1        0.0341
     14 C         -15.0157   -4.5344   16.1529 C.ar    1  UNL1        0.0041
     15 C         -15.4011   -3.2171   16.7578 C.ar    1  UNL1        0.0163
     16 C         -16.4617   -3.1598   17.8170 C.ar    1  UNL1        0.0783
     17 N         -17.1369   -4.4199   18.2711 N.ar    1  UNL1       -0.2338
     18 N         -17.4268   -6.9973   18.1204 N.pl3   1  UNL1       -0.3135
     19 H         -18.2910   -6.9510   18.5895 H       1  UNL1        0.1485
     20 C         -16.7852   -8.3279   17.8597 C.3     1  UNL1        0.1306
     21 O         -16.5227   -9.0000   20.3555 O.co2   1  UNL1       -0.5474
     22 C         -16.0097   -9.0123   18.9461 C.2     1  UNL1        0.0702
     23 O         -14.7212   -9.7090   18.6229 O.co2   1  UNL1       -0.5474
     24 C         -15.1836   -1.9290   20.4158 C.3     1  UNL1        0.1225
     25 C         -14.1919   -2.9818   20.0184 C.ar    1  UNL1       -0.0044
     26 C         -14.4672   -4.4246   20.3230 C.ar    1  UNL1       -0.0013
     27 C         -13.4755   -5.4774   19.9256 C.ar    1  UNL1        0.0189
     28 C         -12.2084   -5.0876   19.2236 C.ar    1  UNL1        0.0828
     29 C         -11.9332   -3.6448   18.9191 C.ar    1  UNL1        0.0189
     30 C         -12.9249   -2.5920   19.3165 C.ar    1  UNL1       -0.0013
     31 N         -11.2167   -6.1404   18.8262 N.ar    1  UNL1       -0.2281
     32 C          -9.7664   -6.1743   19.2074 C.ar    1  UNL1        0.1020
     33 C          -9.1545   -7.3991   18.5947 C.ar    1  UNL1        0.0431
     34 C         -10.2267   -8.1223   17.8348 C.ar    1  UNL1        0.1221
     35 N         -11.5012   -7.3444   17.9779 N.ar    1  UNL1       -0.1635
@<TRIPOS>UNITY_ATOM_ATTR
21 1
charge -1
@<TRIPOS>BOND
     1    21    22   ar
     2    22    23   ar
     3    22    20    1
     4    20    18    1
     5    18    12    1
     6    12    13   ar
     7    13    14   ar
     8    14    15   ar
     9    15    16   ar
    10    16    11    1
    11    11     1    1
    12     1    24    1
    13    24    25    1
    14    25    26   ar
    15    26    27   ar
    16    27    28   ar
    17    28    31    1
    18    31    32   ar
    19    32    33   ar
    20    33    34   ar
    21    34    35   ar
    22    28    29   ar
    23    29    30   ar
    24     1     2    1
    25     2     3    2
    26     2     4    2
    27     2     5    1
    28     5     6   ar
    29     6     7   ar
    30     7     8   ar
    31     8     9   ar
    32     9    10   ar
    33    16    17   ar
    34    17    12   ar
    35    30    25   ar
    36    10     5   ar
    37    35    31   ar
    38    18    19    1
@<TRIPOS>MOLECULE
*****
 35 38 0 0 0
SMALL
GASTEIGER

@<TRIPOS>ATOM
      1 N          -0.9145    3.5310   21.1543 N.3     1  UNL1       -0.1450
      2 S           0.0536    2.5359   20.5863 S.O2    1  UNL1        0.0654
      3 O           1.1286    3.5821   20.5857 O.2     1  UNL1       -0.1527
      4 O          -1.0213    1.4897   20.5870 O.2     1  UNL1       -0.1527
      5 C           1.0218    1.5409   20.0184 C.ar    1  UNL1        0.1413
      6 C           1.0879    0.1526   20.5825 C.ar    1  UNL1        0.0231
      7 C           2.0561   -0.8424   20.0146 C.ar    1  UNL1        0.0221
      8 C           2.9580   -0.4492   18.8824 C.ar    1  UNL1        0.0990
      9 N           2.8919    0.9391   18.3182 N.ar    1  UNL1       -0.2409
     10 C           1.9238    1.9341   18.8862 C.ar    1  UNL1        0.1187
     11 C          -0.5320    4.3508   22.3508 C.3     1  UNL1        0.1416
     12 C          -0.5964    2.1462   25.6501 C.ar    1  UNL1        0.1284
     13 C          -1.5738    2.9170   26.4870 C.ar    1  UNL1        0.0341
     14 C          -2.2040    4.1657   25.9452 C.ar    1  UNL1        0.0041
     15 C          -1.8567    4.6436   24.5665 C.ar    1  UNL1        0.0163
     16 C          -0.8793    3.8729   23.7296 C.ar    1  UNL1        0.0783
     17 N          -0.2491    2.6242   24.2714 N.ar    1  UNL1       -0.2338
     18 N           0.0338    0.8975   26.1919 N.pl3   1  UNL1       -0.3135
     19 H           0.0411    0.0751   25.6508 H       1  UNL1        0.1485
     20 C           0.6530    0.9019   27.5581 C.3     1  UNL1        0.1306
     21 O          -1.4164   -0.2561   28.6196 O.co2   1  UNL1       -0.5474
     22 C           0.0430    0.0880   28.6607 C.2     1  UNL1        0.0702
     23 O           0.8924   -0.3817   29.8043 O.co2   1  UNL1       -0.5474
     24 C          -2.2652    3.7062   20.5257 C.3     1  UNL1        0.1225
     25 C          -3.4330    4.1334   21.3645 C.ar    1  UNL1       -0.0044
     26 C          -4.2663    3.1045   22.0696 C.ar    1  UNL1       -0.0013
     27 C          -5.4341    3.5317   22.9084 C.ar    1  UNL1        0.0189
     28 C          -5.7688    4.9878   23.0421 C.ar    1  UNL1        0.0828
     29 C          -4.9355    6.0167   22.3371 C.ar    1  UNL1        0.0189
     30 C          -3.7676    5.5894   21.4982 C.ar    1  UNL1       -0.0013
     31 N          -6.9366    5.4150   23.8809 N.ar    1  UNL1       -0.2281
     32 C          -6.8620    6.1310   25.1968 C.ar    1  UNL1        0.1020
     33 C          -8.2634    6.3597   25.6803 C.ar    1  UNL1        0.0431
     34 C          -9.2042    5.7850   24.6631 C.ar    1  UNL1        0.1221
     35 N          -8.3842    5.2011   23.5511 N.ar    1  UNL1       -0.1635
@<TRIPOS>UNITY_ATOM_ATTR
21 1
charge -1
@<TRIPOS>BOND
     1    21    22   ar
     2    22    23   ar
     3    22    20    1
     4    20    18    1
     5    18    12    1
     6    12    13   ar
     7    13    14   ar
     8    14    15   ar
     9    15    16   ar
    10    16    11    1
    11    11     1    1
    12     1    24    1
    13    24    25    1
    14    25    26   ar
    15    26    27   ar
    16    27    28   ar
    17    28    31    1
    18    31    32   ar
    19    32    33   ar
    20    33    34   ar
    21    34    35   ar
    22    28    29   ar
    23    29    30   ar
    24     1     2    1
    25     2     3    2
    26     2     4    2
    27     2     5    1
    28     5     6   ar
    29     6     7   ar
    30     7     8   ar
    31     8     9   ar
    32     9    10   ar
    33    16    17   ar
    34    17    12   ar
    35    30    25   ar
    36    10     5   ar
    37    35    31   ar
    38    18    19    1
