@<TRIPOS>MOLECULE
*****
 23 26 0 0 0
SMALL
GASTEIGER

@<TRIPOS>ATOM
      1 C          -8.3219  -18.0431   21.7290 C.2     1  UNL1        0.3395
      2 O          -8.3377  -18.5326   20.3113 O.2     1  UNL1       -0.2452
      3 C         -11.4995  -17.0334   22.3238 C.2     1  UNL1        0.1257
      4 C         -12.9086  -16.7826   22.7727 C.2     1  UNL1        0.0331
      5 C         -13.5114  -17.6252   23.8574 C.2     1  UNL1        0.0040
      6 C         -12.7052  -18.7186   24.4932 C.2     1  UNL1        0.0155
      7 C         -11.2961  -18.9694   24.0444 C.2     1  UNL1        0.0702
      8 N         -10.2660  -19.9680   24.4823 N.2     1  UNL1       -0.2475
      9 C          -9.0264  -19.7425   23.6682 C.2     1  UNL1        0.1014
     10 C          -9.2905  -18.6046   22.7272 C.2     1  UNL1        0.0849
     11 C         -10.6933  -18.1268   22.9597 C.3     1  UNL1        0.1268
     12 C         -11.4238  -16.2823   19.8379 C.3     1  UNL1        0.2520
     13 O         -10.8966  -16.1908   21.2391 O.2     1  UNL1       -0.4750
     14 O          -7.3374  -16.9919   22.1485 O.3     1  UNL1       -0.4456
     15 C          -7.7987  -15.8073   22.9447 C.3     1  UNL1        0.2087
     16 C          -7.4774  -15.7154   24.4069 C.3     1  UNL1        0.0445
     17 C          -8.5372  -16.0069   25.4276 C.3     1  UNL1        0.0210
     18 C          -8.2158  -15.9149   26.8898 C.3     1  UNL1        0.0722
     19 N          -6.8345  -15.5314   27.3316 N.3     1  UNL1       -0.2727
     20 C          -5.7747  -15.2399   26.3109 C.3     1  UNL1        0.0722
     21 C          -6.0961  -15.3319   24.8486 C.3     1  UNL1        0.0210
     22 C          -6.9633  -15.5687   26.5191 C.3     1  UNL1        0.0722
     23 C          -7.2538  -15.6518   25.1969 C.3     1  UNL1        0.0210
@<TRIPOS>BOND
     1    12    13    1
     2    13     3    1
     3     3     4    2
     4     4     5    1
     5     5     6    2
     6     6     7    1
     7     7     8    2
     8     8     9    1
     9     9    10    2
    10    10     1    1
    11     1     2    2
    12     1    14    1
    13    14    15    1
    14    15    16    1
    15    16    17    1
    16    17    18    1
    17    18    19    1
    18    19    20    1
    19    20    21    1
    20    19    22    1
    21    22    23    1
    22    10    11    1
    23    11     3    1
    24    11     7    1
    25    21    16    1
    26    23    16    1
@<TRIPOS>MOLECULE
*****
 23 26 0 0 0
SMALL
GASTEIGER

@<TRIPOS>ATOM
      1 C          -7.4968  -18.6939   21.8593 C.2     1  UNL1        0.3395
      2 O          -7.2279  -20.0718   22.3875 O.2     1  UNL1       -0.2452
      3 C         -10.4042  -17.6857   20.4450 C.2     1  UNL1        0.1257
      4 C         -11.7365  -17.1172   20.0554 C.2     1  UNL1        0.0331
      5 C         -12.5135  -16.2882   21.0346 C.2     1  UNL1        0.0040
      6 C         -11.9584  -16.0278   22.4035 C.2     1  UNL1        0.0155
      7 C         -10.6262  -16.5963   22.7932 C.2     1  UNL1        0.0702
      8 N          -9.8299  -16.5093   24.0614 N.2     1  UNL1       -0.2475
      9 C          -8.5607  -17.2845   23.8660 C.2     1  UNL1        0.1014
     10 C          -8.5726  -17.8506   22.4769 C.2     1  UNL1        0.0849
     11 C          -9.8491  -17.4252   21.8139 C.3     1  UNL1        0.1268
     12 C          -9.9172  -19.9798   19.3270 C.3     1  UNL1        0.2520
     13 O          -9.6271  -18.5147   19.4657 O.2     1  UNL1       -0.4750
     14 O          -6.6897  -18.1593   20.7134 O.3     1  UNL1       -0.4456
     15 C          -5.7976  -19.0774   19.9316 C.3     1  UNL1        0.2087
     16 C          -4.3147  -19.0528   20.1560 C.3     1  UNL1        0.0445
     17 C          -3.7304  -19.6953   21.3790 C.3     1  UNL1        0.0210
     18 C          -2.2475  -19.6707   21.6033 C.3     1  UNL1        0.0722
     19 N          -1.3488  -19.0034   20.6047 N.3     1  UNL1       -0.2727
     20 C          -1.9331  -18.3609   19.3817 C.3     1  UNL1        0.0722
     21 C          -3.4161  -18.3856   19.1574 C.3     1  UNL1        0.0210
     22 C          -2.1552  -18.9916   20.4387 C.3     1  UNL1        0.0722
     23 C          -3.4961  -19.0138   20.2357 C.3     1  UNL1        0.0210
@<TRIPOS>BOND
     1    12    13    1
     2    13     3    1
     3     3     4    2
     4     4     5    1
     5     5     6    2
     6     6     7    1
     7     7     8    2
     8     8     9    1
     9     9    10    2
    10    10     1    1
    11     1     2    2
    12     1    14    1
    13    14    15    1
    14    15    16    1
    15    16    17    1
    16    17    18    1
    17    18    19    1
    18    19    20    1
    19    20    21    1
    20    19    22    1
    21    22    23    1
    22    10    11    1
    23    11     3    1
    24    11     7    1
    25    21    16    1
    26    23    16    1
@<TRIPOS>MOLECULE
*****
 23 26 0 0 0
SMALL
GASTEIGER

@<TRIPOS>ATOM
      1 C          -8.7113  -17.5684   21.2231 C.2     1  UNL1        0.3395
      2 O          -8.2748  -18.7631   20.4282 O.2     1  UNL1       -0.2452
      3 C         -10.7524  -18.5480   23.7419 C.2     1  UNL1        0.1257
      4 C         -11.8475  -18.8472   24.7224 C.2     1  UNL1        0.0331
      5 C         -13.2323  -18.3230   24.4830 C.2     1  UNL1        0.0040
      6 C         -13.5222  -17.4995   23.2632 C.2     1  UNL1        0.0155
      7 C         -12.4271  -17.2003   22.2828 C.2     1  UNL1        0.0702
      8 N         -12.4129  -16.4219   21.0006 N.2     1  UNL1       -0.2475
      9 C         -11.0192  -16.4650   20.4476 C.2     1  UNL1        0.1014
     10 C         -10.1721  -17.2701   21.3880 C.2     1  UNL1        0.0849
     11 C         -11.0422  -17.7246   22.5221 C.3     1  UNL1        0.1268
     12 C          -8.9943  -20.4468   23.5113 C.3     1  UNL1        0.2520
     13 O          -9.3675  -19.0722   23.9813 O.2     1  UNL1       -0.4750
     14 O          -7.6870  -16.6718   21.8532 O.3     1  UNL1       -0.4456
     15 C          -8.1206  -15.5612   22.7634 C.3     1  UNL1        0.2087
     16 C          -7.6713  -15.5457   24.1944 C.3     1  UNL1        0.0445
     17 C          -6.2335  -15.2759   24.5262 C.3     1  UNL1        0.0210
     18 C          -5.7842  -15.2604   25.9572 C.3     1  UNL1        0.0722
     19 N          -6.7726  -15.5147   27.0566 N.3     1  UNL1       -0.2727
     20 C          -8.2104  -15.7844   26.7248 C.3     1  UNL1        0.0722
     21 C          -8.6597  -15.7999   25.2936 C.3     1  UNL1        0.0210
     22 C          -7.0659  -15.5333   26.2873 C.3     1  UNL1        0.0722
     23 C          -7.4723  -15.5474   24.9934 C.3     1  UNL1        0.0210
@<TRIPOS>BOND
     1    12    13    1
     2    13     3    1
     3     3     4    2
     4     4     5    1
     5     5     6    2
     6     6     7    1
     7     7     8    2
     8     8     9    1
     9     9    10    2
    10    10     1    1
    11     1     2    2
    12     1    14    1
    13    14    15    1
    14    15    16    1
    15    16    17    1
    16    17    18    1
    17    18    19    1
    18    19    20    1
    19    20    21    1
    20    19    22    1
    21    22    23    1
    22    10    11    1
    23    11     3    1
    24    11     7    1
    25    21    16    1
    26    23    16    1
@<TRIPOS>MOLECULE
*****
 23 26 0 0 0
SMALL
GASTEIGER

@<TRIPOS>ATOM
      1 C          -8.0603  -16.8137   21.8605 C.2     1  UNL1        0.3395
      2 O          -7.8599  -15.3436   21.6404 O.2     1  UNL1       -0.2452
      3 C         -11.3842  -17.3274   21.4635 C.2     1  UNL1        0.1257
      4 C         -12.8514  -17.6279   21.5477 C.2     1  UNL1        0.0331
      5 C         -13.4460  -18.1071   22.8387 C.2     1  UNL1        0.0040
      6 C         -12.5734  -18.2858   24.0456 C.2     1  UNL1        0.0155
      7 C         -11.1063  -17.9853   23.9615 C.2     1  UNL1        0.0702
      8 N         -10.0053  -18.0666   24.9770 N.2     1  UNL1       -0.2475
      9 C          -8.7302  -17.6375   24.3136 C.2     1  UNL1        0.1014
     10 C          -9.0432  -17.2912   22.8881 C.2     1  UNL1        0.0849
     11 C         -10.5117  -17.5061   22.6705 C.3     1  UNL1        0.1268
     12 C         -11.4031  -15.6856   19.4501 C.3     1  UNL1        0.2520
     13 O         -10.7896  -16.8482   20.1725 O.2     1  UNL1       -0.4750
     14 O          -7.2776  -17.8065   21.0530 O.3     1  UNL1       -0.4456
     15 C          -6.6805  -19.0107   21.7188 C.3     1  UNL1        0.2087
     16 C          -5.2284  -19.3322   21.5244 C.3     1  UNL1        0.0445
     17 C          -4.8012  -20.2161   20.3904 C.3     1  UNL1        0.0210
     18 C          -3.3490  -20.5376   20.1960 C.3     1  UNL1        0.0722
     19 N          -2.3239  -19.9753   21.1358 N.3     1  UNL1       -0.2727
     20 C          -2.7511  -19.0914   22.2698 C.3     1  UNL1        0.0722
     21 C          -4.2034  -18.7698   22.4642 C.3     1  UNL1        0.0210
     22 C          -3.1080  -19.7711   21.2825 C.3     1  UNL1        0.0722
     23 C          -4.4211  -19.4803   21.4583 C.3     1  UNL1        0.0210
@<TRIPOS>BOND
     1    12    13    1
     2    13     3    1
     3     3     4    2
     4     4     5    1
     5     5     6    2
     6     6     7    1
     7     7     8    2
     8     8     9    1
     9     9    10    2
    10    10     1    1
    11     1     2    2
    12     1    14    1
    13    14    15    1
    14    15    16    1
    15    16    17    1
    16    17    18    1
    17    18    19    1
    18    19    20    1
    19    20    21    1
    20    19    22    1
    21    22    23    1
    22    10    11    1
    23    11     3    1
    24    11     7    1
    25    21    16    1
    26    23    16    1
@<TRIPOS>MOLECULE
*****
 23 26 0 0 0
SMALL
GASTEIGER

@<TRIPOS>ATOM
      1 C          -8.1848  -18.9309   20.6845 C.2     1  UNL1        0.3395
      2 O          -8.8149  -19.0327   19.3271 O.2     1  UNL1       -0.2452
      3 C         -11.1707  -17.5331   21.4597 C.2     1  UNL1        0.1257
      4 C         -12.4760  -17.0616   22.0286 C.2     1  UNL1        0.0331
      5 C         -12.9440  -17.5752   23.3580 C.2     1  UNL1        0.0040
      6 C         -12.1067  -18.5603   24.1184 C.2     1  UNL1        0.0155
      7 C         -10.8014  -19.0319   23.5495 C.2     1  UNL1        0.0702
      8 N          -9.7694  -19.9904   24.0655 N.2     1  UNL1       -0.2475
      9 C          -8.6636  -20.0693   23.0551 C.2     1  UNL1        0.1014
     10 C          -9.0122  -19.1594   21.9146 C.2     1  UNL1        0.0849
     11 C         -10.3334  -18.5183   22.2202 C.3     1  UNL1        0.1268
     12 C         -11.3976  -15.8550   19.4894 C.3     1  UNL1        0.2520
     13 O         -10.7027  -17.0195   20.1304 O.2     1  UNL1       -0.4750
     14 O          -6.7271  -18.6004   20.8117 O.3     1  UNL1       -0.4456
     15 C          -5.6917  -19.6119   20.4182 C.3     1  UNL1        0.2087
     16 C          -4.2345  -19.2678   20.5095 C.3     1  UNL1        0.0445
     17 C          -3.5045  -19.4346   21.8091 C.3     1  UNL1        0.0210
     18 C          -2.0473  -19.0905   21.9003 C.3     1  UNL1        0.0722
     19 N          -1.3202  -18.5797   20.6919 N.3     1  UNL1       -0.2727
     20 C          -2.0502  -18.4129   19.3922 C.3     1  UNL1        0.0722
     21 C          -3.5075  -18.7570   19.3010 C.3     1  UNL1        0.0210
     22 C          -2.1186  -18.7551   20.5932 C.3     1  UNL1        0.0722
     23 C          -3.4362  -19.0661   20.5107 C.3     1  UNL1        0.0210
@<TRIPOS>BOND
     1    12    13    1
     2    13     3    1
     3     3     4    2
     4     4     5    1
     5     5     6    2
     6     6     7    1
     7     7     8    2
     8     8     9    1
     9     9    10    2
    10    10     1    1
    11     1     2    2
    12     1    14    1
    13    14    15    1
    14    15    16    1
    15    16    17    1
    16    17    18    1
    17    18    19    1
    18    19    20    1
    19    20    21    1
    20    19    22    1
    21    22    23    1
    22    10    11    1
    23    11     3    1
    24    11     7    1
    25    21    16    1
    26    23    16    1
@<TRIPOS>MOLECULE
*****
 23 26 0 0 0
SMALL
GASTEIGER

@<TRIPOS>ATOM
      1 C          -7.4527  -18.6008   21.9862 C.2     1  UNL1        0.3395
      2 O          -7.7579  -17.1754   21.6330 O.2     1  UNL1       -0.2452
      3 C          -4.2225  -17.8810   22.7055 C.2     1  UNL1        0.1257
      4 C          -2.7344  -17.7614   22.8510 C.2     1  UNL1        0.0331
      5 C          -1.8293  -18.6726   22.0761 C.2     1  UNL1        0.0040
      6 C          -2.4124  -19.7036   21.1557 C.2     1  UNL1        0.0155
      7 C          -3.9005  -19.8232   21.0102 C.2     1  UNL1        0.0702
      8 N          -4.7581  -20.7366   20.1855 N.2     1  UNL1       -0.2475
      9 C          -6.1932  -20.3899   20.4507 C.2     1  UNL1        0.1014
     10 C          -6.2225  -19.2622   21.4393 C.2     1  UNL1        0.0849
     11 C          -4.8055  -18.9120   21.7852 C.3     1  UNL1        0.1268
     12 C          -4.7541  -15.5302   23.6754 C.3     1  UNL1        0.2520
     13 O          -5.1275  -16.9698   23.4805 O.2     1  UNL1       -0.4750
     14 O          -8.3779  -19.3650   22.8863 O.3     1  UNL1       -0.4456
     15 C          -9.6861  -19.8751   22.3585 C.3     1  UNL1        0.2087
     16 C         -10.7102  -18.9123   21.8350 C.3     1  UNL1        0.0445
     17 C         -10.6360  -18.4375   20.4141 C.3     1  UNL1        0.0210
     18 C         -11.6602  -17.4747   19.8906 C.3     1  UNL1        0.0722
     19 N         -12.7586  -16.9866   20.7881 N.3     1  UNL1       -0.2727
     20 C         -12.8328  -17.4614   22.2090 C.3     1  UNL1        0.0722
     21 C         -11.8085  -18.4243   22.7325 C.3     1  UNL1        0.0210
     22 C         -12.2202  -17.5139   21.1199 C.3     1  UNL1        0.0722
     23 C         -11.2942  -18.3845   21.5933 C.3     1  UNL1        0.0210
@<TRIPOS>BOND
     1    12    13    1
     2    13     3    1
     3     3     4    2
     4     4     5    1
     5     5     6    2
     6     6     7    1
     7     7     8    2
     8     8     9    1
     9     9    10    2
    10    10     1    1
    11     1     2    2
    12     1    14    1
    13    14    15    1
    14    15    16    1
    15    16    17    1
    16    17    18    1
    17    18    19    1
    18    19    20    1
    19    20    21    1
    20    19    22    1
    21    22    23    1
    22    10    11    1
    23    11     3    1
    24    11     7    1
    25    21    16    1
    26    23    16    1
@<TRIPOS>MOLECULE
*****
 23 26 0 0 0
SMALL
GASTEIGER

@<TRIPOS>ATOM
      1 C          -9.3767  -18.9847   20.0893 C.2     1  UNL1        0.3395
      2 O          -9.5210  -20.2000   19.2221 O.2     1  UNL1       -0.2452
      3 C         -11.0405  -19.2123   23.0304 C.2     1  UNL1        0.1257
      4 C         -11.9392  -19.1240   24.2281 C.2     1  UNL1        0.0331
      5 C         -13.0994  -18.1733   24.2268 C.2     1  UNL1        0.0040
      6 C         -13.3610  -17.3109   23.0277 C.2     1  UNL1        0.0155
      7 C         -12.4623  -17.3992   21.8300 C.2     1  UNL1        0.0702
      8 N         -12.4710  -16.6803   20.5135 N.2     1  UNL1       -0.2475
      9 C         -11.3162  -17.1868   19.7011 C.2     1  UNL1        0.1014
     10 C         -10.5938  -18.2186   20.5156 C.2     1  UNL1        0.0849
     11 C         -11.3021  -18.3499   21.8313 C.3     1  UNL1        0.1268
     12 C          -9.4329  -20.7986   24.3146 C.3     1  UNL1        0.2520
     13 O          -9.8803  -20.1631   23.0317 O.2     1  UNL1       -0.4750
     14 O          -8.0151  -18.5354   20.5302 O.3     1  UNL1       -0.4456
     15 C          -7.2501  -19.3398   21.5391 C.3     1  UNL1        0.2087
     16 C          -5.7833  -19.5863   21.3453 C.3     1  UNL1        0.0445
     17 C          -5.3101  -20.4371   20.2042 C.3     1  UNL1        0.0210
     18 C          -3.8432  -20.6837   20.0105 C.3     1  UNL1        0.0722
     19 N          -2.8495  -20.0794   20.9579 N.3     1  UNL1       -0.2727
     20 C          -3.3227  -19.2286   22.0990 C.3     1  UNL1        0.0722
     21 C          -4.7897  -18.9821   22.2927 C.3     1  UNL1        0.0210
     22 C          -3.6431  -19.9161   21.1045 C.3     1  UNL1        0.0722
     23 C          -4.9695  -19.6931   21.2798 C.3     1  UNL1        0.0210
@<TRIPOS>BOND
     1    12    13    1
     2    13     3    1
     3     3     4    2
     4     4     5    1
     5     5     6    2
     6     6     7    1
     7     7     8    2
     8     8     9    1
     9     9    10    2
    10    10     1    1
    11     1     2    2
    12     1    14    1
    13    14    15    1
    14    15    16    1
    15    16    17    1
    16    17    18    1
    17    18    19    1
    18    19    20    1
    19    20    21    1
    20    19    22    1
    21    22    23    1
    22    10    11    1
    23    11     3    1
    24    11     7    1
    25    21    16    1
    26    23    16    1
@<TRIPOS>MOLECULE
*****
 23 26 0 0 0
SMALL
GASTEIGER

@<TRIPOS>ATOM
      1 C          -7.2025  -15.5654   22.8965 C.2     1  UNL1        0.3395
      2 O          -7.8258  -15.0094   21.6506 O.2     1  UNL1       -0.2452
      3 C          -8.9123  -18.4463   22.3993 C.2     1  UNL1        0.1257
      4 C          -9.7432  -19.6945   22.4374 C.2     1  UNL1        0.0331
      5 C         -10.4492  -20.0872   23.7012 C.2     1  UNL1        0.0040
      6 C         -10.3244  -19.2317   24.9270 C.2     1  UNL1        0.0155
      7 C          -9.4935  -17.9835   24.8889 C.2     1  UNL1        0.0702
      8 N          -9.1868  -16.9497   25.9315 N.2     1  UNL1       -0.2475
      9 C          -8.2913  -15.9180   25.3121 C.2     1  UNL1        0.1014
     10 C          -8.0445  -16.3142   23.8866 C.2     1  UNL1        0.0849
     11 C          -8.7875  -17.5908   23.6250 C.3     1  UNL1        0.1268
     12 C          -7.6865  -19.1109   20.2071 C.3     1  UNL1        0.2520
     13 O          -8.2063  -18.0535   21.1354 O.2     1  UNL1       -0.4750
     14 O          -5.7370  -15.3725   23.1523 O.3     1  UNL1       -0.4456
     15 C          -4.9600  -16.4222   23.8902 C.3     1  UNL1        0.2087
     16 C          -4.2430  -17.4979   23.1294 C.3     1  UNL1        0.0445
     17 C          -2.7611  -17.4056   22.9166 C.3     1  UNL1        0.0210
     18 C          -2.0442  -18.4813   22.1558 C.3     1  UNL1        0.0722
     19 N          -2.8092  -19.6495   21.6078 N.3     1  UNL1       -0.2727
     20 C          -4.2912  -19.7418   21.8206 C.3     1  UNL1        0.0722
     21 C          -5.0081  -18.6660   22.5815 C.3     1  UNL1        0.0210
     22 C          -3.2456  -19.0845   22.0182 C.3     1  UNL1        0.0722
     23 C          -3.8939  -18.1118   22.7061 C.3     1  UNL1        0.0210
@<TRIPOS>BOND
     1    12    13    1
     2    13     3    1
     3     3     4    2
     4     4     5    1
     5     5     6    2
     6     6     7    1
     7     7     8    2
     8     8     9    1
     9     9    10    2
    10    10     1    1
    11     1     2    2
    12     1    14    1
    13    14    15    1
    14    15    16    1
    15    16    17    1
    16    17    18    1
    17    18    19    1
    18    19    20    1
    19    20    21    1
    20    19    22    1
    21    22    23    1
    22    10    11    1
    23    11     3    1
    24    11     7    1
    25    21    16    1
    26    23    16    1
@<TRIPOS>MOLECULE
*****
 23 26 0 0 0
SMALL
GASTEIGER

@<TRIPOS>ATOM
      1 C          -7.0256  -19.1238   21.4619 C.2     1  UNL1        0.3395
      2 O          -6.6264  -20.5210   21.8337 O.2     1  UNL1       -0.2452
      3 C          -6.3526  -16.5224   23.5235 C.2     1  UNL1        0.1257
      4 C          -6.3190  -15.3765   24.4907 C.2     1  UNL1        0.0331
      5 C          -7.5823  -14.9229   25.1604 C.2     1  UNL1        0.0040
      6 C          -8.8792  -15.6154   24.8628 C.2     1  UNL1        0.0155
      7 C          -8.9127  -16.7613   23.8956 C.2     1  UNL1        0.0702
      8 N         -10.0337  -17.6307   23.4080 N.2     1  UNL1       -0.2475
      9 C          -9.4632  -18.6215   22.4369 C.2     1  UNL1        0.1014
     10 C          -7.9897  -18.3645   22.3244 C.2     1  UNL1        0.0849
     11 C          -7.6495  -17.2149   23.2259 C.3     1  UNL1        0.1268
     12 C          -3.9733  -17.5554   23.6716 C.3     1  UNL1        0.2520
     13 O          -5.0893  -16.9759   22.8538 O.2     1  UNL1       -0.4750
     14 O          -6.4606  -18.4858   20.2274 O.3     1  UNL1       -0.4456
     15 C          -5.3868  -19.1839   19.4466 C.3     1  UNL1        0.2087
     16 C          -3.9477  -19.0159   19.8349 C.3     1  UNL1        0.0445
     17 C          -3.0945  -18.0024   19.1315 C.3     1  UNL1        0.0210
     18 C          -1.6554  -17.8344   19.5198 C.3     1  UNL1        0.0722
     19 N          -1.0695  -18.6800   20.6116 N.3     1  UNL1       -0.2727
     20 C          -1.9227  -19.6934   21.3150 C.3     1  UNL1        0.0722
     21 C          -3.3619  -19.8614   20.9266 C.3     1  UNL1        0.0210
     22 C          -1.8632  -18.8080   20.4336 C.3     1  UNL1        0.0722
     23 C          -3.1644  -18.9600   20.0826 C.3     1  UNL1        0.0210
@<TRIPOS>BOND
     1    12    13    1
     2    13     3    1
     3     3     4    2
     4     4     5    1
     5     5     6    2
     6     6     7    1
     7     7     8    2
     8     8     9    1
     9     9    10    2
    10    10     1    1
    11     1     2    2
    12     1    14    1
    13    14    15    1
    14    15    16    1
    15    16    17    1
    16    17    18    1
    17    18    19    1
    18    19    20    1
    19    20    21    1
    20    19    22    1
    21    22    23    1
    22    10    11    1
    23    11     3    1
    24    11     7    1
    25    21    16    1
    26    23    16    1
