@<TRIPOS>MOLECULE
*****
 26 30 0 0 0
SMALL
GASTEIGER

@<TRIPOS>ATOM
      1 C          -6.7049  -15.8923   23.6723 C.ar    1  UNL1        0.1741
      2 C          -7.9950  -16.6386   23.8419 C.ar    1  UNL1        0.1326
      3 N          -8.9018  -16.2603   22.7085 N.ar    1  UNL1       -0.2326
      4 N          -8.1721  -15.2802   21.8384 N.ar    1  UNL1       -0.0627
      5 N          -6.8144  -15.0528   22.4340 N.ar    1  UNL1       -0.1136
      6 C         -10.2939  -16.7721   22.4845 C.3     1  UNL1        0.0882
      7 C         -10.8968  -17.7518   23.4471 C.3     1  UNL1        0.0225
      8 C         -12.2888  -18.2636   23.2231 C.3     1  UNL1        0.0019
      9 C         -13.0780  -17.7958   22.0363 C.3     1  UNL1        0.0001
     10 C         -12.4751  -16.8162   21.0737 C.3     1  UNL1        0.0019
     11 C         -10.2151  -17.3839   23.3929 C.3     1  UNL1        0.0001
     12 C         -10.1076  -18.2196   24.6339 C.3     1  UNL1        0.0019
     13 C         -11.4996  -18.7314   24.4098 C.3     1  UNL1        0.0001
     14 C          -9.5047  -17.2400   23.6712 C.3     1  UNL1        0.0225
     15 C         -11.0831  -16.3043   21.2977 C.3     1  UNL1        0.0225
     16 N          -5.5144  -15.9717   24.5813 N.pl3   1  UNL1       -0.2892
     17 C          -6.4394  -15.5532   26.9728 C.3     1  UNL1        0.0232
     18 C          -5.4964  -15.1931   25.8633 C.3     1  UNL1        0.0924
     19 C          -4.3419  -16.8297   24.2084 C.3     1  UNL1        0.1095
     20 C          -4.4516  -17.7938   23.0647 C.3     1  UNL1        0.0939
     21 N          -3.4536  -17.7470   21.9458 N.3     1  UNL1       -0.2670
     22 C          -3.5279  -18.7491   20.8321 C.3     1  UNL1        0.1047
     23 C          -2.5299  -18.7022   19.7132 C.3     1  UNL1        0.1595
     24 O          -1.4576  -17.6533   19.7081 O.3     1  UNL1       -0.3508
     25 C          -1.3834  -16.6513   20.8218 C.3     1  UNL1        0.1595
     26 C          -2.3813  -16.6981   21.9407 C.3     1  UNL1        0.1047
@<TRIPOS>BOND
     1    17    18    1
     2    18    16    1
     3    16    19    1
     4    19    20    1
     5    20    21    1
     6    21    22    1
     7    22    23    1
     8    23    24    1
     9    24    25    1
    10    25    26    1
    11    16     1    1
    12     1     2   ar
    13     2     3   ar
    14     3     6    1
    15     6     7    1
    16     7     8    1
    17     8     9    1
    18     9    10    1
    19    10    11    1
    20    11    12    1
    21    12    13    1
    22    12    14    1
    23    10    15    1
    24     3     4   ar
    25     4     5   ar
    26    26    21    1
    27     5     1   ar
    28    14     6    1
    29    15     6    1
    30    13     8    1
@<TRIPOS>MOLECULE
*****
 26 30 0 0 0
SMALL
GASTEIGER

@<TRIPOS>ATOM
      1 C          -6.8341  -18.4977   22.2194 C.ar    1  UNL1        0.1741
      2 C          -8.2627  -18.9521   22.2696 C.ar    1  UNL1        0.1326
      3 N          -9.0791  -17.8488   22.8749 N.ar    1  UNL1       -0.2326
      4 N          -8.1550  -16.7125   23.1988 N.ar    1  UNL1       -0.0627
      5 N          -6.7675  -17.1135   22.7937 N.ar    1  UNL1       -0.1136
      6 C         -10.5596  -17.8768   23.1143 C.3     1  UNL1        0.0882
      7 C         -11.4922  -17.2518   22.1195 C.3     1  UNL1        0.0225
      8 C         -12.9726  -17.2799   22.3589 C.3     1  UNL1        0.0019
      9 C         -13.5206  -17.9330   23.5931 C.3     1  UNL1        0.0001
     10 C         -12.5880  -18.5580   24.5878 C.3     1  UNL1        0.0019
     11 C         -10.7222  -17.3366   22.1722 C.3     1  UNL1        0.0001
     12 C         -10.9442  -16.5987   20.8853 C.3     1  UNL1        0.0019
     13 C         -12.4247  -16.6268   21.1247 C.3     1  UNL1        0.0001
     14 C         -10.0117  -17.2237   21.8801 C.3     1  UNL1        0.0225
     15 C         -11.1076  -18.5299   24.3484 C.3     1  UNL1        0.0225
     16 N          -5.6755  -19.2885   21.6882 N.pl3   1  UNL1       -0.2892
     17 C          -5.9799  -21.3668   20.1592 C.3     1  UNL1        0.0232
     18 C          -5.7459  -19.8936   20.3175 C.3     1  UNL1        0.0924
     19 C          -4.4464  -19.4743   22.5278 C.3     1  UNL1        0.1095
     20 C          -3.1217  -19.7294   21.8721 C.3     1  UNL1        0.0939
     21 N          -2.2894  -18.5784   21.3899 N.3     1  UNL1       -0.2670
     22 C          -2.4947  -17.2099   21.9690 C.3     1  UNL1        0.1047
     23 C          -1.6624  -16.0589   21.4868 C.3     1  UNL1        0.1595
     24 O          -0.6248  -16.2764   20.4256 O.3     1  UNL1       -0.3508
     25 C          -0.4196  -17.6448   19.8466 C.3     1  UNL1        0.1595
     26 C          -1.2519  -18.7958   20.3287 C.3     1  UNL1        0.1047
@<TRIPOS>BOND
     1    17    18    1
     2    18    16    1
     3    16    19    1
     4    19    20    1
     5    20    21    1
     6    21    22    1
     7    22    23    1
     8    23    24    1
     9    24    25    1
    10    25    26    1
    11    16     1    1
    12     1     2   ar
    13     2     3   ar
    14     3     6    1
    15     6     7    1
    16     7     8    1
    17     8     9    1
    18     9    10    1
    19    10    11    1
    20    11    12    1
    21    12    13    1
    22    12    14    1
    23    10    15    1
    24     3     4   ar
    25     4     5   ar
    26    26    21    1
    27     5     1   ar
    28    14     6    1
    29    15     6    1
    30    13     8    1
@<TRIPOS>MOLECULE
*****
 26 30 0 0 0
SMALL
GASTEIGER

@<TRIPOS>ATOM
      1 C          -8.7318  -17.8576   21.5068 C.ar    1  UNL1        0.1741
      2 C          -8.1412  -17.8951   22.8851 C.ar    1  UNL1        0.1326
      3 N          -8.2675  -16.5244   23.4810 N.ar    1  UNL1       -0.2326
      4 N          -8.9361  -15.6397   22.4709 N.ar    1  UNL1       -0.0627
      5 N          -9.2231  -16.4636   21.2508 N.ar    1  UNL1       -0.1136
      6 C          -7.8062  -16.1109   24.8472 C.3     1  UNL1        0.0882
      7 C          -6.3963  -15.6422   25.0527 C.3     1  UNL1        0.0225
      8 C          -5.9350  -15.2288   26.4188 C.3     1  UNL1        0.0019
      9 C          -6.8837  -15.2841   27.5794 C.3     1  UNL1        0.0001
     10 C          -8.2937  -15.7528   27.3738 C.3     1  UNL1        0.0019
     11 C          -6.8093  -15.8895   24.4435 C.3     1  UNL1        0.0001
     12 C          -5.4476  -15.5869   23.8922 C.3     1  UNL1        0.0019
     13 C          -4.9863  -15.1735   25.2583 C.3     1  UNL1        0.0001
     14 C          -6.8575  -16.0556   23.6866 C.3     1  UNL1        0.0225
     15 C          -8.7549  -16.1662   26.0077 C.3     1  UNL1        0.0225
     16 N          -8.8162  -19.0114   20.5520 N.pl3   1  UNL1       -0.2892
     17 C         -11.0450  -20.0174   21.4295 C.3     1  UNL1        0.0232
     18 C         -10.1373  -19.6704   20.2869 C.3     1  UNL1        0.0924
     19 C          -7.5795  -19.5063   19.8623 C.3     1  UNL1        0.1095
     20 C          -6.5059  -20.1958   20.6509 C.3     1  UNL1        0.0939
     21 N          -5.1992  -19.5039   20.9035 N.3     1  UNL1       -0.2670
     22 C          -4.2994  -19.1575   19.7544 C.3     1  UNL1        0.1047
     23 C          -2.9927  -18.4657   20.0071 C.3     1  UNL1        0.1595
     24 O          -2.5857  -18.1203   21.4089 O.3     1  UNL1       -0.3508
     25 C          -3.4855  -18.4667   22.5580 C.3     1  UNL1        0.1595
     26 C          -4.7922  -19.1585   22.3053 C.3     1  UNL1        0.1047
@<TRIPOS>BOND
     1    17    18    1
     2    18    16    1
     3    16    19    1
     4    19    20    1
     5    20    21    1
     6    21    22    1
     7    22    23    1
     8    23    24    1
     9    24    25    1
    10    25    26    1
    11    16     1    1
    12     1     2   ar
    13     2     3   ar
    14     3     6    1
    15     6     7    1
    16     7     8    1
    17     8     9    1
    18     9    10    1
    19    10    11    1
    20    11    12    1
    21    12    13    1
    22    12    14    1
    23    10    15    1
    24     3     4   ar
    25     4     5   ar
    26    26    21    1
    27     5     1   ar
    28    14     6    1
    29    15     6    1
    30    13     8    1
@<TRIPOS>MOLECULE
*****
 26 30 0 0 0
SMALL
GASTEIGER

@<TRIPOS>ATOM
      1 C          -8.2627  -18.8321   22.3714 C.ar    1  UNL1        0.1741
      2 C          -7.0582  -18.1877   21.7518 C.ar    1  UNL1        0.1326
      3 N          -5.9595  -19.2078   21.7045 N.ar    1  UNL1       -0.2326
      4 N          -6.4850  -20.4827   22.2949 N.ar    1  UNL1       -0.0627
      5 N          -7.9084  -20.2506   22.7070 N.ar    1  UNL1       -0.1136
      6 C          -4.5779  -18.9911   21.1620 C.3     1  UNL1        0.0882
      7 C          -3.5075  -18.4183   22.0430 C.3     1  UNL1        0.0225
      8 C          -2.1260  -18.2016   21.5005 C.3     1  UNL1        0.0019
      9 C          -1.8148  -18.5577   20.0770 C.3     1  UNL1        0.0001
     10 C          -2.8851  -19.1305   19.1960 C.3     1  UNL1        0.0019
     11 C          -4.2571  -18.5985   22.1360 C.3     1  UNL1        0.0001
     12 C          -3.8188  -18.0621   23.4665 C.3     1  UNL1        0.0019
     13 C          -2.4372  -17.8454   22.9240 C.3     1  UNL1        0.0001
     14 C          -4.8891  -18.6349   22.5855 C.3     1  UNL1        0.0225
     15 C          -4.2667  -19.3472   19.7385 C.3     1  UNL1        0.0225
     16 N          -9.5887  -18.1737   22.6129 N.pl3   1  UNL1       -0.2892
     17 C         -11.1013  -19.4312   20.9157 C.3     1  UNL1        0.0232
     18 C         -10.6221  -18.1475   21.5261 C.3     1  UNL1        0.0924
     19 C          -9.8812  -17.5416   23.9414 C.3     1  UNL1        0.1095
     20 C          -9.4559  -16.1285   24.2096 C.3     1  UNL1        0.0939
     21 N          -8.1872  -15.8570   24.9623 N.3     1  UNL1       -0.2670
     22 C          -6.9227  -15.5517   24.2154 C.3     1  UNL1        0.1047
     23 C          -5.6539  -15.2802   24.9681 C.3     1  UNL1        0.1595
     24 O          -5.6497  -15.3141   26.4677 O.3     1  UNL1       -0.3508
     25 C          -6.9142  -15.6194   27.2146 C.3     1  UNL1        0.1595
     26 C          -8.1830  -15.8909   26.4619 C.3     1  UNL1        0.1047
@<TRIPOS>BOND
     1    17    18    1
     2    18    16    1
     3    16    19    1
     4    19    20    1
     5    20    21    1
     6    21    22    1
     7    22    23    1
     8    23    24    1
     9    24    25    1
    10    25    26    1
    11    16     1    1
    12     1     2   ar
    13     2     3   ar
    14     3     6    1
    15     6     7    1
    16     7     8    1
    17     8     9    1
    18     9    10    1
    19    10    11    1
    20    11    12    1
    21    12    13    1
    22    12    14    1
    23    10    15    1
    24     3     4   ar
    25     4     5   ar
    26    26    21    1
    27     5     1   ar
    28    14     6    1
    29    15     6    1
    30    13     8    1
@<TRIPOS>MOLECULE
*****
 26 30 0 0 0
SMALL
GASTEIGER

@<TRIPOS>ATOM
      1 C          -8.0943  -18.4616   23.1540 C.ar    1  UNL1        0.1741
      2 C          -6.7939  -17.9092   22.6504 C.ar    1  UNL1        0.1326
      3 N          -6.0411  -19.0255   21.9893 N.ar    1  UNL1       -0.2326
      4 N          -6.8763  -20.2679   22.0842 N.ar    1  UNL1       -0.0627
      5 N          -8.1453  -19.9194   22.8041 N.ar    1  UNL1       -0.1136
      6 C          -4.6902  -18.9184   21.3460 C.3     1  UNL1        0.0882
      7 C          -3.5313  -18.3675   22.1227 C.3     1  UNL1        0.0225
      8 C          -2.1805  -18.2603   21.4795 C.3     1  UNL1        0.0019
      9 C          -1.9886  -18.7041   20.0596 C.3     1  UNL1        0.0001
     10 C          -3.1475  -19.2551   19.2829 C.3     1  UNL1        0.0019
     11 C          -4.2815  -18.4980   22.2745 C.3     1  UNL1        0.0001
     12 C          -3.7231  -17.9237   23.5427 C.3     1  UNL1        0.0019
     13 C          -2.3723  -17.8165   22.8994 C.3     1  UNL1        0.0001
     14 C          -4.8821  -18.4746   22.7660 C.3     1  UNL1        0.0225
     15 C          -4.4983  -19.3622   19.9261 C.3     1  UNL1        0.0225
     16 N          -9.1573  -17.6915   23.8801 N.pl3   1  UNL1       -0.2892
     17 C          -8.5997  -15.5906   25.3033 C.3     1  UNL1        0.0232
     18 C          -9.0480  -16.2010   24.0085 C.3     1  UNL1        0.0924
     19 C         -10.3294  -18.4118   24.4777 C.3     1  UNL1        0.1095
     20 C         -11.5595  -18.6548   23.6547 C.3     1  UNL1        0.0939
     21 N         -11.6578  -18.0912   22.2681 N.3     1  UNL1       -0.2670
     22 C         -11.1245  -18.8701   21.1023 C.3     1  UNL1        0.1047
     23 C         -11.2227  -18.3065   19.7157 C.3     1  UNL1        0.1595
     24 O         -11.8542  -16.9639   19.4949 O.3     1  UNL1       -0.3508
     25 C         -12.3875  -16.1850   20.6607 C.3     1  UNL1        0.1595
     26 C         -12.2893  -16.7487   22.0473 C.3     1  UNL1        0.1047
@<TRIPOS>BOND
     1    17    18    1
     2    18    16    1
     3    16    19    1
     4    19    20    1
     5    20    21    1
     6    21    22    1
     7    22    23    1
     8    23    24    1
     9    24    25    1
    10    25    26    1
    11    16     1    1
    12     1     2   ar
    13     2     3   ar
    14     3     6    1
    15     6     7    1
    16     7     8    1
    17     8     9    1
    18     9    10    1
    19    10    11    1
    20    11    12    1
    21    12    13    1
    22    12    14    1
    23    10    15    1
    24     3     4   ar
    25     4     5   ar
    26    26    21    1
    27     5     1   ar
    28    14     6    1
    29    15     6    1
    30    13     8    1
@<TRIPOS>MOLECULE
*****
 26 30 0 0 0
SMALL
GASTEIGER

@<TRIPOS>ATOM
      1 C          -5.5685  -18.8019   21.5538 C.ar    1  UNL1        0.1741
      2 C          -6.8628  -18.6549   22.2975 C.ar    1  UNL1        0.1326
      3 N          -7.9794  -18.6936   21.2967 N.ar    1  UNL1       -0.2326
      4 N          -7.3752  -18.8646   19.9344 N.ar    1  UNL1       -0.0627
      5 N          -5.8851  -18.9315   20.0933 N.ar    1  UNL1       -0.1136
      6 C          -9.4433  -18.5812   21.6041 C.3     1  UNL1        0.0882
      7 C         -10.0268  -19.3359   22.7616 C.3     1  UNL1        0.0225
      8 C         -11.4906  -19.2234   23.0690 C.3     1  UNL1        0.0019
      9 C         -12.3710  -18.3562   22.2188 C.3     1  UNL1        0.0001
     10 C         -11.7875  -17.6014   21.0613 C.3     1  UNL1        0.0019
     11 C          -9.3178  -19.2667   22.4526 C.3     1  UNL1        0.0001
     12 C          -9.1464  -20.2032   23.6118 C.3     1  UNL1        0.0019
     13 C         -10.6102  -20.0907   23.9191 C.3     1  UNL1        0.0001
     14 C          -8.5629  -19.4484   22.4543 C.3     1  UNL1        0.0225
     15 C         -10.3237  -17.7139   20.7540 C.3     1  UNL1        0.0225
     16 N          -4.1981  -18.8167   22.1636 N.pl3   1  UNL1       -0.2892
     17 C          -1.9871  -18.8983   20.8016 C.3     1  UNL1        0.0232
     18 C          -3.0985  -19.6067   21.5180 C.3     1  UNL1        0.0924
     19 C          -3.9272  -18.0415   23.4189 C.3     1  UNL1        0.1095
     20 C          -4.1983  -16.5670   23.4630 C.3     1  UNL1        0.0939
     21 N          -5.3141  -16.0345   24.3124 N.3     1  UNL1       -0.2670
     22 C          -6.5808  -15.5518   23.6703 C.3     1  UNL1        0.1047
     23 C          -7.6966  -15.0193   24.5196 C.3     1  UNL1        0.1595
     24 O          -7.5457  -14.9696   26.0112 O.3     1  UNL1       -0.3508
     25 C          -6.2789  -15.4523   26.6533 C.3     1  UNL1        0.1595
     26 C          -5.1631  -15.9847   25.8039 C.3     1  UNL1        0.1047
@<TRIPOS>BOND
     1    17    18    1
     2    18    16    1
     3    16    19    1
     4    19    20    1
     5    20    21    1
     6    21    22    1
     7    22    23    1
     8    23    24    1
     9    24    25    1
    10    25    26    1
    11    16     1    1
    12     1     2   ar
    13     2     3   ar
    14     3     6    1
    15     6     7    1
    16     7     8    1
    17     8     9    1
    18     9    10    1
    19    10    11    1
    20    11    12    1
    21    12    13    1
    22    12    14    1
    23    10    15    1
    24     3     4   ar
    25     4     5   ar
    26    26    21    1
    27     5     1   ar
    28    14     6    1
    29    15     6    1
    30    13     8    1
@<TRIPOS>MOLECULE
*****
 26 30 0 0 0
SMALL
GASTEIGER

@<TRIPOS>ATOM
      1 C          -6.6147  -18.4939   22.1194 C.ar    1  UNL1        0.1741
      2 C          -8.0853  -18.7812   22.0489 C.ar    1  UNL1        0.1326
      3 N          -8.8137  -17.6240   22.6655 N.ar    1  UNL1       -0.2326
      4 N          -7.7933  -16.6215   23.1172 N.ar    1  UNL1       -0.0627
      5 N          -6.4343  -17.1591   22.7796 N.ar    1  UNL1       -0.1136
      6 C         -10.3013  -17.4923   22.8060 C.3     1  UNL1        0.0882
      7 C         -11.0372  -18.3315   23.8080 C.3     1  UNL1        0.0225
      8 C         -12.5248  -18.1998   23.9484 C.3     1  UNL1        0.0019
      9 C         -13.2765  -17.2290   23.0867 C.3     1  UNL1        0.0001
     10 C         -12.5405  -16.3898   22.0847 C.3     1  UNL1        0.0019
     11 C         -10.2946  -18.2573   23.5937 C.3     1  UNL1        0.0001
     12 C         -10.2856  -19.3023   24.6697 C.3     1  UNL1        0.0019
     13 C         -11.7732  -19.1706   24.8101 C.3     1  UNL1        0.0001
     14 C          -9.5497  -18.4632   23.6677 C.3     1  UNL1        0.0225
     15 C         -11.0530  -16.5215   21.9443 C.3     1  UNL1        0.0225
     16 N          -5.5173  -19.3850   21.6177 N.pl3   1  UNL1       -0.2892
     17 C          -6.0174  -21.4970   20.1897 C.3     1  UNL1        0.0232
     18 C          -5.6425  -20.0473   20.2777 C.3     1  UNL1        0.0924
     19 C          -4.2946  -19.6137   22.4560 C.3     1  UNL1        0.1095
     20 C          -2.9563  -19.7826   21.8002 C.3     1  UNL1        0.0939
     21 N          -2.1765  -18.5772   21.3655 N.3     1  UNL1       -0.2670
     22 C          -2.4537  -17.2404   21.9870 C.3     1  UNL1        0.1047
     23 C          -1.6739  -16.0350   21.5524 C.3     1  UNL1        0.1595
     24 O          -0.6169  -16.1664   20.4963 O.3     1  UNL1       -0.3508
     25 C          -0.3396  -17.5032   19.8748 C.3     1  UNL1        0.1595
     26 C          -1.1195  -18.7086   20.3094 C.3     1  UNL1        0.1047
@<TRIPOS>BOND
     1    17    18    1
     2    18    16    1
     3    16    19    1
     4    19    20    1
     5    20    21    1
     6    21    22    1
     7    22    23    1
     8    23    24    1
     9    24    25    1
    10    25    26    1
    11    16     1    1
    12     1     2   ar
    13     2     3   ar
    14     3     6    1
    15     6     7    1
    16     7     8    1
    17     8     9    1
    18     9    10    1
    19    10    11    1
    20    11    12    1
    21    12    13    1
    22    12    14    1
    23    10    15    1
    24     3     4   ar
    25     4     5   ar
    26    26    21    1
    27     5     1   ar
    28    14     6    1
    29    15     6    1
    30    13     8    1
@<TRIPOS>MOLECULE
*****
 26 30 0 0 0
SMALL
GASTEIGER

@<TRIPOS>ATOM
      1 C          -6.5486  -18.8504   21.3755 C.ar    1  UNL1        0.1741
      2 C          -7.6088  -18.6959   22.4254 C.ar    1  UNL1        0.1326
      3 N          -8.9368  -18.6076   21.7336 N.ar    1  UNL1       -0.2326
      4 N          -8.6974  -18.7075   20.2562 N.ar    1  UNL1       -0.0627
      5 N          -7.2215  -18.8576   20.0349 N.ar    1  UNL1       -0.1136
      6 C         -10.2702  -18.4475   22.4019 C.3     1  UNL1        0.0882
      7 C         -11.3928  -17.7616   21.6813 C.3     1  UNL1        0.0225
      8 C         -12.7260  -17.6016   22.3496 C.3     1  UNL1        0.0019
      9 C         -12.9368  -18.1274   23.7385 C.3     1  UNL1        0.0001
     10 C         -11.8142  -18.8134   24.4591 C.3     1  UNL1        0.0019
     11 C         -10.6556  -17.9354   21.5103 C.3     1  UNL1        0.0001
     12 C         -11.1820  -17.2357   20.2924 C.3     1  UNL1        0.0019
     13 C         -12.5153  -17.0757   20.9607 C.3     1  UNL1        0.0001
     14 C         -10.0595  -17.9217   21.0130 C.3     1  UNL1        0.0225
     15 C         -10.4809  -18.9734   23.7908 C.3     1  UNL1        0.0225
     16 N          -5.0745  -18.9757   21.6229 N.pl3   1  UNL1       -0.2892
     17 C          -3.4008  -18.7003   19.6549 C.3     1  UNL1        0.0232
     18 C          -4.1876  -19.5838   20.5771 C.3     1  UNL1        0.0924
     19 C          -4.4872  -18.4929   22.9159 C.3     1  UNL1        0.1095
     20 C          -4.3377  -17.0220   23.1689 C.3     1  UNL1        0.0939
     21 N          -5.3057  -16.3136   24.0694 N.3     1  UNL1       -0.2670
     22 C          -5.0374  -16.2320   25.5430 C.3     1  UNL1        0.1047
     23 C          -6.0055  -15.5235   26.4435 C.3     1  UNL1        0.1595
     24 O          -7.2418  -14.8966   25.8704 O.3     1  UNL1       -0.3508
     25 C          -7.5101  -14.9782   24.3969 C.3     1  UNL1        0.1595
     26 C          -6.5421  -15.6867   23.4964 C.3     1  UNL1        0.1047
@<TRIPOS>BOND
     1    17    18    1
     2    18    16    1
     3    16    19    1
     4    19    20    1
     5    20    21    1
     6    21    22    1
     7    22    23    1
     8    23    24    1
     9    24    25    1
    10    25    26    1
    11    16     1    1
    12     1     2   ar
    13     2     3   ar
    14     3     6    1
    15     6     7    1
    16     7     8    1
    17     8     9    1
    18     9    10    1
    19    10    11    1
    20    11    12    1
    21    12    13    1
    22    12    14    1
    23    10    15    1
    24     3     4   ar
    25     4     5   ar
    26    26    21    1
    27     5     1   ar
    28    14     6    1
    29    15     6    1
    30    13     8    1
@<TRIPOS>MOLECULE
*****
 26 30 0 0 0
SMALL
GASTEIGER

@<TRIPOS>ATOM
      1 C          -6.0114  -17.8205   22.6923 C.ar    1  UNL1        0.1741
      2 C          -7.3386  -18.3636   22.2526 C.ar    1  UNL1        0.1326
      3 N          -8.3737  -17.3035   22.4865 N.ar    1  UNL1       -0.2326
      4 N          -7.6862  -16.1052   23.0708 N.ar    1  UNL1       -0.0627
      5 N          -6.2262  -16.4247   23.1980 N.ar    1  UNL1       -0.1136
      6 C          -9.8392  -17.4211   22.1885 C.3     1  UNL1        0.0882
      7 C         -10.3171  -18.3861   21.1443 C.3     1  UNL1        0.0225
      8 C         -11.7825  -18.5036   20.8463 C.3     1  UNL1        0.0019
      9 C         -12.7699  -17.6561   21.5925 C.3     1  UNL1        0.0001
     10 C         -12.2920  -16.6911   22.6366 C.3     1  UNL1        0.0019
     11 C          -9.6238  -18.1871   21.4318 C.3     1  UNL1        0.0001
     12 C          -9.3297  -19.2336   20.3982 C.3     1  UNL1        0.0019
     13 C         -10.7951  -19.3511   20.1002 C.3     1  UNL1        0.0001
     14 C          -8.8518  -18.2686   21.4423 C.3     1  UNL1        0.0225
     15 C         -10.8266  -16.5736   22.9346 C.3     1  UNL1        0.0225
     16 N          -4.6995  -18.5458   22.6362 N.pl3   1  UNL1       -0.2892
     17 C          -4.6456  -20.1569   20.5987 C.3     1  UNL1        0.0232
     18 C          -4.6356  -19.9384   22.0827 C.3     1  UNL1        0.0924
     19 C          -3.4517  -17.8784   23.1336 C.3     1  UNL1        0.1095
     20 C          -2.7640  -16.8481   22.2879 C.3     1  UNL1        0.0939
     21 N          -2.0974  -17.2527   21.0066 N.3     1  UNL1       -0.2670
     22 C          -0.6501  -17.6468   21.0060 C.3     1  UNL1        0.1047
     23 C           0.0165  -18.0515   19.7246 C.3     1  UNL1        0.1595
     24 O          -0.7642  -18.0621   18.4439 O.3     1  UNL1       -0.3508
     25 C          -2.2115  -17.6680   18.4445 C.3     1  UNL1        0.1595
     26 C          -2.8781  -17.2633   19.7258 C.3     1  UNL1        0.1047
@<TRIPOS>BOND
     1    17    18    1
     2    18    16    1
     3    16    19    1
     4    19    20    1
     5    20    21    1
     6    21    22    1
     7    22    23    1
     8    23    24    1
     9    24    25    1
    10    25    26    1
    11    16     1    1
    12     1     2   ar
    13     2     3   ar
    14     3     6    1
    15     6     7    1
    16     7     8    1
    17     8     9    1
    18     9    10    1
    19    10    11    1
    20    11    12    1
    21    12    13    1
    22    12    14    1
    23    10    15    1
    24     3     4   ar
    25     4     5   ar
    26    26    21    1
    27     5     1   ar
    28    14     6    1
    29    15     6    1
    30    13     8    1
