@<TRIPOS>MOLECULE
*****
 24 25 0 0 0
SMALL
GASTEIGER

@<TRIPOS>ATOM
      1 C          -4.7198  -17.3707   23.1312 C.ar    1  UNL1        0.1753
      2 C          -6.1340  -17.8528   22.9986 C.ar    1  UNL1        0.0403
      3 C          -6.4664  -18.9432   22.0237 C.ar    1  UNL1        0.0063
      4 C          -5.3846  -19.5516   21.1814 C.ar    1  UNL1        0.0403
      5 C          -3.9705  -19.0696   21.3140 C.ar    1  UNL1        0.1754
      6 C          -3.6380  -17.9791   22.2889 C.ar    1  UNL1        0.2059
      7 C          -7.8807  -19.4253   21.8912 C.2     1  UNL1        0.0035
      8 C          -8.9283  -18.5248   21.3065 C.2     1  UNL1        0.0420
      9 C         -10.3425  -19.0068   21.1740 C.2     1  UNL1        0.1957
     10 O         -10.7700  -19.7477   19.9417 O.2     1  UNL1       -0.2866
     11 C         -11.3293  -18.7479   22.2736 C.ar    1  UNL1        0.0420
     12 C         -11.0733  -19.2813   23.6520 C.ar    1  UNL1        0.0239
     13 C         -12.0601  -19.0224   24.7516 C.ar    1  UNL1        0.0990
     14 N         -13.3029  -18.2301   24.4729 N.ar    1  UNL1       -0.2423
     15 C         -13.5589  -17.6967   23.0945 C.ar    1  UNL1        0.0990
     16 C         -12.5721  -17.9556   21.9948 C.ar    1  UNL1        0.0239
     17 O          -2.8886  -19.6780   20.4716 O.3     1  UNL1       -0.4683
     18 C          -2.7221  -19.2529   19.0428 C.3     1  UNL1        0.2526
     19 O          -4.3874  -16.2802   24.1061 O.3     1  UNL1       -0.4723
     20 C          -5.6182  -15.2379   26.1429 C.3     1  UNL1        0.0512
     21 C          -5.4774  -15.4111   24.6596 C.3     1  UNL1        0.2057
     22 O          -2.2237  -17.4970   22.4214 O.3     1  UNL1       -0.4695
     23 C          -1.7203  -16.3966   21.5350 C.3     1  UNL1        0.2058
     24 C          -0.7575  -16.7069   20.4275 C.3     1  UNL1        0.0512
@<TRIPOS>BOND
     1    20    21    1
     2    21    19    1
     3    19     1    1
     4     1     2   ar
     5     2     3   ar
     6     3     7    1
     7     7     8    2
     8     8     9    1
     9     9    10    2
    10     9    11    1
    11    11    12   ar
    12    12    13   ar
    13    13    14   ar
    14    14    15   ar
    15    15    16   ar
    16     3     4   ar
    17     4     5   ar
    18     5    17    1
    19    17    18    1
    20     5     6   ar
    21     6    22    1
    22    22    23    1
    23    23    24    1
    24     6     1   ar
    25    16    11   ar
@<TRIPOS>MOLECULE
*****
 24 25 0 0 0
SMALL
GASTEIGER

@<TRIPOS>ATOM
      1 C          -4.3535  -18.4230   22.7189 C.ar    1  UNL1        0.1753
      2 C          -5.8261  -18.6321   22.5252 C.ar    1  UNL1        0.0403
      3 C          -6.3462  -19.1312   21.2098 C.ar    1  UNL1        0.0063
      4 C          -5.3936  -19.4213   20.0880 C.ar    1  UNL1        0.0403
      5 C          -3.9210  -19.2122   20.2817 C.ar    1  UNL1        0.1754
      6 C          -3.4009  -18.7130   21.5971 C.ar    1  UNL1        0.2059
      7 C          -7.8189  -19.3403   21.0162 C.2     1  UNL1        0.0035
      8 C          -8.7682  -19.0832   22.1488 C.2     1  UNL1        0.0420
      9 C         -10.2409  -19.2923   21.9552 C.2     1  UNL1        0.1957
     10 O         -10.8713  -20.5959   22.3470 O.2     1  UNL1       -0.2866
     11 C         -11.0833  -18.1979   21.3699 C.ar    1  UNL1        0.0420
     12 C         -12.2190  -17.6206   22.1616 C.ar    1  UNL1        0.0239
     13 C         -13.0613  -16.5262   21.5763 C.ar    1  UNL1        0.0990
     14 N         -12.7680  -16.0090   20.1992 N.ar    1  UNL1       -0.2423
     15 C         -11.6322  -16.5862   19.4074 C.ar    1  UNL1        0.0990
     16 C         -10.7898  -17.6807   19.9927 C.ar    1  UNL1        0.0239
     17 O          -2.9683  -19.5022   19.1599 O.3     1  UNL1       -0.4683
     18 C          -2.2518  -18.3767   18.4745 C.3     1  UNL1        0.2526
     19 O          -3.8334  -17.9238   24.0343 O.3     1  UNL1       -0.4723
     20 C          -4.9952  -15.6010   23.9669 C.3     1  UNL1        0.0512
     21 C          -4.5334  -16.8005   24.7401 C.3     1  UNL1        0.2057
     22 O          -1.9282  -18.5039   21.7907 O.3     1  UNL1       -0.4695
     23 C          -1.3089  -17.1785   21.4593 C.3     1  UNL1        0.2058
     24 C          -2.0692  -15.9108   21.7139 C.3     1  UNL1        0.0512
@<TRIPOS>BOND
     1    20    21    1
     2    21    19    1
     3    19     1    1
     4     1     2   ar
     5     2     3   ar
     6     3     7    1
     7     7     8    2
     8     8     9    1
     9     9    10    2
    10     9    11    1
    11    11    12   ar
    12    12    13   ar
    13    13    14   ar
    14    14    15   ar
    15    15    16   ar
    16     3     4   ar
    17     4     5   ar
    18     5    17    1
    19    17    18    1
    20     5     6   ar
    21     6    22    1
    22    22    23    1
    23    23    24    1
    24     6     1   ar
    25    16    11   ar
@<TRIPOS>MOLECULE
*****
 24 25 0 0 0
SMALL
GASTEIGER

@<TRIPOS>ATOM
      1 C           3.4006   -2.0574   20.4323 C.ar    1  UNL1        0.1753
      2 C           4.1628   -2.5384   21.6313 C.ar    1  UNL1        0.0403
      3 C           4.0328   -1.8187   22.9410 C.ar    1  UNL1        0.0063
      4 C           3.1405   -0.6180   23.0516 C.ar    1  UNL1        0.0403
      5 C           2.3783   -0.1371   21.8526 C.ar    1  UNL1        0.1754
      6 C           2.5083   -0.8568   20.5430 C.ar    1  UNL1        0.2059
      7 C           4.7950   -2.2997   24.1400 C.2     1  UNL1        0.0035
      8 C           5.9500   -3.2409   23.9664 C.2     1  UNL1        0.0420
      9 C           6.7123   -3.7219   25.1654 C.2     1  UNL1        0.1957
     10 O           7.0709   -2.7620   26.2609 O.2     1  UNL1       -0.2866
     11 C           7.1160   -5.1628   25.2689 C.ar    1  UNL1        0.0420
     12 C           7.8355   -5.8238   24.1308 C.ar    1  UNL1        0.0239
     13 C           8.2393   -7.2647   24.2343 C.ar    1  UNL1        0.0990
     14 N           7.9235   -8.0447   25.4760 N.ar    1  UNL1       -0.2423
     15 C           7.2039   -7.3838   26.6143 C.ar    1  UNL1        0.0990
     16 C           6.8002   -5.9428   26.5107 C.ar    1  UNL1        0.0239
     17 O           1.4860    1.0636   21.9632 O.3     1  UNL1       -0.4683
     18 C           2.0728    2.4426   21.8996 C.3     1  UNL1        0.2526
     19 O           3.5306   -2.7771   19.1227 O.3     1  UNL1       -0.4723
     20 C           4.5684   -5.1332   18.7734 C.3     1  UNL1        0.0512
     21 C           3.3787   -4.2684   19.0681 C.3     1  UNL1        0.2057
     22 O           1.7461   -0.3758   19.3439 O.3     1  UNL1       -0.4695
     23 C           2.4362    0.4479   18.2974 C.3     1  UNL1        0.2058
     24 C           3.6423    1.2629   18.6592 C.3     1  UNL1        0.0512
@<TRIPOS>BOND
     1    20    21    1
     2    21    19    1
     3    19     1    1
     4     1     2   ar
     5     2     3   ar
     6     3     7    1
     7     7     8    2
     8     8     9    1
     9     9    10    2
    10     9    11    1
    11    11    12   ar
    12    12    13   ar
    13    13    14   ar
    14    14    15   ar
    15    15    16   ar
    16     3     4   ar
    17     4     5   ar
    18     5    17    1
    19    17    18    1
    20     5     6   ar
    21     6    22    1
    22    22    23    1
    23    23    24    1
    24     6     1   ar
    25    16    11   ar
@<TRIPOS>MOLECULE
*****
 24 25 0 0 0
SMALL
GASTEIGER

@<TRIPOS>ATOM
      1 C           2.0053   -0.5106   20.4036 C.ar    1  UNL1        0.1753
      2 C           1.7799    0.2298   21.6885 C.ar    1  UNL1        0.0403
      3 C           2.6111   -0.0917   22.8951 C.ar    1  UNL1        0.0063
      4 C           3.6676   -1.1536   22.8168 C.ar    1  UNL1        0.0403
      5 C           3.8929   -1.8940   21.5319 C.ar    1  UNL1        0.1754
      6 C           3.0618   -1.5725   20.3253 C.ar    1  UNL1        0.2059
      7 C           2.3857    0.6488   24.1800 C.2     1  UNL1        0.0035
      8 C           1.0479    1.2636   24.4666 C.2     1  UNL1        0.0420
      9 C           0.8225    2.0040   25.7515 C.2     1  UNL1        0.1957
     10 O           0.8897    3.5024   25.7754 O.2     1  UNL1       -0.2866
     11 C           0.5298    1.2462   27.0124 C.ar    1  UNL1        0.0420
     12 C           1.6406    0.5575   27.7485 C.ar    1  UNL1        0.0239
     13 C           1.3480   -0.2004   29.0095 C.ar    1  UNL1        0.0990
     14 N          -0.0555   -0.2695   29.5344 N.ar    1  UNL1       -0.2423
     15 C          -1.1663    0.4193   28.7984 C.ar    1  UNL1        0.0990
     16 C          -0.8737    1.1771   27.5374 C.ar    1  UNL1        0.0239
     17 O           4.9495   -2.9559   21.4535 O.3     1  UNL1       -0.4683
     18 C           6.3506   -2.5923   21.0604 C.3     1  UNL1        0.2526
     19 O           1.1741   -0.1892   19.1971 O.3     1  UNL1       -0.4723
     20 C           2.3640    2.0370   18.5820 C.3     1  UNL1        0.0512
     21 C           1.1109    1.2186   18.6832 C.3     1  UNL1        0.2057
     22 O           3.2871   -2.3130   19.0404 O.3     1  UNL1       -0.4695
     23 C           4.2642   -1.7852   18.0321 C.3     1  UNL1        0.2058
     24 C           3.7866   -0.9093   16.9120 C.3     1  UNL1        0.0512
@<TRIPOS>BOND
     1    20    21    1
     2    21    19    1
     3    19     1    1
     4     1     2   ar
     5     2     3   ar
     6     3     7    1
     7     7     8    2
     8     8     9    1
     9     9    10    2
    10     9    11    1
    11    11    12   ar
    12    12    13   ar
    13    13    14   ar
    14    14    15   ar
    15    15    16   ar
    16     3     4   ar
    17     4     5   ar
    18     5    17    1
    19    17    18    1
    20     5     6   ar
    21     6    22    1
    22    22    23    1
    23    23    24    1
    24     6     1   ar
    25    16    11   ar
@<TRIPOS>MOLECULE
*****
 24 25 0 0 0
SMALL
GASTEIGER

@<TRIPOS>ATOM
      1 C          -0.2227    1.8320   26.0392 C.ar    1  UNL1        0.1753
      2 C          -0.2475    1.8669   24.5399 C.ar    1  UNL1        0.0403
      3 C           0.8923    1.2854   23.7572 C.ar    1  UNL1        0.0063
      4 C           2.0569    0.6690   24.4739 C.ar    1  UNL1        0.0403
      5 C           2.0817    0.6340   25.9732 C.ar    1  UNL1        0.1754
      6 C           0.9419    1.2156   26.7559 C.ar    1  UNL1        0.2059
      7 C           0.8675    1.3204   22.2578 C.2     1  UNL1        0.0035
      8 C           1.5943    0.2702   21.4710 C.2     1  UNL1        0.0420
      9 C           1.5696    0.3051   19.9716 C.2     1  UNL1        0.1957
     10 O           0.5097    1.0901   19.2571 O.2     1  UNL1       -0.2866
     11 C           2.6046   -0.4449   19.1867 C.ar    1  UNL1        0.0420
     12 C           3.1644   -1.7303   19.7200 C.ar    1  UNL1        0.0239
     13 C           4.1995   -2.4803   18.9351 C.ar    1  UNL1        0.0990
     14 N           4.6748   -1.9450   17.6170 N.ar    1  UNL1       -0.2423
     15 C           4.1150   -0.6595   17.0837 C.ar    1  UNL1        0.0990
     16 C           3.0799    0.0905   17.8686 C.ar    1  UNL1        0.0239
     17 O           3.2463    0.0176   26.6900 O.3     1  UNL1       -0.4683
     18 C           3.8781   -1.2340   26.1566 C.3     1  UNL1        0.2526
     19 O          -1.3626    2.4135   26.8219 O.3     1  UNL1       -0.4723
     20 C          -3.5485    3.7992   26.5945 C.3     1  UNL1        0.0512
     21 C          -2.0871    3.6216   26.3066 C.3     1  UNL1        0.2057
     22 O           0.9667    1.1806   28.2554 O.3     1  UNL1       -0.4695
     23 C           0.4612   -0.0281   28.9858 C.3     1  UNL1        0.2058
     24 C          -0.9670   -0.4579   28.8264 C.3     1  UNL1        0.0512
@<TRIPOS>BOND
     1    20    21    1
     2    21    19    1
     3    19     1    1
     4     1     2   ar
     5     2     3   ar
     6     3     7    1
     7     7     8    2
     8     8     9    1
     9     9    10    2
    10     9    11    1
    11    11    12   ar
    12    12    13   ar
    13    13    14   ar
    14    14    15   ar
    15    15    16   ar
    16     3     4   ar
    17     4     5   ar
    18     5    17    1
    19    17    18    1
    20     5     6   ar
    21     6    22    1
    22    22    23    1
    23    23    24    1
    24     6     1   ar
    25    16    11   ar
@<TRIPOS>MOLECULE
*****
 24 25 0 0 0
SMALL
GASTEIGER

@<TRIPOS>ATOM
      1 C           3.9550   -0.7360   17.6457 C.ar    1  UNL1        0.1753
      2 C           2.7829    0.0513   18.1520 C.ar    1  UNL1        0.0403
      3 C           2.0193   -0.4276   19.3509 C.ar    1  UNL1        0.0063
      4 C           2.4278   -1.6938   20.0437 C.ar    1  UNL1        0.0403
      5 C           3.5998   -2.4810   19.5374 C.ar    1  UNL1        0.1754
      6 C           4.3635   -2.0021   18.3384 C.ar    1  UNL1        0.2059
      7 C           0.8472    0.3598   19.8572 C.2     1  UNL1        0.0035
      8 C           1.0714    1.6286   20.6252 C.2     1  UNL1        0.0420
      9 C          -0.1007    2.4160   21.1314 C.2     1  UNL1        0.1957
     10 O          -0.3038    2.5938   22.6070 O.2     1  UNL1       -0.2866
     11 C          -1.0697    3.0256   20.1622 C.ar    1  UNL1        0.0420
     12 C          -2.5216    3.1358   20.5223 C.ar    1  UNL1        0.0239
     13 C          -3.4906    3.7454   19.5531 C.ar    1  UNL1        0.0990
     14 N          -3.0077    4.2447   18.2237 N.ar    1  UNL1       -0.2423
     15 C          -1.5557    4.1345   17.8634 C.ar    1  UNL1        0.0990
     16 C          -0.5867    3.5249   18.8327 C.ar    1  UNL1        0.0239
     17 O           4.0084   -3.7473   20.2301 O.3     1  UNL1       -0.4683
     18 C           3.5786   -5.0751   19.6805 C.3     1  UNL1        0.2526
     19 O           4.7186   -0.2571   16.4467 O.3     1  UNL1       -0.4723
     20 C           6.1922    1.2346   17.9809 C.3     1  UNL1        0.0512
     21 C           5.8325    0.7336   16.6135 C.3     1  UNL1        0.2057
     22 O           5.5356   -2.7895   17.8322 O.3     1  UNL1       -0.4695
     23 C           6.9291   -2.3953   18.2231 C.3     1  UNL1        0.2058
     24 C           7.2354   -2.0362   19.6469 C.3     1  UNL1        0.0512
@<TRIPOS>BOND
     1    20    21    1
     2    21    19    1
     3    19     1    1
     4     1     2   ar
     5     2     3   ar
     6     3     7    1
     7     7     8    2
     8     8     9    1
     9     9    10    2
    10     9    11    1
    11    11    12   ar
    12    12    13   ar
    13    13    14   ar
    14    14    15   ar
    15    15    16   ar
    16     3     4   ar
    17     4     5   ar
    18     5    17    1
    19    17    18    1
    20     5     6   ar
    21     6    22    1
    22    22    23    1
    23    23    24    1
    24     6     1   ar
    25    16    11   ar
@<TRIPOS>MOLECULE
*****
 24 25 0 0 0
SMALL
GASTEIGER

@<TRIPOS>ATOM
      1 C           3.9593   -1.9077   21.5602 C.ar    1  UNL1        0.1753
      2 C           3.7353   -1.1979   22.8625 C.ar    1  UNL1        0.0403
      3 C           2.6583   -0.1599   22.9754 C.ar    1  UNL1        0.0063
      4 C           1.8053    0.1683   21.7861 C.ar    1  UNL1        0.0403
      5 C           2.0293   -0.5415   20.4838 C.ar    1  UNL1        0.1754
      6 C           3.1063   -1.5795   20.3709 C.ar    1  UNL1        0.2059
      7 C           2.4344    0.5499   24.2778 C.2     1  UNL1        0.0035
      8 C           1.1859    1.3542   24.4886 C.2     1  UNL1        0.0420
      9 C           0.9620    2.0640   25.7909 C.2     1  UNL1        0.1957
     10 O           1.1097    3.5548   25.8677 O.2     1  UNL1       -0.2866
     11 C           0.5903    1.2831   27.0164 C.ar    1  UNL1        0.0420
     12 C           1.6537    0.5879   27.8139 C.ar    1  UNL1        0.0239
     13 C           1.2820   -0.1930   29.0395 C.ar    1  UNL1        0.0990
     14 N          -0.1530   -0.2788   29.4676 N.ar    1  UNL1       -0.2423
     15 C          -1.2165    0.4164   28.6701 C.ar    1  UNL1        0.0990
     16 C          -0.8448    1.1973   27.4445 C.ar    1  UNL1        0.0239
     17 O           1.1763   -0.2133   19.2943 O.3     1  UNL1       -0.4683
     18 C           1.2060    1.1671   18.7081 C.3     1  UNL1        0.2526
     19 O           5.0362   -2.9456   21.4473 O.3     1  UNL1       -0.4723
     20 C           7.2132   -3.1789   20.0487 C.3     1  UNL1        0.0512
     21 C           6.4503   -2.5317   21.1663 C.3     1  UNL1        0.2057
     22 O           3.3302   -2.2892   19.0685 O.3     1  UNL1       -0.4695
     23 C           4.3058   -1.7373   18.0716 C.3     1  UNL1        0.2058
     24 C           3.8192   -0.8775   16.9430 C.3     1  UNL1        0.0512
@<TRIPOS>BOND
     1    20    21    1
     2    21    19    1
     3    19     1    1
     4     1     2   ar
     5     2     3   ar
     6     3     7    1
     7     7     8    2
     8     8     9    1
     9     9    10    2
    10     9    11    1
    11    11    12   ar
    12    12    13   ar
    13    13    14   ar
    14    14    15   ar
    15    15    16   ar
    16     3     4   ar
    17     4     5   ar
    18     5    17    1
    19    17    18    1
    20     5     6   ar
    21     6    22    1
    22    22    23    1
    23    23    24    1
    24     6     1   ar
    25    16    11   ar
@<TRIPOS>MOLECULE
*****
 24 25 0 0 0
SMALL
GASTEIGER

@<TRIPOS>ATOM
      1 C           7.4034   -4.9942   25.6057 C.ar    1  UNL1        0.1753
      2 C           7.0894   -4.9863   24.1390 C.ar    1  UNL1        0.0403
      3 C           6.3382   -3.8349   23.5390 C.ar    1  UNL1        0.0063
      4 C           5.9011   -2.6914   24.4058 C.ar    1  UNL1        0.0403
      5 C           6.2151   -2.6993   25.8725 C.ar    1  UNL1        0.1754
      6 C           6.9663   -3.8507   26.4725 C.ar    1  UNL1        0.2059
      7 C           6.0242   -3.8270   22.0722 C.2     1  UNL1        0.0035
      8 C           4.5988   -3.8939   21.6101 C.2     1  UNL1        0.0420
      9 C           4.2847   -3.8860   20.1434 C.2     1  UNL1        0.1957
     10 O           4.3664   -5.1577   19.3520 O.2     1  UNL1       -0.2866
     11 C           3.8891   -2.6064   19.4679 C.ar    1  UNL1        0.0420
     12 C           4.5140   -2.2251   18.1587 C.ar    1  UNL1        0.0239
     13 C           4.1183   -0.9455   17.4833 C.ar    1  UNL1        0.0990
     14 N           3.0978   -0.0473   18.1171 N.ar    1  UNL1       -0.2423
     15 C           2.4728   -0.4287   19.4263 C.ar    1  UNL1        0.0990
     16 C           2.8685   -1.7082   20.1018 C.ar    1  UNL1        0.0239
     17 O           5.7779   -1.5558   26.7393 O.3     1  UNL1       -0.4683
     18 C           4.4938   -1.6465   27.5092 C.3     1  UNL1        0.2526
     19 O           8.1546   -6.1456   26.2057 O.3     1  UNL1       -0.4723
     20 C           8.1043   -8.5709   27.1359 C.3     1  UNL1        0.0512
     21 C           7.5310   -7.5092   26.2448 C.3     1  UNL1        0.2057
     22 O           7.2803   -3.8586   27.9393 O.3     1  UNL1       -0.4695
     23 C           6.4583   -4.6915   28.8777 C.3     1  UNL1        0.2058
     24 C           7.1156   -5.7501   29.7127 C.3     1  UNL1        0.0512
@<TRIPOS>BOND
     1    20    21    1
     2    21    19    1
     3    19     1    1
     4     1     2   ar
     5     2     3   ar
     6     3     7    1
     7     7     8    2
     8     8     9    1
     9     9    10    2
    10     9    11    1
    11    11    12   ar
    12    12    13   ar
    13    13    14   ar
    14    14    15   ar
    15    15    16   ar
    16     3     4   ar
    17     4     5   ar
    18     5    17    1
    19    17    18    1
    20     5     6   ar
    21     6    22    1
    22    22    23    1
    23    23    24    1
    24     6     1   ar
    25    16    11   ar
@<TRIPOS>MOLECULE
*****
 24 25 0 0 0
SMALL
GASTEIGER

@<TRIPOS>ATOM
      1 C           3.8955   -0.4420   20.6250 C.ar    1  UNL1        0.1753
      2 C           3.0445    0.2253   21.6644 C.ar    1  UNL1        0.0403
      3 C           2.9004   -0.3908   23.0244 C.ar    1  UNL1        0.0063
      4 C           3.6075   -1.6742   23.3451 C.ar    1  UNL1        0.0403
      5 C           4.4586   -2.3415   22.3057 C.ar    1  UNL1        0.1754
      6 C           4.6026   -1.7254   20.9457 C.ar    1  UNL1        0.2059
      7 C           2.0493    0.2766   24.0638 C.2     1  UNL1        0.0035
      8 C           2.5813    1.4540   24.8258 C.2     1  UNL1        0.0420
      9 C           1.7302    2.1213   25.8651 C.2     1  UNL1        0.1957
     10 O           1.4776    3.5982   25.7924 O.2     1  UNL1       -0.2866
     11 C           1.1318    1.3120   26.9772 C.ar    1  UNL1        0.0420
     12 C          -0.3540    1.3033   27.1830 C.ar    1  UNL1        0.0239
     13 C          -0.9524    0.4939   28.2951 C.ar    1  UNL1        0.0990
     14 N          -0.0651   -0.3068   29.2014 N.ar    1  UNL1       -0.2423
     15 C           1.4208   -0.2982   28.9957 C.ar    1  UNL1        0.0990
     16 C           2.0192    0.5112   27.8836 C.ar    1  UNL1        0.0239
     17 O           5.1657   -3.6250   22.6263 O.3     1  UNL1       -0.4683
     18 C           6.0326   -3.7190   23.8468 C.3     1  UNL1        0.2526
     19 O           4.0396    0.1741   19.2650 O.3     1  UNL1       -0.4723
     20 C           3.7398   -0.8573   16.8994 C.3     1  UNL1        0.0512
     21 C           3.1460   -0.2663   18.1437 C.3     1  UNL1        0.2057
     22 O           5.4538   -2.3928   19.9063 O.3     1  UNL1       -0.4695
     23 C           4.9510   -3.6151   19.1971 C.3     1  UNL1        0.2058
     24 C           3.4818   -3.9165   19.1718 C.3     1  UNL1        0.0512
@<TRIPOS>BOND
     1    20    21    1
     2    21    19    1
     3    19     1    1
     4     1     2   ar
     5     2     3   ar
     6     3     7    1
     7     7     8    2
     8     8     9    1
     9     9    10    2
    10     9    11    1
    11    11    12   ar
    12    12    13   ar
    13    13    14   ar
    14    14    15   ar
    15    15    16   ar
    16     3     4   ar
    17     4     5   ar
    18     5    17    1
    19    17    18    1
    20     5     6   ar
    21     6    22    1
    22    22    23    1
    23    23    24    1
    24     6     1   ar
    25    16    11   ar
