@<TRIPOS>MOLECULE
*****
 32 35 0 0 0
SMALL
GASTEIGER

@<TRIPOS>ATOM
      1 C          -5.8697  -16.9755   23.6610 C.ar    1  UNL1        0.1789
      2 C          -5.6333  -18.2269   22.8683 C.ar    1  UNL1        0.0406
      3 C          -4.2642  -18.5300   22.3358 C.ar    1  UNL1        0.0034
      4 C          -3.1314  -17.5818   22.5960 C.ar    1  UNL1        0.0039
      5 C          -3.3677  -16.3305   23.3887 C.ar    1  UNL1        0.0401
      6 C          -4.7369  -16.0273   23.9212 C.ar    1  UNL1        0.1730
      7 C          -1.7623  -17.8849   22.0636 C.2     1  UNL1        0.0113
      8 C          -1.4904  -17.7831   20.5919 C.2     1  UNL1        0.0873
      9 S          -2.4826  -17.3926   19.5369 S.3     1  UNL1       -0.0254
     10 C          -1.7840  -17.4221   18.2098 C.2     1  UNL1        0.2832
     11 O          -2.4010  -17.0995   16.8813 O.2     1  UNL1       -0.2622
     12 N          -0.3600  -17.8308   18.4447 N.am    1  UNL1       -0.2425
     13 C          -0.1785  -18.0540   19.9169 C.2     1  UNL1        0.2583
     14 O           1.0918  -18.4741   20.5949 O.2     1  UNL1       -0.2692
     15 H           0.3337  -17.9345   17.7538 H       1  UNL1        0.1587
     16 O          -4.9733  -14.7760   24.7139 O.3     1  UNL1       -0.4684
     17 C          -5.4187  -14.8666   26.1433 C.3     1  UNL1        0.2526
     18 O          -7.2388  -16.6725   24.1935 O.3     1  UNL1       -0.4504
     19 C         -10.8015  -16.8063   21.4476 C.ar    1  UNL1        0.0758
     20 C          -9.6380  -15.9168   21.1238 C.ar    1  UNL1        0.0096
     21 C          -8.4504  -15.8721   22.0391 C.ar    1  UNL1        0.0377
     22 C          -8.4264  -16.7171   23.2782 C.ar    1  UNL1        0.1454
     23 C          -9.5899  -17.6067   23.6021 C.ar    1  UNL1        0.0348
     24 C          -9.5658  -18.4517   24.8412 C.ar    1  UNL1        0.0030
     25 C         -10.7293  -19.3413   25.1650 C.ar    1  UNL1        0.0001
     26 C         -11.9169  -19.3859   24.2497 C.ar    1  UNL1        0.0000
     27 C         -11.9409  -18.5409   23.0106 C.ar    1  UNL1        0.0003
     28 C         -10.7774  -17.6514   22.6868 C.ar    1  UNL1        0.0092
     29 C         -11.9890  -16.8510   20.5324 C.2     1  UNL1        0.3413
     30 O         -13.1678  -15.9596   20.7892 O.2     1  UNL1       -0.2449
     31 C         -11.0079  -18.9118   19.2913 C.3     1  UNL1        0.2560
     32 O         -11.9978  -17.7869   19.3603 O.3     1  UNL1       -0.4413
@<TRIPOS>BOND
     1    31    32    1
     2    32    29    1
     3    29    30    2
     4    29    19    1
     5    19    20   ar
     6    20    21   ar
     7    21    22   ar
     8    22    18    1
     9    18     1    1
    10     1     2   ar
    11     2     3   ar
    12     3     4   ar
    13     4     7    1
    14     7     8    2
    15     8     9    1
    16     9    10    1
    17    10    11    2
    18    10    12   am
    19    12    13   am
    20    13    14    2
    21     4     5   ar
    22     5     6   ar
    23     6    16    1
    24    16    17    1
    25    22    23   ar
    26    23    24   ar
    27    24    25   ar
    28    25    26   ar
    29    26    27   ar
    30    27    28   ar
    31    28    19   ar
    32     6     1   ar
    33    28    23   ar
    34    13     8    1
    35    12    15    1
@<TRIPOS>MOLECULE
*****
 32 35 0 0 0
SMALL
GASTEIGER

@<TRIPOS>ATOM
      1 C           3.9782   -0.3112   24.6351 C.ar    1  UNL1        0.1789
      2 C           3.0901   -0.3440   23.4266 C.ar    1  UNL1        0.0406
      3 C           3.2189   -1.4588   22.4312 C.ar    1  UNL1        0.0034
      4 C           4.2357   -2.5407   22.6443 C.ar    1  UNL1        0.0039
      5 C           5.1238   -2.5080   23.8527 C.ar    1  UNL1        0.0401
      6 C           4.9950   -1.3932   24.8481 C.ar    1  UNL1        0.1730
      7 C           4.3646   -3.6555   21.6490 C.2     1  UNL1        0.0113
      8 C           4.6711   -3.3474   20.2133 C.2     1  UNL1        0.0873
      9 S           4.8741   -1.9810   19.6287 S.3     1  UNL1       -0.0254
     10 C           5.1569   -2.1407   18.1642 C.2     1  UNL1        0.2832
     11 O           5.4215   -1.0303   17.1911 O.2     1  UNL1       -0.2622
     12 N           5.1287   -3.6058   17.8438 N.am    1  UNL1       -0.2425
     13 C           4.8284   -4.3516   19.1101 C.2     1  UNL1        0.2583
     14 O           4.7068   -5.8401   19.2490 O.2     1  UNL1       -0.2692
     15 H           5.2805   -4.0074   16.9578 H       1  UNL1        0.1587
     16 O           5.8830   -1.3605   26.0565 O.3     1  UNL1       -0.4684
     17 C           5.7827   -2.4425   27.0905 C.3     1  UNL1        0.2526
     18 O           3.8494    0.8035   25.6304 O.3     1  UNL1       -0.4504
     19 C           0.6056    0.6738   28.7467 C.ar    1  UNL1        0.0758
     20 C           1.9129   -0.0183   28.9956 C.ar    1  UNL1        0.0096
     21 C           2.9941    0.0250   27.9568 C.ar    1  UNL1        0.0377
     22 C           2.7681    0.7603   26.6691 C.ar    1  UNL1        0.1454
     23 C           1.4608    1.4524   26.4201 C.ar    1  UNL1        0.0348
     24 C           1.2348    2.1877   25.1324 C.ar    1  UNL1        0.0030
     25 C          -0.0725    2.8797   24.8835 C.ar    1  UNL1        0.0001
     26 C          -1.1538    2.8365   25.9222 C.ar    1  UNL1        0.0000
     27 C          -0.9278    2.1012   27.2099 C.ar    1  UNL1        0.0003
     28 C           0.3795    1.4092   27.4589 C.ar    1  UNL1        0.0092
     29 C          -0.4757    0.6306   29.7854 C.2     1  UNL1        0.3413
     30 O          -1.7224   -0.1659   29.5375 O.2     1  UNL1       -0.2449
     31 C           0.5270    2.6277   31.1105 C.3     1  UNL1        0.2560
     32 O          -0.3102    1.3837   31.0720 O.3     1  UNL1       -0.4413
@<TRIPOS>BOND
     1    31    32    1
     2    32    29    1
     3    29    30    2
     4    29    19    1
     5    19    20   ar
     6    20    21   ar
     7    21    22   ar
     8    22    18    1
     9    18     1    1
    10     1     2   ar
    11     2     3   ar
    12     3     4   ar
    13     4     7    1
    14     7     8    2
    15     8     9    1
    16     9    10    1
    17    10    11    2
    18    10    12   am
    19    12    13   am
    20    13    14    2
    21     4     5   ar
    22     5     6   ar
    23     6    16    1
    24    16    17    1
    25    22    23   ar
    26    23    24   ar
    27    24    25   ar
    28    25    26   ar
    29    26    27   ar
    30    27    28   ar
    31    28    19   ar
    32     6     1   ar
    33    28    23   ar
    34    13     8    1
    35    12    15    1
@<TRIPOS>MOLECULE
*****
 32 35 0 0 0
SMALL
GASTEIGER

@<TRIPOS>ATOM
      1 C           0.7907    1.7151   21.2761 C.ar    1  UNL1        0.1789
      2 C           0.3637    0.4233   20.6443 C.ar    1  UNL1        0.0406
      3 C           1.3488   -0.3872   19.8552 C.ar    1  UNL1        0.0034
      4 C           2.7608    0.0939   19.6978 C.ar    1  UNL1        0.0039
      5 C           3.1877    1.3857   20.3296 C.ar    1  UNL1        0.0401
      6 C           2.2027    2.1962   21.1187 C.ar    1  UNL1        0.1730
      7 C           3.7458   -0.7166   18.9087 C.2     1  UNL1        0.0113
      8 C           4.4840   -1.8458   19.5644 C.2     1  UNL1        0.0873
      9 S           4.3424   -2.2799   20.9932 S.3     1  UNL1       -0.0254
     10 C           5.2643   -3.4416   21.2183 C.2     1  UNL1        0.2832
     11 O           5.4434   -4.1883   22.5068 O.2     1  UNL1       -0.2622
     12 N           5.9755   -3.7255   19.9285 N.am    1  UNL1       -0.2425
     13 C           5.4933   -2.7393   18.9063 C.2     1  UNL1        0.2583
     14 O           5.9416   -2.6604   17.4771 O.2     1  UNL1       -0.2692
     15 H           6.6419   -4.4347   19.7791 H       1  UNL1        0.1587
     16 O           2.6296    3.4880   21.7505 O.3     1  UNL1       -0.4684
     17 C           3.9544    3.5799   22.4480 C.3     1  UNL1        0.2526
     18 O          -0.1944    2.5256   22.0652 O.3     1  UNL1       -0.4504
     19 C          -0.5168    1.9624   26.5182 C.ar    1  UNL1        0.0758
     20 C           0.5615    1.2582   25.7493 C.ar    1  UNL1        0.0096
     21 C           0.6690    1.4459   24.2649 C.ar    1  UNL1        0.0377
     22 C          -0.3018    2.3379   23.5495 C.ar    1  UNL1        0.1454
     23 C          -1.3802    3.0421   24.3184 C.ar    1  UNL1        0.0348
     24 C          -2.3511    3.9341   23.6030 C.ar    1  UNL1        0.0030
     25 C          -3.4294    4.6383   24.3719 C.ar    1  UNL1        0.0001
     26 C          -3.5369    4.4506   25.8562 C.ar    1  UNL1        0.0000
     27 C          -2.5660    3.5586   26.5716 C.ar    1  UNL1        0.0003
     28 C          -1.4877    2.8544   25.8027 C.ar    1  UNL1        0.0092
     29 C          -0.6243    1.7747   28.0025 C.2     1  UNL1        0.3413
     30 O           0.2706    2.5503   28.9233 O.2     1  UNL1       -0.2449
     31 C          -1.2446   -0.6213   28.7926 C.3     1  UNL1        0.2560
     32 O          -1.6265    0.8115   28.5660 O.3     1  UNL1       -0.4413
@<TRIPOS>BOND
     1    31    32    1
     2    32    29    1
     3    29    30    2
     4    29    19    1
     5    19    20   ar
     6    20    21   ar
     7    21    22   ar
     8    22    18    1
     9    18     1    1
    10     1     2   ar
    11     2     3   ar
    12     3     4   ar
    13     4     7    1
    14     7     8    2
    15     8     9    1
    16     9    10    1
    17    10    11    2
    18    10    12   am
    19    12    13   am
    20    13    14    2
    21     4     5   ar
    22     5     6   ar
    23     6    16    1
    24    16    17    1
    25    22    23   ar
    26    23    24   ar
    27    24    25   ar
    28    25    26   ar
    29    26    27   ar
    30    27    28   ar
    31    28    19   ar
    32     6     1   ar
    33    28    23   ar
    34    13     8    1
    35    12    15    1
@<TRIPOS>MOLECULE
*****
 32 35 0 0 0
SMALL
GASTEIGER

@<TRIPOS>ATOM
      1 C          -6.9274  -20.3945   22.1508 C.ar    1  UNL1        0.1789
      2 C          -6.3671  -21.4055   21.1948 C.ar    1  UNL1        0.0406
      3 C          -5.2860  -21.0099   20.2333 C.ar    1  UNL1        0.0034
      4 C          -4.7651  -19.6032   20.2277 C.ar    1  UNL1        0.0039
      5 C          -5.3253  -18.5922   21.1837 C.ar    1  UNL1        0.0401
      6 C          -6.4065  -18.9879   22.1453 C.ar    1  UNL1        0.1730
      7 C          -3.6840  -19.2076   19.2662 C.2     1  UNL1        0.0113
      8 C          -2.6774  -18.1663   19.6565 C.2     1  UNL1        0.0873
      9 S          -2.6255  -17.4374   20.9665 S.3     1  UNL1       -0.0254
     10 C          -1.4619  -16.4916   20.9250 C.2     1  UNL1        0.2832
     11 O          -1.0397  -15.5643   22.0257 O.2     1  UNL1       -0.2622
     12 N          -0.7947  -16.6360   19.5893 N.am    1  UNL1       -0.2425
     13 C          -1.5458  -17.6710   18.8053 C.2     1  UNL1        0.2583
     14 O          -1.2223  -18.1300   17.4145 O.2     1  UNL1       -0.2692
     15 H          -0.0028  -16.1387   19.2813 H       1  UNL1        0.1587
     16 O          -6.9668  -17.9769   23.1013 O.3     1  UNL1       -0.4684
     17 C          -7.6962  -16.7747   22.5792 C.3     1  UNL1        0.2526
     18 O          -8.0086  -20.7902   23.1124 O.3     1  UNL1       -0.4504
     19 C         -11.7836  -18.3555   23.3796 C.ar    1  UNL1        0.0758
     20 C         -11.1012  -18.8210   24.6316 C.ar    1  UNL1        0.0096
     21 C          -9.8428  -19.6325   24.5425 C.ar    1  UNL1        0.0377
     22 C          -9.2669  -19.9786   23.2014 C.ar    1  UNL1        0.1454
     23 C          -9.9494  -19.5131   21.9493 C.ar    1  UNL1        0.0348
     24 C          -9.3735  -19.8592   20.6083 C.ar    1  UNL1        0.0030
     25 C         -10.0559  -19.3937   19.3563 C.ar    1  UNL1        0.0001
     26 C         -11.3143  -18.5822   19.4453 C.ar    1  UNL1        0.0000
     27 C         -11.8902  -18.2361   20.7864 C.ar    1  UNL1        0.0003
     28 C         -11.2077  -18.7016   22.0384 C.ar    1  UNL1        0.0092
     29 C         -13.0420  -17.5440   23.4687 C.2     1  UNL1        0.3413
     30 O         -13.0453  -16.1134   23.0174 O.2     1  UNL1       -0.2449
     31 C         -14.4180  -18.4552   25.4752 C.3     1  UNL1        0.2560
     32 O         -14.2969  -18.1629   24.0090 O.3     1  UNL1       -0.4413
@<TRIPOS>BOND
     1    31    32    1
     2    32    29    1
     3    29    30    2
     4    29    19    1
     5    19    20   ar
     6    20    21   ar
     7    21    22   ar
     8    22    18    1
     9    18     1    1
    10     1     2   ar
    11     2     3   ar
    12     3     4   ar
    13     4     7    1
    14     7     8    2
    15     8     9    1
    16     9    10    1
    17    10    11    2
    18    10    12   am
    19    12    13   am
    20    13    14    2
    21     4     5   ar
    22     5     6   ar
    23     6    16    1
    24    16    17    1
    25    22    23   ar
    26    23    24   ar
    27    24    25   ar
    28    25    26   ar
    29    26    27   ar
    30    27    28   ar
    31    28    19   ar
    32     6     1   ar
    33    28    23   ar
    34    13     8    1
    35    12    15    1
@<TRIPOS>MOLECULE
*****
 32 35 0 0 0
SMALL
GASTEIGER

@<TRIPOS>ATOM
      1 C           6.1270   -3.4588   21.0704 C.ar    1  UNL1        0.1789
      2 C           4.7574   -4.0064   20.7976 C.ar    1  UNL1        0.0406
      3 C           3.7169   -3.1380   20.1548 C.ar    1  UNL1        0.0034
      4 C           4.0459   -1.7221   19.7847 C.ar    1  UNL1        0.0039
      5 C           5.4155   -1.1746   20.0574 C.ar    1  UNL1        0.0401
      6 C           6.4561   -2.0429   20.7004 C.ar    1  UNL1        0.1730
      7 C           3.0054   -0.8538   19.1418 C.2     1  UNL1        0.0113
      8 C           2.0629   -0.0567   19.9940 C.2     1  UNL1        0.0873
      9 S           2.0406   -0.0271   21.4935 S.3     1  UNL1       -0.0254
     10 C           0.9411    0.8986   21.9226 C.2     1  UNL1        0.2832
     11 O           0.5648    1.2247   23.3375 O.2     1  UNL1       -0.2622
     12 N           0.2838    1.4411   20.6882 N.am    1  UNL1       -0.2425
     13 C           0.9771    0.8507   19.4962 C.2     1  UNL1        0.2583
     14 O           0.6432    1.1203   18.0590 O.2     1  UNL1       -0.2692
     15 H          -0.4703    2.0736   20.6645 H       1  UNL1        0.1587
     16 O           7.8256   -1.4953   20.9731 O.3     1  UNL1       -0.4684
     17 C           8.6807   -1.0143   19.8385 C.3     1  UNL1        0.2526
     18 O           7.1675   -4.3271   21.7133 O.3     1  UNL1       -0.4504
     19 C           7.2940   -4.7466   26.1919 C.ar    1  UNL1        0.0758
     20 C           6.5310   -3.6172   25.5657 C.ar    1  UNL1        0.0096
     21 C           6.4888   -3.4774   24.0728 C.ar    1  UNL1        0.0377
     22 C           7.2097   -4.4669   23.2062 C.ar    1  UNL1        0.1454
     23 C           7.9727   -5.5964   23.8324 C.ar    1  UNL1        0.0348
     24 C           8.6936   -6.5860   22.9658 C.ar    1  UNL1        0.0030
     25 C           9.4566   -7.7154   23.5921 C.ar    1  UNL1        0.0001
     26 C           9.4987   -7.8552   25.0850 C.ar    1  UNL1        0.0000
     27 C           8.7779   -6.8656   25.9516 C.ar    1  UNL1        0.0003
     28 C           8.0149   -5.7362   25.3253 C.ar    1  UNL1        0.0092
     29 C           7.3361   -4.8864   27.6848 C.2     1  UNL1        0.3413
     30 O           6.1575   -5.4546   28.4185 O.2     1  UNL1       -0.2449
     31 C           9.2233   -5.4107   29.3918 C.3     1  UNL1        0.2560
     32 O           8.5568   -4.4580   28.4440 O.3     1  UNL1       -0.4413
@<TRIPOS>BOND
     1    31    32    1
     2    32    29    1
     3    29    30    2
     4    29    19    1
     5    19    20   ar
     6    20    21   ar
     7    21    22   ar
     8    22    18    1
     9    18     1    1
    10     1     2   ar
    11     2     3   ar
    12     3     4   ar
    13     4     7    1
    14     7     8    2
    15     8     9    1
    16     9    10    1
    17    10    11    2
    18    10    12   am
    19    12    13   am
    20    13    14    2
    21     4     5   ar
    22     5     6   ar
    23     6    16    1
    24    16    17    1
    25    22    23   ar
    26    23    24   ar
    27    24    25   ar
    28    25    26   ar
    29    26    27   ar
    30    27    28   ar
    31    28    19   ar
    32     6     1   ar
    33    28    23   ar
    34    13     8    1
    35    12    15    1
@<TRIPOS>MOLECULE
*****
 32 35 0 0 0
SMALL
GASTEIGER

@<TRIPOS>ATOM
      1 C           0.6899    1.9859   20.7312 C.ar    1  UNL1        0.1789
      2 C           0.2047    0.6556   20.2361 C.ar    1  UNL1        0.0406
      3 C           1.0657   -0.5625   20.3930 C.ar    1  UNL1        0.0034
      4 C           2.4120   -0.4505   21.0449 C.ar    1  UNL1        0.0039
      5 C           2.8972    0.8796   21.5400 C.ar    1  UNL1        0.0401
      6 C           2.0362    2.0979   21.3831 C.ar    1  UNL1        0.1730
      7 C           3.2730   -1.6687   21.2018 C.2     1  UNL1        0.0113
      8 C           4.3820   -1.9338   20.2273 C.2     1  UNL1        0.0873
      9 S           4.7476   -1.0755   19.0527 S.3     1  UNL1       -0.0254
     10 C           5.9117   -1.7151   18.3557 C.2     1  UNL1        0.2832
     11 O           6.6009   -1.1928   17.1301 O.2     1  UNL1       -0.2622
     12 N           6.2656   -2.9687   19.0995 N.am    1  UNL1       -0.2425
     13 C           5.3203   -3.1039   20.2562 C.2     1  UNL1        0.2583
     14 O           5.3141   -4.2142   21.2648 O.2     1  UNL1       -0.2692
     15 H           6.9911   -3.5930   18.8690 H       1  UNL1        0.1587
     16 O           2.5215    3.4281   21.8782 O.3     1  UNL1       -0.4684
     17 C           2.6125    3.6921   23.3519 C.3     1  UNL1        0.2526
     18 O          -0.1711    3.2041   20.5743 O.3     1  UNL1       -0.4504
     19 C          -3.4770    4.0170   23.5171 C.ar    1  UNL1        0.0758
     20 C          -2.0666    3.8522   24.0002 C.ar    1  UNL1        0.0096
     21 C          -0.9646    3.5812   23.0193 C.ar    1  UNL1        0.0377
     22 C          -1.2731    3.4750   21.5552 C.ar    1  UNL1        0.1454
     23 C          -2.6836    3.6398   21.0720 C.ar    1  UNL1        0.0348
     24 C          -2.9920    3.5337   19.6080 C.ar    1  UNL1        0.0030
     25 C          -4.4025    3.6985   19.1249 C.ar    1  UNL1        0.0001
     26 C          -5.5044    3.9694   20.1058 C.ar    1  UNL1        0.0000
     27 C          -5.1960    4.0756   21.5699 C.ar    1  UNL1        0.0003
     28 C          -3.7855    3.9108   22.0530 C.ar    1  UNL1        0.0092
     29 C          -4.5790    4.2879   24.4981 C.2     1  UNL1        0.3413
     30 O          -5.1724    3.1604   25.2897 O.2     1  UNL1       -0.2449
     31 C          -4.2033    6.8555   24.3688 C.3     1  UNL1        0.2560
     32 O          -5.0875    5.6863   24.6874 O.3     1  UNL1       -0.4413
@<TRIPOS>BOND
     1    31    32    1
     2    32    29    1
     3    29    30    2
     4    29    19    1
     5    19    20   ar
     6    20    21   ar
     7    21    22   ar
     8    22    18    1
     9    18     1    1
    10     1     2   ar
    11     2     3   ar
    12     3     4   ar
    13     4     7    1
    14     7     8    2
    15     8     9    1
    16     9    10    1
    17    10    11    2
    18    10    12   am
    19    12    13   am
    20    13    14    2
    21     4     5   ar
    22     5     6   ar
    23     6    16    1
    24    16    17    1
    25    22    23   ar
    26    23    24   ar
    27    24    25   ar
    28    25    26   ar
    29    26    27   ar
    30    27    28   ar
    31    28    19   ar
    32     6     1   ar
    33    28    23   ar
    34    13     8    1
    35    12    15    1
@<TRIPOS>MOLECULE
*****
 32 35 0 0 0
SMALL
GASTEIGER

@<TRIPOS>ATOM
      1 C           6.8925   -4.3353   24.5530 C.ar    1  UNL1        0.1789
      2 C           6.2131   -3.1374   25.1477 C.ar    1  UNL1        0.0406
      3 C           6.6929   -2.5737   26.4523 C.ar    1  UNL1        0.0034
      4 C           7.8521   -3.2078   27.1622 C.ar    1  UNL1        0.0039
      5 C           8.5316   -4.4056   26.5677 C.ar    1  UNL1        0.0401
      6 C           8.0518   -4.9694   25.2630 C.ar    1  UNL1        0.1730
      7 C           8.3320   -2.6441   28.4668 C.2     1  UNL1        0.0113
      8 C           8.0502   -3.3724   29.7475 C.2     1  UNL1        0.0873
      9 S           7.3047   -4.6672   29.8798 S.3     1  UNL1       -0.0254
     10 C           7.2582   -5.0288   31.3348 C.2     1  UNL1        0.2832
     11 O           6.6089   -6.2477   31.9201 O.2     1  UNL1       -0.2622
     12 N           7.9749   -3.9574   32.1018 N.am    1  UNL1       -0.2425
     13 C           8.4645   -2.9336   31.1208 C.2     1  UNL1        0.2583
     14 O           9.2332   -1.6896   31.4545 O.2     1  UNL1       -0.2692
     15 H           8.1018   -3.9308   33.0778 H       1  UNL1        0.1587
     16 O           8.7312   -6.1672   24.6684 O.3     1  UNL1       -0.4684
     17 C           8.1607   -7.5375   24.8849 C.3     1  UNL1        0.2526
     18 O           6.4127   -4.8990   23.2485 O.3     1  UNL1       -0.4504
     19 C           5.3038   -2.1350   19.8749 C.ar    1  UNL1        0.0758
     20 C           4.2635   -2.5619   20.8675 C.ar    1  UNL1        0.0096
     21 C           4.6331   -3.4832   21.9921 C.ar    1  UNL1        0.0377
     22 C           6.0431   -3.9777   22.1239 C.ar    1  UNL1        0.1454
     23 C           7.0835   -3.5508   21.1313 C.ar    1  UNL1        0.0348
     24 C           8.4935   -4.0453   21.2631 C.ar    1  UNL1        0.0030
     25 C           9.5338   -3.6184   20.2705 C.ar    1  UNL1        0.0001
     26 C           9.1642   -2.6971   19.1460 C.ar    1  UNL1        0.0000
     27 C           7.7543   -2.2026   19.0141 C.ar    1  UNL1        0.0003
     28 C           6.7139   -2.6295   20.0067 C.ar    1  UNL1        0.0092
     29 C           4.9342   -1.2137   18.7504 C.2     1  UNL1        0.3413
     30 O           4.7321   -1.7606   17.3683 O.2     1  UNL1       -0.2449
     31 C           4.8632    1.2308   17.8732 C.3     1  UNL1        0.2560
     32 O           4.7667    0.2545   19.0079 O.3     1  UNL1       -0.4413
@<TRIPOS>BOND
     1    31    32    1
     2    32    29    1
     3    29    30    2
     4    29    19    1
     5    19    20   ar
     6    20    21   ar
     7    21    22   ar
     8    22    18    1
     9    18     1    1
    10     1     2   ar
    11     2     3   ar
    12     3     4   ar
    13     4     7    1
    14     7     8    2
    15     8     9    1
    16     9    10    1
    17    10    11    2
    18    10    12   am
    19    12    13   am
    20    13    14    2
    21     4     5   ar
    22     5     6   ar
    23     6    16    1
    24    16    17    1
    25    22    23   ar
    26    23    24   ar
    27    24    25   ar
    28    25    26   ar
    29    26    27   ar
    30    27    28   ar
    31    28    19   ar
    32     6     1   ar
    33    28    23   ar
    34    13     8    1
    35    12    15    1
@<TRIPOS>MOLECULE
*****
 32 35 0 0 0
SMALL
GASTEIGER

@<TRIPOS>ATOM
      1 C          -6.5113  -20.3164   21.6394 C.ar    1  UNL1        0.1789
      2 C          -5.5924  -21.1376   20.7841 C.ar    1  UNL1        0.0406
      3 C          -4.1501  -20.7497   20.6457 C.ar    1  UNL1        0.0034
      4 C          -3.6266  -19.5405   21.3625 C.ar    1  UNL1        0.0039
      5 C          -4.5453  -18.7192   22.2176 C.ar    1  UNL1        0.0401
      6 C          -5.9877  -19.1072   22.3561 C.ar    1  UNL1        0.1730
      7 C          -2.1843  -19.1526   21.2240 C.2     1  UNL1        0.0113
      8 C          -1.7020  -18.4949   19.9651 C.2     1  UNL1        0.0873
      9 S          -2.5406  -18.1635   18.7664 S.3     1  UNL1       -0.0254
     10 C          -1.6534  -17.5168   17.7443 C.2     1  UNL1        0.2832
     11 O          -2.0784  -17.0249   16.3926 O.2     1  UNL1       -0.2622
     12 N          -0.2663  -17.4486   18.3113 N.am    1  UNL1       -0.2425
     13 C          -0.2963  -18.0531   19.6839 C.2     1  UNL1        0.2583
     14 O           0.8737  -18.1914   20.6121 O.2     1  UNL1       -0.2692
     15 H           0.5248  -17.0731   17.8616 H       1  UNL1        0.1587
     16 O          -6.9065  -18.2859   23.2113 O.3     1  UNL1       -0.4684
     17 C          -7.1265  -16.8356   22.8977 C.3     1  UNL1        0.2526
     18 O          -7.9536  -20.7043   21.7778 O.3     1  UNL1       -0.4504
     19 C         -11.1868  -17.7962   20.6206 C.ar    1  UNL1        0.0758
     20 C         -10.1719  -18.2322   19.6058 C.ar    1  UNL1        0.0096
     21 C          -9.0942  -19.2015   19.9915 C.ar    1  UNL1        0.0377
     22 C          -9.0313  -19.7349   21.3921 C.ar    1  UNL1        0.1454
     23 C         -10.0463  -19.2990   22.4070 C.ar    1  UNL1        0.0348
     24 C          -9.9834  -19.8323   23.8075 C.ar    1  UNL1        0.0030
     25 C         -10.9983  -19.3964   24.8223 C.ar    1  UNL1        0.0001
     26 C         -12.0760  -18.4270   24.4365 C.ar    1  UNL1        0.0000
     27 C         -12.1389  -17.8936   23.0360 C.ar    1  UNL1        0.0003
     28 C         -11.1240  -18.3296   22.0212 C.ar    1  UNL1        0.0092
     29 C         -12.2646  -16.8268   20.2349 C.2     1  UNL1        0.3413
     30 O         -13.5181  -16.7342   21.0536 O.2     1  UNL1       -0.2449
     31 C         -10.9185  -15.0156   18.9476 C.3     1  UNL1        0.2560
     32 O         -12.0888  -15.9501   19.0306 O.3     1  UNL1       -0.4413
@<TRIPOS>BOND
     1    31    32    1
     2    32    29    1
     3    29    30    2
     4    29    19    1
     5    19    20   ar
     6    20    21   ar
     7    21    22   ar
     8    22    18    1
     9    18     1    1
    10     1     2   ar
    11     2     3   ar
    12     3     4   ar
    13     4     7    1
    14     7     8    2
    15     8     9    1
    16     9    10    1
    17    10    11    2
    18    10    12   am
    19    12    13   am
    20    13    14    2
    21     4     5   ar
    22     5     6   ar
    23     6    16    1
    24    16    17    1
    25    22    23   ar
    26    23    24   ar
    27    24    25   ar
    28    25    26   ar
    29    26    27   ar
    30    27    28   ar
    31    28    19   ar
    32     6     1   ar
    33    28    23   ar
    34    13     8    1
    35    12    15    1
@<TRIPOS>MOLECULE
*****
 32 35 0 0 0
SMALL
GASTEIGER

@<TRIPOS>ATOM
      1 C           0.8003    2.1454   21.0846 C.ar    1  UNL1        0.1789
      2 C           0.2593    1.0412   20.2254 C.ar    1  UNL1        0.0406
      3 C           0.9822   -0.2707   20.1467 C.ar    1  UNL1        0.0034
      4 C           2.2461   -0.4786   20.9273 C.ar    1  UNL1        0.0039
      5 C           2.7871    0.6255   21.7866 C.ar    1  UNL1        0.0401
      6 C           2.0642    1.9375   21.8652 C.ar    1  UNL1        0.1730
      7 C           2.9689   -1.7905   20.8487 C.2     1  UNL1        0.0113
      8 C           4.0865   -1.9733   19.8650 C.2     1  UNL1        0.0873
      9 S           4.5901   -0.9405   18.9008 S.3     1  UNL1       -0.0254
     10 C           5.7115   -1.5499   18.1127 C.2     1  UNL1        0.2832
     11 O           6.5043   -0.8694   17.0364 O.2     1  UNL1       -0.2622
     12 N           5.9010   -2.9593   18.5898 N.am    1  UNL1       -0.2425
     13 C           4.8967   -3.2210   19.6729 C.2     1  UNL1        0.2583
     14 O           4.7316   -4.5049   20.4306 O.2     1  UNL1       -0.2692
     15 H           6.5675   -3.6001   18.2516 H       1  UNL1        0.1587
     16 O           2.6052    3.0415   22.7244 O.3     1  UNL1       -0.4684
     17 C           2.1053    3.2130   24.1283 C.3     1  UNL1        0.2526
     18 O           0.0774    3.4573   21.1632 O.3     1  UNL1       -0.4504
     19 C          -4.0314    3.8730   19.3758 C.ar    1  UNL1        0.0758
     20 C          -2.8214    3.9034   18.4898 C.ar    1  UNL1        0.0096
     21 C          -1.4518    3.7648   19.0856 C.ar    1  UNL1        0.0377
     22 C          -1.2922    3.5959   20.5674 C.ar    1  UNL1        0.1454
     23 C          -2.5021    3.5655   21.4535 C.ar    1  UNL1        0.0348
     24 C          -2.3425    3.3965   22.9354 C.ar    1  UNL1        0.0030
     25 C          -3.5524    3.3662   23.8214 C.ar    1  UNL1        0.0001
     26 C          -4.9220    3.5047   23.2256 C.ar    1  UNL1        0.0000
     27 C          -5.0817    3.6737   21.7437 C.ar    1  UNL1        0.0003
     28 C          -3.8717    3.7041   20.8577 C.ar    1  UNL1        0.0092
     29 C          -5.4010    4.0116   18.7800 C.2     1  UNL1        0.3413
     30 O          -6.3039    2.8172   18.6896 O.2     1  UNL1       -0.2449
     31 C          -6.3397    5.4860   16.8578 C.3     1  UNL1        0.2560
     32 O          -5.8676    5.3445   18.2745 O.3     1  UNL1       -0.4413
@<TRIPOS>BOND
     1    31    32    1
     2    32    29    1
     3    29    30    2
     4    29    19    1
     5    19    20   ar
     6    20    21   ar
     7    21    22   ar
     8    22    18    1
     9    18     1    1
    10     1     2   ar
    11     2     3   ar
    12     3     4   ar
    13     4     7    1
    14     7     8    2
    15     8     9    1
    16     9    10    1
    17    10    11    2
    18    10    12   am
    19    12    13   am
    20    13    14    2
    21     4     5   ar
    22     5     6   ar
    23     6    16    1
    24    16    17    1
    25    22    23   ar
    26    23    24   ar
    27    24    25   ar
    28    25    26   ar
    29    26    27   ar
    30    27    28   ar
    31    28    19   ar
    32     6     1   ar
    33    28    23   ar
    34    13     8    1
    35    12    15    1
