@<TRIPOS>MOLECULE
*****
 26 29 0 0 0
SMALL
GASTEIGER

@<TRIPOS>ATOM
      1 C          -4.4562  -19.2501   20.8430 C.ar    1  UNL1        0.0537
      2 C          -5.4842  -19.4279   19.7653 C.ar    1  UNL1        0.0061
      3 C          -6.9160  -19.0654   20.0274 C.ar    1  UNL1        0.0193
      4 C          -7.3197  -18.5252   21.3671 C.ar    1  UNL1        0.0825
      5 C          -6.2917  -18.3474   22.4449 C.ar    1  UNL1        0.0193
      6 C          -4.8599  -18.7098   22.1828 C.ar    1  UNL1        0.0061
      7 N          -8.7515  -18.1627   21.6292 N.ar    1  UNL1       -0.2316
      8 N          -9.6089  -17.2805   20.7710 N.ar    1  UNL1       -0.1617
      9 C         -10.9645  -17.1914   21.4069 C.ar    1  UNL1        0.1698
     10 C         -10.9449  -18.0185   22.6581 C.ar    1  UNL1        0.0197
     11 C          -9.5771  -18.6188   22.7955 C.ar    1  UNL1        0.0878
     12 C          -9.2602  -19.5032   23.9648 C.3     1  UNL1        0.1872
     13 O         -10.3111  -19.7873   24.9968 O.3     1  UNL1       -0.3470
     14 C         -11.6788  -19.1869   24.8594 C.3     1  UNL1        0.1474
     15 C         -11.9957  -18.3026   23.6901 C.3     1  UNL1        0.0612
     16 C         -12.1344  -16.4120   20.8836 C.3     1  UNL1        0.4362
     17 F         -13.3043  -15.6326   20.3601 F       1  UNL1       -0.1644
     18 F         -12.0651  -17.1741   19.5935 F       1  UNL1       -0.1644
     19 F         -12.2038  -15.6498   22.1736 F       1  UNL1       -0.1644
     20 O          -2.6315  -21.0518   20.4256 O.2     1  UNL1       -0.2699
     21 C          -3.0244  -19.6126   20.5809 C.2     1  UNL1        0.2490
     22 N          -1.9857  -18.5358   20.4742 N.am    1  UNL1       -0.2761
     23 C          -0.5227  -18.7444   20.2165 C.3     1  UNL1        0.0938
     24 C           0.1397  -17.3989   20.1895 C.3     1  UNL1        0.0233
     25 C          -0.9139  -16.3586   20.4305 C.3     1  UNL1        0.0233
     26 C          -2.2273  -17.0612   20.6065 C.3     1  UNL1        0.0938
@<TRIPOS>BOND
     1    20    21    2
     2    21     1    1
     3     1     2   ar
     4     2     3   ar
     5     3     4   ar
     6     4     7    1
     7     7     8   ar
     8     8     9   ar
     9     9    16    1
    10    16    17    1
    11    16    18    1
    12    16    19    1
    13     9    10   ar
    14    10    11   ar
    15    11    12    1
    16    12    13    1
    17    13    14    1
    18    14    15    1
    19     4     5   ar
    20     5     6   ar
    21    21    22   am
    22    22    23    1
    23    23    24    1
    24    24    25    1
    25    25    26    1
    26     6     1   ar
    27    26    22    1
    28    11     7   ar
    29    15    10    1
@<TRIPOS>MOLECULE
*****
 26 29 0 0 0
SMALL
GASTEIGER

@<TRIPOS>ATOM
      1 C          -4.9057  -17.9892   22.6510 C.ar    1  UNL1        0.0537
      2 C          -5.7376  -19.0917   22.0659 C.ar    1  UNL1        0.0061
      3 C          -7.2345  -19.0093   22.1163 C.ar    1  UNL1        0.0193
      4 C          -7.8995  -17.8245   22.7517 C.ar    1  UNL1        0.0825
      5 C          -7.0675  -16.7219   23.3368 C.ar    1  UNL1        0.0193
      6 C          -5.5706  -16.8043   23.2864 C.ar    1  UNL1        0.0061
      7 N          -9.3964  -17.7421   22.8021 N.ar    1  UNL1       -0.2316
      8 N         -10.2709  -18.2549   23.9076 N.ar    1  UNL1       -0.1617
      9 C         -11.6965  -17.9621   23.5445 C.ar    1  UNL1        0.1698
     10 C         -11.7031  -17.2684   22.2146 C.ar    1  UNL1        0.0197
     11 C         -10.2815  -17.1324   21.7557 C.ar    1  UNL1        0.0878
     12 C          -9.9767  -16.4710   20.4444 C.3     1  UNL1        0.1872
     13 O         -11.0935  -15.9456   19.5920 O.3     1  UNL1       -0.3470
     14 C         -12.5151  -16.0816   20.0508 C.3     1  UNL1        0.1474
     15 C         -12.8199  -16.7430   21.3621 C.3     1  UNL1        0.0612
     16 C         -12.9037  -18.3032   24.3669 C.3     1  UNL1        0.4362
     17 F         -14.1110  -18.6442   25.1893 F       1  UNL1       -0.1644
     18 F         -13.6815  -17.2248   23.6725 F       1  UNL1       -0.1644
     19 F         -12.1260  -19.3816   25.0613 F       1  UNL1       -0.1644
     20 O          -2.6142  -18.0674   23.8728 O.2     1  UNL1       -0.2699
     21 C          -3.4088  -18.0716   22.6006 C.2     1  UNL1        0.2490
     22 N          -2.7066  -18.1582   21.2780 N.am    1  UNL1       -0.2761
     23 C          -1.2234  -18.2457   21.0712 C.3     1  UNL1        0.0938
     24 C          -0.9644  -18.3141   19.5954 C.3     1  UNL1        0.0233
     25 C          -2.2874  -18.2689   18.8899 C.3     1  UNL1        0.0233
     26 C          -3.3641  -18.1726   19.9298 C.3     1  UNL1        0.0938
@<TRIPOS>BOND
     1    20    21    2
     2    21     1    1
     3     1     2   ar
     4     2     3   ar
     5     3     4   ar
     6     4     7    1
     7     7     8   ar
     8     8     9   ar
     9     9    16    1
    10    16    17    1
    11    16    18    1
    12    16    19    1
    13     9    10   ar
    14    10    11   ar
    15    11    12    1
    16    12    13    1
    17    13    14    1
    18    14    15    1
    19     4     5   ar
    20     5     6   ar
    21    21    22   am
    22    22    23    1
    23    23    24    1
    24    24    25    1
    25    25    26    1
    26     6     1   ar
    27    26    22    1
    28    11     7   ar
    29    15    10    1
@<TRIPOS>MOLECULE
*****
 26 29 0 0 0
SMALL
GASTEIGER

@<TRIPOS>ATOM
      1 C          -5.1015  -19.4078   20.8563 C.ar    1  UNL1        0.0537
      2 C          -6.2344  -19.6897   19.9145 C.ar    1  UNL1        0.0061
      3 C          -7.6416  -19.3562   20.3129 C.ar    1  UNL1        0.0193
      4 C          -7.9159  -18.7407   21.6529 C.ar    1  UNL1        0.0825
      5 C          -6.7829  -18.4587   22.5948 C.ar    1  UNL1        0.0193
      6 C          -5.3758  -18.7923   22.1964 C.ar    1  UNL1        0.0061
      7 N          -9.3230  -18.4071   22.0513 N.ar    1  UNL1       -0.2316
      8 N         -10.0212  -18.8724   23.2947 N.ar    1  UNL1       -0.1617
      9 C         -11.4087  -18.3025   23.2879 C.ar    1  UNL1        0.1698
     10 C         -11.5681  -17.4850   22.0404 C.ar    1  UNL1        0.0197
     11 C         -10.2790  -17.5497   21.2761 C.ar    1  UNL1        0.0878
     12 C         -10.1423  -16.8194   19.9730 C.3     1  UNL1        0.1872
     13 O         -11.2946  -16.0246   19.4343 O.3     1  UNL1       -0.3470
     14 C         -12.5837  -15.9599   20.1986 C.3     1  UNL1        0.1474
     15 C         -12.7204  -16.6901   21.5017 C.3     1  UNL1        0.0612
     16 C         -12.4535  -18.5131   24.3435 C.3     1  UNL1        0.4362
     17 F         -13.4983  -18.7237   25.3989 F       1  UNL1       -0.1644
     18 F         -13.5277  -18.2164   23.3394 F       1  UNL1       -0.1644
     19 F         -11.3794  -18.8098   25.3475 F       1  UNL1       -0.1644
     20 O          -3.3502  -21.1323   20.0143 O.2     1  UNL1       -0.2699
     21 C          -3.6944  -19.7414   20.4580 C.2     1  UNL1        0.2490
     22 N          -2.6315  -18.6840   20.5033 N.am    1  UNL1       -0.2761
     23 C          -1.1885  -18.8679   20.1366 C.3     1  UNL1        0.0938
     24 C          -0.4901  -17.5546   20.3300 C.3     1  UNL1        0.0233
     25 C          -1.5013  -16.5589   20.8161 C.3     1  UNL1        0.0233
     26 C          -2.8247  -17.2569   20.9232 C.3     1  UNL1        0.0938
@<TRIPOS>BOND
     1    20    21    2
     2    21     1    1
     3     1     2   ar
     4     2     3   ar
     5     3     4   ar
     6     4     7    1
     7     7     8   ar
     8     8     9   ar
     9     9    16    1
    10    16    17    1
    11    16    18    1
    12    16    19    1
    13     9    10   ar
    14    10    11   ar
    15    11    12    1
    16    12    13    1
    17    13    14    1
    18    14    15    1
    19     4     5   ar
    20     5     6   ar
    21    21    22   am
    22    22    23    1
    23    23    24    1
    24    24    25    1
    25    25    26    1
    26     6     1   ar
    27    26    22    1
    28    11     7   ar
    29    15    10    1
@<TRIPOS>MOLECULE
*****
 26 29 0 0 0
SMALL
GASTEIGER

@<TRIPOS>ATOM
      1 C         -15.8671   -8.7252   18.4093 C.ar    1  UNL1        0.0537
      2 C         -15.8728   -7.5013   19.2765 C.ar    1  UNL1        0.0061
      3 C         -14.8133   -6.4539   19.1026 C.ar    1  UNL1        0.0193
      4 C         -13.7480   -6.6302   18.0615 C.ar    1  UNL1        0.0825
      5 C         -13.7422   -7.8542   17.1942 C.ar    1  UNL1        0.0193
      6 C         -14.8018   -8.9016   17.3682 C.ar    1  UNL1        0.0061
      7 N         -12.6884   -5.5828   17.8876 N.ar    1  UNL1       -0.2316
      8 N         -11.3725   -5.7669   17.1915 N.ar    1  UNL1       -0.1617
      9 C         -10.6296   -4.4653   17.2529 C.ar    1  UNL1        0.1698
     10 C         -11.4864   -3.4767   17.9869 C.ar    1  UNL1        0.0197
     11 C         -12.7588   -4.1674   18.3792 C.ar    1  UNL1        0.0878
     12 C         -13.8171   -3.4183   19.1333 C.3     1  UNL1        0.1872
     13 O         -13.6030   -1.9785   19.4952 O.3     1  UNL1       -0.3470
     14 C         -12.3305   -1.2878   19.1030 C.3     1  UNL1        0.1474
     15 C         -11.2722   -2.0369   18.3488 C.3     1  UNL1        0.0612
     16 C          -9.2688   -4.1989   16.6808 C.3     1  UNL1        0.4362
     17 F          -7.9081   -3.9324   16.1086 F       1  UNL1       -0.1644
     18 F          -9.8003   -2.9819   15.9833 F       1  UNL1       -0.1644
     19 F          -8.7374   -5.4158   17.3782 F       1  UNL1       -0.1644
     20 O         -16.7393  -10.8690   19.5896 O.2     1  UNL1       -0.2699
     21 C         -16.9266   -9.7726   18.5832 C.2     1  UNL1        0.2490
     22 N         -18.1735   -9.7235   17.7508 N.am    1  UNL1       -0.2761
     23 C         -19.3139  -10.6961   17.8128 C.3     1  UNL1        0.0938
     24 C         -20.3440  -10.2669   16.8106 C.3     1  UNL1        0.0233
     25 C         -19.8404   -9.0291   16.1291 C.3     1  UNL1        0.0233
     26 C         -18.4990   -8.6933   16.7102 C.3     1  UNL1        0.0938
@<TRIPOS>BOND
     1    20    21    2
     2    21     1    1
     3     1     2   ar
     4     2     3   ar
     5     3     4   ar
     6     4     7    1
     7     7     8   ar
     8     8     9   ar
     9     9    16    1
    10    16    17    1
    11    16    18    1
    12    16    19    1
    13     9    10   ar
    14    10    11   ar
    15    11    12    1
    16    12    13    1
    17    13    14    1
    18    14    15    1
    19     4     5   ar
    20     5     6   ar
    21    21    22   am
    22    22    23    1
    23    23    24    1
    24    24    25    1
    25    25    26    1
    26     6     1   ar
    27    26    22    1
    28    11     7   ar
    29    15    10    1
@<TRIPOS>MOLECULE
*****
 26 29 0 0 0
SMALL
GASTEIGER

@<TRIPOS>ATOM
      1 C         -16.8880   -3.6280   19.6611 C.ar    1  UNL1        0.0537
      2 C         -16.4679   -3.7945   18.2308 C.ar    1  UNL1        0.0061
      3 C         -15.0663   -4.2182   17.9052 C.ar    1  UNL1        0.0193
      4 C         -14.0848   -4.4755   19.0099 C.ar    1  UNL1        0.0825
      5 C         -14.5049   -4.3091   20.4403 C.ar    1  UNL1        0.0193
      6 C         -15.9065   -3.8853   20.7658 C.ar    1  UNL1        0.0061
      7 N         -12.6832   -4.8993   18.6843 N.ar    1  UNL1       -0.2316
      8 N         -11.9907   -6.1258   19.1999 N.ar    1  UNL1       -0.1617
      9 C         -10.6076   -6.1554   18.6202 C.ar    1  UNL1        0.1698
     10 C         -10.4453   -4.9472   17.7462 C.ar    1  UNL1        0.0197
     11 C         -11.7281   -4.1708   17.7858 C.ar    1  UNL1        0.0878
     12 C         -11.8609   -2.9009   16.9987 C.3     1  UNL1        0.1872
     13 O         -10.7107   -2.4073   16.1720 O.3     1  UNL1       -0.3470
     14 C          -9.4279   -3.1837   16.1324 C.3     1  UNL1        0.1474
     15 C          -9.2952   -4.4536   16.9195 C.3     1  UNL1        0.0612
     16 C          -9.5690   -7.2084   18.8705 C.3     1  UNL1        0.4362
     17 F          -8.5304   -8.2614   19.1208 F       1  UNL1       -0.1644
     18 F          -8.9102   -6.3182   19.8821 F       1  UNL1       -0.1644
     19 F         -10.2278   -8.0986   17.8589 F       1  UNL1       -0.1644
     20 O         -19.3813   -4.2290   20.0760 O.2     1  UNL1       -0.2699
     21 C         -18.2896   -3.2043   19.9867 C.2     1  UNL1        0.2490
     22 N         -18.5993   -1.7558   20.2230 N.am    1  UNL1       -0.2761
     23 C         -19.9461   -1.1850   20.5557 C.3     1  UNL1        0.0938
     24 C         -19.7959    0.2997   20.7065 C.3     1  UNL1        0.0233
     25 C         -18.3563    0.6467   20.4670 C.3     1  UNL1        0.0233
     26 C         -17.6168   -0.6236   20.1682 C.3     1  UNL1        0.0938
@<TRIPOS>BOND
     1    20    21    2
     2    21     1    1
     3     1     2   ar
     4     2     3   ar
     5     3     4   ar
     6     4     7    1
     7     7     8   ar
     8     8     9   ar
     9     9    16    1
    10    16    17    1
    11    16    18    1
    12    16    19    1
    13     9    10   ar
    14    10    11   ar
    15    11    12    1
    16    12    13    1
    17    13    14    1
    18    14    15    1
    19     4     5   ar
    20     5     6   ar
    21    21    22   am
    22    22    23    1
    23    23    24    1
    24    24    25    1
    25    25    26    1
    26     6     1   ar
    27    26    22    1
    28    11     7   ar
    29    15    10    1
@<TRIPOS>MOLECULE
*****
 26 29 0 0 0
SMALL
GASTEIGER

@<TRIPOS>ATOM
      1 C           0.4953    2.6309   19.9856 C.ar    1  UNL1        0.0537
      2 C           1.9657    2.6296   19.6893 C.ar    1  UNL1        0.0061
      3 C           2.7508    1.3558   19.7947 C.ar    1  UNL1        0.0193
      4 C           2.0657    0.0834   20.1963 C.ar    1  UNL1        0.0825
      5 C           0.5951    0.0847   20.4926 C.ar    1  UNL1        0.0193
      6 C          -0.1900    1.3585   20.3872 C.ar    1  UNL1        0.0061
      7 N           2.8508   -1.1903   20.3017 N.ar    1  UNL1       -0.2316
      8 N           3.0597   -2.1907   19.2036 N.ar    1  UNL1       -0.1617
      9 C           3.9029   -3.3059   19.7470 C.ar    1  UNL1        0.1698
     10 C           4.2151   -2.9948   21.1808 C.ar    1  UNL1        0.0197
     11 C           3.5649   -1.6873   21.5236 C.ar    1  UNL1        0.0878
     12 C           3.7070   -1.1182   22.9041 C.3     1  UNL1        0.1872
     13 O           4.4994   -1.8566   23.9418 O.3     1  UNL1       -0.3470
     14 C           5.1497   -3.1641   23.5990 C.3     1  UNL1        0.1474
     15 C           5.0075   -3.7333   22.2185 C.3     1  UNL1        0.0612
     16 C           4.3546   -4.5193   18.9895 C.3     1  UNL1        0.4362
     17 F           4.8064   -5.7326   18.2320 F       1  UNL1       -0.1644
     18 F           5.3823   -3.6915   18.2763 F       1  UNL1       -0.1644
     19 F           3.3270   -5.3471   19.7027 F       1  UNL1       -0.1644
     20 O          -0.5081    4.7541   21.0971 O.2     1  UNL1       -0.2699
     21 C          -0.2899    3.9047   19.8802 C.2     1  UNL1        0.2490
     22 N          -0.8568    4.3290   18.5579 N.am    1  UNL1       -0.2761
     23 C          -1.6587    5.5701   18.2997 C.3     1  UNL1        0.0938
     24 C          -2.0189    5.5949   16.8439 C.3     1  UNL1        0.0233
     25 C          -1.4395    4.3690   16.2021 C.3     1  UNL1        0.0233
     26 C          -0.7214    3.5867   17.2614 C.3     1  UNL1        0.0938
@<TRIPOS>BOND
     1    20    21    2
     2    21     1    1
     3     1     2   ar
     4     2     3   ar
     5     3     4   ar
     6     4     7    1
     7     7     8   ar
     8     8     9   ar
     9     9    16    1
    10    16    17    1
    11    16    18    1
    12    16    19    1
    13     9    10   ar
    14    10    11   ar
    15    11    12    1
    16    12    13    1
    17    13    14    1
    18    14    15    1
    19     4     5   ar
    20     5     6   ar
    21    21    22   am
    22    22    23    1
    23    23    24    1
    24    24    25    1
    25    25    26    1
    26     6     1   ar
    27    26    22    1
    28    11     7   ar
    29    15    10    1
@<TRIPOS>MOLECULE
*****
 26 29 0 0 0
SMALL
GASTEIGER

@<TRIPOS>ATOM
      1 C           5.6187   -1.6821   26.7445 C.ar    1  UNL1        0.0537
      2 C           6.4955   -2.0772   25.5934 C.ar    1  UNL1        0.0061
      3 C           5.9469   -2.0747   24.1973 C.ar    1  UNL1        0.0193
      4 C           4.5216   -1.6772   23.9523 C.ar    1  UNL1        0.0825
      5 C           3.6446   -1.2821   25.1034 C.ar    1  UNL1        0.0193
      6 C           4.1932   -1.2846   26.4995 C.ar    1  UNL1        0.0061
      7 N           3.9730   -1.6747   22.5562 N.ar    1  UNL1       -0.2316
      8 N           2.9701   -0.7050   22.0047 N.ar    1  UNL1       -0.1617
      9 C           2.7083   -1.0725   20.5742 C.ar    1  UNL1        0.1698
     10 C           3.5493   -2.2692   20.2416 C.ar    1  UNL1        0.0197
     11 C           4.3309   -2.6414   21.4665 C.ar    1  UNL1        0.0878
     12 C           5.2676   -3.8124   21.4315 C.3     1  UNL1        0.1872
     13 O           5.4226   -4.6113   20.1715 O.3     1  UNL1       -0.3470
     14 C           4.6410   -4.2391   18.9465 C.3     1  UNL1        0.1474
     15 C           3.7044   -3.0681   18.9815 C.3     1  UNL1        0.0612
     16 C           1.7702   -0.3671   19.6402 C.3     1  UNL1        0.4362
     17 F           0.8320    0.3383   18.7062 F       1  UNL1       -0.1644
     18 F           0.5998   -0.9377   20.3849 F       1  UNL1       -0.1644
     19 F           2.9405    0.2035   18.8955 F       1  UNL1       -0.1644
     20 O           6.4241   -0.3870   28.8479 O.2     1  UNL1       -0.2699
     21 C           6.1673   -1.6847   28.1406 C.2     1  UNL1        0.2490
     22 N           6.4591   -2.9848   28.8293 N.am    1  UNL1       -0.2761
     23 C           7.0068   -3.1442   30.2167 C.3     1  UNL1        0.0938
     24 C           7.1407   -4.6117   30.4965 C.3     1  UNL1        0.0233
     25 C           6.6757   -5.3594   29.2821 C.3     1  UNL1        0.0233
     26 C           6.2544   -4.3540   28.2518 C.3     1  UNL1        0.0938
@<TRIPOS>BOND
     1    20    21    2
     2    21     1    1
     3     1     2   ar
     4     2     3   ar
     5     3     4   ar
     6     4     7    1
     7     7     8   ar
     8     8     9   ar
     9     9    16    1
    10    16    17    1
    11    16    18    1
    12    16    19    1
    13     9    10   ar
    14    10    11   ar
    15    11    12    1
    16    12    13    1
    17    13    14    1
    18    14    15    1
    19     4     5   ar
    20     5     6   ar
    21    21    22   am
    22    22    23    1
    23    23    24    1
    24    24    25    1
    25    25    26    1
    26     6     1   ar
    27    26    22    1
    28    11     7   ar
    29    15    10    1
@<TRIPOS>MOLECULE
*****
 26 29 0 0 0
SMALL
GASTEIGER

@<TRIPOS>ATOM
      1 C           6.0934   -2.2655   27.1459 C.ar    1  UNL1        0.0537
      2 C           4.7906   -1.6740   26.6954 C.ar    1  UNL1        0.0061
      3 C           4.3413   -1.8439   25.2744 C.ar    1  UNL1        0.0193
      4 C           5.1946   -2.6052   24.3039 C.ar    1  UNL1        0.0825
      5 C           6.4974   -3.1967   24.7544 C.ar    1  UNL1        0.0193
      6 C           6.9468   -3.0268   26.1754 C.ar    1  UNL1        0.0061
      7 N           4.7452   -2.7751   22.8829 N.ar    1  UNL1       -0.2316
      8 N           5.1205   -3.9034   21.9684 N.ar    1  UNL1       -0.1617
      9 C           4.4489   -3.6721   20.6473 C.ar    1  UNL1        0.1698
     10 C           3.6586   -2.4009   20.7452 C.ar    1  UNL1        0.0197
     11 C           3.8418   -1.8466   22.1269 C.ar    1  UNL1        0.0878
     12 C           3.1622   -0.5679   22.5182 C.3     1  UNL1        0.1872
     13 O           2.2994    0.1564   21.5277 O.3     1  UNL1       -0.3470
     14 C           2.1163   -0.3980   20.1460 C.3     1  UNL1        0.1474
     15 C           2.7959   -1.6766   19.7548 C.3     1  UNL1        0.0612
     16 C           4.5499   -4.5567   19.4401 C.3     1  UNL1        0.4362
     17 F           4.6509   -5.4412   18.2328 F       1  UNL1       -0.1644
     18 F           5.6857   -3.7235   18.9246 F       1  UNL1       -0.1644
     19 F           3.4141   -5.3898   19.9555 F       1  UNL1       -0.1644
     20 O           6.7901   -0.7218   29.1161 O.2     1  UNL1       -0.2699
     21 C           6.5427   -2.0956   28.5669 C.2     1  UNL1        0.2490
     22 N           6.7446   -3.2994   29.4386 N.am    1  UNL1       -0.2761
     23 C           7.1888   -3.2861   30.8714 C.3     1  UNL1        0.0938
     24 C           7.2565   -4.7064   31.3489 C.3     1  UNL1        0.0233
     25 C           6.8543   -5.5976   30.2113 C.3     1  UNL1        0.0233
     26 C           6.5379   -4.7281   29.0307 C.3     1  UNL1        0.0938
@<TRIPOS>BOND
     1    20    21    2
     2    21     1    1
     3     1     2   ar
     4     2     3   ar
     5     3     4   ar
     6     4     7    1
     7     7     8   ar
     8     8     9   ar
     9     9    16    1
    10    16    17    1
    11    16    18    1
    12    16    19    1
    13     9    10   ar
    14    10    11   ar
    15    11    12    1
    16    12    13    1
    17    13    14    1
    18    14    15    1
    19     4     5   ar
    20     5     6   ar
    21    21    22   am
    22    22    23    1
    23    23    24    1
    24    24    25    1
    25    25    26    1
    26     6     1   ar
    27    26    22    1
    28    11     7   ar
    29    15    10    1
@<TRIPOS>MOLECULE
*****
 26 29 0 0 0
SMALL
GASTEIGER

@<TRIPOS>ATOM
      1 C         -11.0651  -18.0343   22.2025 C.ar    1  UNL1        0.0537
      2 C         -10.4327  -19.3935   22.2526 C.ar    1  UNL1        0.0061
      3 C          -8.9400  -19.5289   22.1937 C.ar    1  UNL1        0.0193
      4 C          -8.0796  -18.3051   22.0847 C.ar    1  UNL1        0.0825
      5 C          -8.7120  -16.9458   22.0345 C.ar    1  UNL1        0.0193
      6 C         -10.2047  -16.8104   22.0934 C.ar    1  UNL1        0.0061
      7 N          -6.5869  -18.4405   22.0257 N.ar    1  UNL1       -0.2316
      8 N          -5.5955  -17.6078   22.7832 N.ar    1  UNL1       -0.1617
      9 C          -4.2194  -18.0850   22.4246 C.ar    1  UNL1        0.1698
     10 C          -4.3604  -19.2127   21.4455 C.ar    1  UNL1        0.0197
     11 C          -5.8236  -19.4324   21.1990 C.ar    1  UNL1        0.0878
     12 C          -6.2718  -20.5072   20.2537 C.3     1  UNL1        0.1872
     13 O          -5.2568  -21.3624   19.5548 O.3     1  UNL1       -0.3470
     14 C          -3.7936  -21.1427   19.8013 C.3     1  UNL1        0.1474
     15 C          -3.3454  -20.0679   20.7466 C.3     1  UNL1        0.0612
     16 C          -2.9289  -17.5318   22.9523 C.3     1  UNL1        0.4362
     17 F          -1.6384  -16.9785   23.4800 F       1  UNL1       -0.1644
     18 F          -2.5975  -17.0036   21.5881 F       1  UNL1       -0.1644
     19 F          -3.2604  -18.0599   24.3165 F       1  UNL1       -0.1644
     20 O         -13.3250  -17.5127   21.0317 O.2     1  UNL1       -0.2699
     21 C         -12.5578  -17.8989   22.2614 C.2     1  UNL1        0.2490
     22 N         -13.2833  -18.1497   23.5501 N.am    1  UNL1       -0.2761
     23 C         -14.7654  -18.0536   23.7607 C.3     1  UNL1        0.0938
     24 C         -15.0522  -18.3852   25.1952 C.3     1  UNL1        0.0233
     25 C         -13.7474  -18.6863   25.8712 C.3     1  UNL1        0.0233
     26 C         -12.6542  -18.5408   24.8545 C.3     1  UNL1        0.0938
@<TRIPOS>BOND
     1    20    21    2
     2    21     1    1
     3     1     2   ar
     4     2     3   ar
     5     3     4   ar
     6     4     7    1
     7     7     8   ar
     8     8     9   ar
     9     9    16    1
    10    16    17    1
    11    16    18    1
    12    16    19    1
    13     9    10   ar
    14    10    11   ar
    15    11    12    1
    16    12    13    1
    17    13    14    1
    18    14    15    1
    19     4     5   ar
    20     5     6   ar
    21    21    22   am
    22    22    23    1
    23    23    24    1
    24    24    25    1
    25    25    26    1
    26     6     1   ar
    27    26    22    1
    28    11     7   ar
    29    15    10    1
