@<TRIPOS>MOLECULE
*****
 29 31 0 0 0
SMALL
GASTEIGER

@<TRIPOS>ATOM
      1 N          -6.9097  -14.7087   24.8744 N.3     1  UNL1       -0.2972
      2 H          -7.0024  -14.1978   25.7523 H       1  UNL1        0.1233
      3 C          -8.0206  -15.1779   23.1292 C.3     1  UNL1        0.0161
      4 C          -8.2391  -15.3485   24.6033 C.3     1  UNL1        0.0461
      5 C          -8.4576  -15.5192   26.0774 C.3     1  UNL1        0.0161
      6 C          -9.5685  -15.9884   24.3321 C.3     1  UNL1        0.0413
      7 C          -9.6319  -17.3460   23.6974 C.ar    1  UNL1       -0.0139
      8 C          -9.2140  -18.6378   24.3350 C.ar    1  UNL1        0.0312
      9 S          -9.4481  -19.7403   23.3453 S.2     1  UNL1       -0.0868
     10 C         -10.0107  -19.1299   22.0959 C.ar    1  UNL1        0.0292
     11 C         -10.4343  -19.7303   20.7882 C.ar    1  UNL1        0.0065
     12 C         -10.9714  -18.8509   19.6982 C.ar    1  UNL1        0.0005
     13 C         -11.0849  -17.3712   19.9158 C.ar    1  UNL1        0.0000
     14 C         -10.6614  -16.7707   21.2235 C.ar    1  UNL1        0.0002
     15 C         -10.1243  -17.6501   22.3135 C.ar    1  UNL1        0.0026
     16 C          -5.6793  -15.5580   24.9955 C.3     1  UNL1        0.1020
     17 C          -4.7800  -15.7488   23.8103 C.3     1  UNL1        0.1697
     18 O          -4.6166  -14.6453   22.8075 O.3     1  UNL1       -0.3793
     19 H          -5.1570  -13.8847   23.0728 H       1  UNL1        0.2106
     20 C          -4.0441  -17.0430   23.6278 C.3     1  UNL1        0.2358
     21 O          -3.6023  -17.4681   22.2588 O.3     1  UNL1       -0.4721
     22 C          -4.2472  -18.6489   21.5956 C.ar    1  UNL1        0.1482
     23 C          -5.6580  -19.0246   21.9400 C.ar    1  UNL1        0.0376
     24 C          -6.3028  -20.2054   21.2767 C.ar    1  UNL1        0.0032
     25 C          -5.5370  -21.0104   20.2690 C.ar    1  UNL1        0.0009
     26 C          -4.1262  -20.6347   19.9246 C.ar    1  UNL1        0.0133
     27 C          -3.4814  -19.4539   20.5879 C.ar    1  UNL1        0.1023
     28 C          -2.0706  -19.0782   20.2436 C.1     1  UNL1        0.1035
     29 N          -0.6599  -18.7025   19.8993 N.1     1  UNL1       -0.1907
@<TRIPOS>BOND
     1     3     4    1
     2     4     5    1
     3     4     6    1
     4     6     7    1
     5     7     8   ar
     6     8     9   ar
     7     9    10   ar
     8    10    11   ar
     9    11    12   ar
    10    12    13   ar
    11    13    14   ar
    12    14    15   ar
    13     4     1    1
    14     1    16    1
    15    16    17    1
    16    17    18    1
    17    17    20    1
    18    20    21    1
    19    21    22    1
    20    22    23   ar
    21    23    24   ar
    22    24    25   ar
    23    25    26   ar
    24    26    27   ar
    25    27    28    1
    26    28    29    3
    27    15     7   ar
    28    27    22   ar
    29    15    10   ar
    30     1     2    1
    31    18    19    1
@<TRIPOS>MOLECULE
*****
 29 31 0 0 0
SMALL
GASTEIGER

@<TRIPOS>ATOM
      1 N          -4.7524  -18.9233   21.0814 N.3     1  UNL1       -0.2972
      2 H          -4.9999  -18.0446   20.6264 H       1  UNL1        0.1233
      3 C          -6.3795  -18.4964   22.3736 C.3     1  UNL1        0.0161
      4 C          -6.0405  -19.6097   21.4272 C.3     1  UNL1        0.0461
      5 C          -5.7015  -20.7230   20.4809 C.3     1  UNL1        0.0161
      6 C          -7.3287  -20.2960   21.7732 C.3     1  UNL1        0.0413
      7 C          -8.6383  -19.6525   21.4254 C.ar    1  UNL1       -0.0139
      8 C          -9.1034  -19.2891   20.0464 C.ar    1  UNL1        0.0312
      9 S         -10.4652  -18.6715   20.1643 S.2     1  UNL1       -0.0868
     10 C         -10.8417  -18.6531   21.6162 C.ar    1  UNL1        0.0292
     11 C         -12.0669  -18.1625   22.3292 C.ar    1  UNL1        0.0065
     12 C         -12.1629  -18.2783   23.8216 C.ar    1  UNL1        0.0005
     13 C         -11.0337  -18.8846   24.6010 C.ar    1  UNL1        0.0000
     14 C          -9.8086  -19.3752   23.8880 C.ar    1  UNL1        0.0002
     15 C          -9.7126  -19.2594   22.3956 C.ar    1  UNL1        0.0026
     16 C          -3.7670  -18.5890   22.1617 C.3     1  UNL1        0.1020
     17 C          -3.3847  -17.1603   22.4123 C.3     1  UNL1        0.1697
     18 O          -2.4922  -16.4419   21.4441 O.3     1  UNL1       -0.3793
     19 H          -2.2548  -17.0400   20.7183 H       1  UNL1        0.2106
     20 C          -3.8950  -16.4501   23.6309 C.3     1  UNL1        0.2358
     21 O          -5.1287  -15.6014   23.5429 O.3     1  UNL1       -0.4721
     22 C          -6.1068  -15.5796   24.6799 C.ar    1  UNL1        0.1482
     23 C          -5.6110  -15.5389   26.0950 C.ar    1  UNL1        0.0376
     24 C          -6.5891  -15.5171   27.2321 C.ar    1  UNL1        0.0032
     25 C          -8.0630  -15.5360   26.9540 C.ar    1  UNL1        0.0009
     26 C          -8.5587  -15.5767   25.5389 C.ar    1  UNL1        0.0133
     27 C          -7.5806  -15.5985   24.4019 C.ar    1  UNL1        0.1023
     28 C          -8.0763  -15.6391   22.9868 C.1     1  UNL1        0.1035
     29 N          -8.5721  -15.6798   21.5717 N.1     1  UNL1       -0.1907
@<TRIPOS>BOND
     1     3     4    1
     2     4     5    1
     3     4     6    1
     4     6     7    1
     5     7     8   ar
     6     8     9   ar
     7     9    10   ar
     8    10    11   ar
     9    11    12   ar
    10    12    13   ar
    11    13    14   ar
    12    14    15   ar
    13     4     1    1
    14     1    16    1
    15    16    17    1
    16    17    18    1
    17    17    20    1
    18    20    21    1
    19    21    22    1
    20    22    23   ar
    21    23    24   ar
    22    24    25   ar
    23    25    26   ar
    24    26    27   ar
    25    27    28    1
    26    28    29    3
    27    15     7   ar
    28    27    22   ar
    29    15    10   ar
    30     1     2    1
    31    18    19    1
@<TRIPOS>MOLECULE
*****
 29 31 0 0 0
SMALL
GASTEIGER

@<TRIPOS>ATOM
      1 N          -6.1288  -18.5926   20.9400 N.3     1  UNL1       -0.2972
      2 H          -6.3355  -17.6051   21.0901 H       1  UNL1        0.1233
      3 C          -7.6228  -19.3501   19.6386 C.3     1  UNL1        0.0161
      4 C          -7.4175  -19.3376   21.1244 C.3     1  UNL1        0.0461
      5 C          -7.2122  -19.3253   22.6102 C.3     1  UNL1        0.0161
      6 C          -8.7063  -20.0828   21.3087 C.3     1  UNL1        0.0413
      7 C          -9.8015  -19.4913   22.1457 C.ar    1  UNL1       -0.0139
      8 C         -10.1534  -19.8913   23.5479 C.ar    1  UNL1        0.0312
      9 S         -11.3065  -19.0432   23.9962 S.2     1  UNL1       -0.0868
     10 C         -11.6672  -18.1189   22.8712 C.ar    1  UNL1        0.0292
     11 C         -12.7224  -17.0610   22.7404 C.ar    1  UNL1        0.0065
     12 C         -12.8475  -16.2799   21.4659 C.ar    1  UNL1        0.0005
     13 C         -11.9173  -16.5569   20.3222 C.ar    1  UNL1        0.0000
     14 C         -10.8621  -17.6149   20.4530 C.ar    1  UNL1        0.0002
     15 C         -10.7370  -18.3959   21.7275 C.ar    1  UNL1        0.0026
     16 C          -4.9427  -18.9218   21.7973 C.3     1  UNL1        0.1020
     17 C          -3.9971  -17.8362   22.2181 C.3     1  UNL1        0.1697
     18 O          -2.8988  -17.3987   21.2948 O.3     1  UNL1       -0.3793
     19 H          -2.9413  -17.9147   20.4745 H       1  UNL1        0.2106
     20 C          -4.1496  -17.1881   23.5622 C.3     1  UNL1        0.2358
     21 O          -4.8830  -15.8857   23.6880 O.3     1  UNL1       -0.4721
     22 C          -5.9308  -15.7141   24.7476 C.ar    1  UNL1        0.1482
     23 C          -5.5302  -15.6183   26.1899 C.ar    1  UNL1        0.0376
     24 C          -6.5780  -15.4468   27.2495 C.ar    1  UNL1        0.0032
     25 C          -8.0264  -15.3711   26.8667 C.ar    1  UNL1        0.0009
     26 C          -8.4269  -15.4669   25.4244 C.ar    1  UNL1        0.0133
     27 C          -7.3791  -15.6384   24.3648 C.ar    1  UNL1        0.1023
     28 C          -7.7796  -15.7343   22.9225 C.1     1  UNL1        0.1035
     29 N          -8.1802  -15.8301   21.4801 N.1     1  UNL1       -0.1907
@<TRIPOS>BOND
     1     3     4    1
     2     4     5    1
     3     4     6    1
     4     6     7    1
     5     7     8   ar
     6     8     9   ar
     7     9    10   ar
     8    10    11   ar
     9    11    12   ar
    10    12    13   ar
    11    13    14   ar
    12    14    15   ar
    13     4     1    1
    14     1    16    1
    15    16    17    1
    16    17    18    1
    17    17    20    1
    18    20    21    1
    19    21    22    1
    20    22    23   ar
    21    23    24   ar
    22    24    25   ar
    23    25    26   ar
    24    26    27   ar
    25    27    28    1
    26    28    29    3
    27    15     7   ar
    28    27    22   ar
    29    15    10   ar
    30     1     2    1
    31    18    19    1
@<TRIPOS>MOLECULE
*****
 29 31 0 0 0
SMALL
GASTEIGER

@<TRIPOS>ATOM
      1 N         -11.9051   -7.6719   18.8520 N.3     1  UNL1       -0.2972
      2 H         -12.5618   -7.6659   19.6325 H       1  UNL1        0.1233
      3 C          -9.8237   -7.3038   18.6736 C.3     1  UNL1        0.0161
      4 C         -11.0223   -6.4710   19.0196 C.3     1  UNL1        0.0461
      5 C         -12.2208   -5.6381   19.3657 C.3     1  UNL1        0.0161
      6 C         -10.1393   -5.2699   19.1873 C.3     1  UNL1        0.0413
      7 C          -9.9976   -4.2811   18.0683 C.ar    1  UNL1       -0.0139
      8 C          -9.1760   -4.4660   16.8271 C.ar    1  UNL1        0.0312
      9 S          -9.3234   -3.2329   15.9858 S.2     1  UNL1       -0.0868
     10 C         -10.2360   -2.2859   16.7071 C.ar    1  UNL1        0.0292
     11 C         -10.7414   -0.9175   16.3582 C.ar    1  UNL1        0.0065
     12 C         -11.6636   -0.1968   17.2964 C.ar    1  UNL1        0.0005
     13 C         -12.0803   -0.8446   18.5835 C.ar    1  UNL1        0.0000
     14 C         -11.5749   -2.2131   18.9324 C.ar    1  UNL1        0.0002
     15 C         -10.6527   -2.9338   17.9942 C.ar    1  UNL1        0.0026
     16 C         -12.7190   -7.8360   17.6027 C.3     1  UNL1        0.1020
     17 C         -14.1108   -8.3898   17.6816 C.3     1  UNL1        0.1697
     18 O         -14.5043   -9.2683   18.8320 O.3     1  UNL1       -0.3793
     19 H         -13.7478   -9.3771   19.4293 H       1  UNL1        0.2106
     20 C         -15.1091   -8.0649   16.6102 C.3     1  UNL1        0.2358
     21 O         -16.1970   -7.0672   16.8763 O.3     1  UNL1       -0.4721
     22 C         -15.9194   -5.8641   17.7281 C.ar    1  UNL1        0.1482
     23 C         -15.1879   -4.6889   17.1504 C.ar    1  UNL1        0.0376
     24 C         -14.9104   -3.4858   18.0022 C.ar    1  UNL1        0.0032
     25 C         -15.3643   -3.4579   19.4316 C.ar    1  UNL1        0.0009
     26 C         -16.0958   -4.6332   20.0092 C.ar    1  UNL1        0.0133
     27 C         -16.3734   -5.8362   19.1575 C.ar    1  UNL1        0.1023
     28 C         -17.1048   -7.0115   19.7350 C.1     1  UNL1        0.1035
     29 N         -17.8363   -8.1869   20.3125 N.1     1  UNL1       -0.1907
@<TRIPOS>BOND
     1     3     4    1
     2     4     5    1
     3     4     6    1
     4     6     7    1
     5     7     8   ar
     6     8     9   ar
     7     9    10   ar
     8    10    11   ar
     9    11    12   ar
    10    12    13   ar
    11    13    14   ar
    12    14    15   ar
    13     4     1    1
    14     1    16    1
    15    16    17    1
    16    17    18    1
    17    17    20    1
    18    20    21    1
    19    21    22    1
    20    22    23   ar
    21    23    24   ar
    22    24    25   ar
    23    25    26   ar
    24    26    27   ar
    25    27    28    1
    26    28    29    3
    27    15     7   ar
    28    27    22   ar
    29    15    10   ar
    30     1     2    1
    31    18    19    1
@<TRIPOS>MOLECULE
*****
 29 31 0 0 0
SMALL
GASTEIGER

@<TRIPOS>ATOM
      1 N         -10.3721   -6.9562   17.4620 N.3     1  UNL1       -0.2972
      2 H         -10.4036   -7.5230   18.3095 H       1  UNL1        0.1233
      3 C         -10.5805   -5.0462   16.5630 C.3     1  UNL1        0.0161
      4 C         -10.1031   -5.5454   17.8945 C.3     1  UNL1        0.0461
      5 C          -9.6257   -6.0444   19.2260 C.3     1  UNL1        0.0161
      6 C          -9.8341   -4.1344   18.3268 C.3     1  UNL1        0.0413
      7 C         -10.9746   -3.1805   18.5258 C.ar    1  UNL1       -0.0139
      8 C         -10.9977   -1.7369   18.1193 C.ar    1  UNL1        0.0312
      9 S         -12.3296   -1.1671   18.5085 S.2     1  UNL1       -0.0868
     10 C         -13.1295   -2.2586   19.1556 C.ar    1  UNL1        0.0292
     11 C         -14.5123   -2.2801   19.7365 C.ar    1  UNL1        0.0065
     12 C         -15.0576   -3.5461   20.3281 C.ar    1  UNL1        0.0005
     13 C         -14.2201   -4.7905   20.3388 C.ar    1  UNL1        0.0000
     14 C         -12.8373   -4.7689   19.7579 C.ar    1  UNL1        0.0002
     15 C         -12.2921   -3.5030   19.1663 C.ar    1  UNL1        0.0026
     16 C         -11.6111   -7.2777   16.6799 C.3     1  UNL1        0.1020
     17 C         -12.8496   -7.7354   17.3916 C.3     1  UNL1        0.1697
     18 O         -12.7926   -8.0793   18.8505 O.3     1  UNL1       -0.3793
     19 H         -11.8882   -7.9522   19.1775 H       1  UNL1        0.2106
     20 C         -14.1452   -7.8491   16.6443 C.3     1  UNL1        0.2358
     21 O         -15.2596   -8.6865   17.1983 O.3     1  UNL1       -0.4721
     22 C         -16.3084   -8.0590   18.0679 C.ar    1  UNL1        0.1482
     23 C         -16.5297   -6.5761   18.0246 C.ar    1  UNL1        0.0376
     24 C         -17.5785   -5.9486   18.8942 C.ar    1  UNL1        0.0032
     25 C         -18.4060   -6.8040   19.8072 C.ar    1  UNL1        0.0009
     26 C         -18.1847   -8.2869   19.8505 C.ar    1  UNL1        0.0133
     27 C         -17.1359   -8.9144   18.9809 C.ar    1  UNL1        0.1023
     28 C         -16.9145  -10.3973   19.0242 C.1     1  UNL1        0.1035
     29 N         -16.6931  -11.8803   19.0674 N.1     1  UNL1       -0.1907
@<TRIPOS>BOND
     1     3     4    1
     2     4     5    1
     3     4     6    1
     4     6     7    1
     5     7     8   ar
     6     8     9   ar
     7     9    10   ar
     8    10    11   ar
     9    11    12   ar
    10    12    13   ar
    11    13    14   ar
    12    14    15   ar
    13     4     1    1
    14     1    16    1
    15    16    17    1
    16    17    18    1
    17    17    20    1
    18    20    21    1
    19    21    22    1
    20    22    23   ar
    21    23    24   ar
    22    24    25   ar
    23    25    26   ar
    24    26    27   ar
    25    27    28    1
    26    28    29    3
    27    15     7   ar
    28    27    22   ar
    29    15    10   ar
    30     1     2    1
    31    18    19    1
@<TRIPOS>MOLECULE
*****
 29 31 0 0 0
SMALL
GASTEIGER

@<TRIPOS>ATOM
      1 N          -5.3158  -18.4562   21.5626 N.3     1  UNL1       -0.2972
      2 H          -5.7469  -17.5634   21.3227 H       1  UNL1        0.1233
      3 C          -5.7619  -20.3236   20.6607 C.3     1  UNL1        0.0161
      4 C          -6.4282  -19.4548   21.6859 C.3     1  UNL1        0.0461
      5 C          -7.0947  -18.5861   22.7112 C.3     1  UNL1        0.0161
      6 C          -7.5406  -20.4536   21.8091 C.3     1  UNL1        0.0413
      7 C          -8.8097  -20.0794   22.5159 C.ar    1  UNL1       -0.0139
      8 C          -9.1537  -20.4013   23.9400 C.ar    1  UNL1        0.0312
      9 S         -10.5141  -19.8384   24.2268 S.2     1  UNL1       -0.0868
     10 C         -11.0110  -19.1687   22.9799 C.ar    1  UNL1        0.0292
     11 C         -12.2865  -18.4424   22.6708 C.ar    1  UNL1        0.0065
     12 C         -12.5086  -17.8652   21.3043 C.ar    1  UNL1        0.0005
     13 C         -11.4552  -18.0141   20.2469 C.ar    1  UNL1        0.0000
     14 C         -10.1797  -18.7404   20.5560 C.ar    1  UNL1        0.0002
     15 C          -9.9576  -19.3176   21.9225 C.ar    1  UNL1        0.0026
     16 C          -4.4064  -18.1987   22.7274 C.3     1  UNL1        0.1020
     17 C          -3.9745  -16.7982   23.0465 C.3     1  UNL1        0.1697
     18 O          -2.8750  -16.1538   22.2554 O.3     1  UNL1       -0.3793
     19 H          -2.5550  -16.7741   21.5818 H       1  UNL1        0.2106
     20 C          -4.6421  -16.0420   24.1566 C.3     1  UNL1        0.2358
     21 O          -5.6217  -14.9515   23.8382 O.3     1  UNL1       -0.4721
     22 C          -7.0712  -15.2806   23.6369 C.ar    1  UNL1        0.1482
     23 C          -7.6573  -15.2726   22.2562 C.ar    1  UNL1        0.0376
     24 C          -9.1068  -15.6017   22.0548 C.ar    1  UNL1        0.0032
     25 C          -9.9702  -15.9388   23.2342 C.ar    1  UNL1        0.0009
     26 C          -9.3841  -15.9469   24.6149 C.ar    1  UNL1        0.0133
     27 C          -7.9346  -15.6178   24.8162 C.ar    1  UNL1        0.1023
     28 C          -7.3484  -15.6258   26.1969 C.1     1  UNL1        0.1035
     29 N          -6.7621  -15.6339   27.5775 N.1     1  UNL1       -0.1907
@<TRIPOS>BOND
     1     3     4    1
     2     4     5    1
     3     4     6    1
     4     6     7    1
     5     7     8   ar
     6     8     9   ar
     7     9    10   ar
     8    10    11   ar
     9    11    12   ar
    10    12    13   ar
    11    13    14   ar
    12    14    15   ar
    13     4     1    1
    14     1    16    1
    15    16    17    1
    16    17    18    1
    17    17    20    1
    18    20    21    1
    19    21    22    1
    20    22    23   ar
    21    23    24   ar
    22    24    25   ar
    23    25    26   ar
    24    26    27   ar
    25    27    28    1
    26    28    29    3
    27    15     7   ar
    28    27    22   ar
    29    15    10   ar
    30     1     2    1
    31    18    19    1
@<TRIPOS>MOLECULE
*****
 29 31 0 0 0
SMALL
GASTEIGER

@<TRIPOS>ATOM
      1 N         -10.9419   -7.7437   17.0374 N.3     1  UNL1       -0.2972
      2 H         -10.9139   -8.4298   17.7916 H       1  UNL1        0.1233
      3 C         -10.8607   -5.7294   16.3772 C.3     1  UNL1        0.0161
      4 C         -10.3816   -6.4676   17.5919 C.3     1  UNL1        0.0461
      5 C          -9.9025   -7.2057   18.8067 C.3     1  UNL1        0.0161
      6 C          -9.8213   -5.1913   18.1464 C.3     1  UNL1        0.0413
      7 C         -10.7373   -4.0485   18.4706 C.ar    1  UNL1       -0.0139
      8 C         -10.5034   -2.6069   18.1287 C.ar    1  UNL1        0.0312
      9 S         -11.6695   -1.8142   18.6404 S.2     1  UNL1       -0.0868
     10 C         -12.6241   -2.7659   19.2985 C.ar    1  UNL1        0.0292
     11 C         -13.9434   -2.5535   19.9797 C.ar    1  UNL1        0.0065
     12 C         -14.6866   -3.7220   20.5560 C.ar    1  UNL1        0.0005
     13 C         -14.1104   -5.1030   20.4510 C.ar    1  UNL1        0.0000
     14 C         -12.7911   -5.3154   19.7698 C.ar    1  UNL1        0.0002
     15 C         -12.0479   -4.1469   19.1935 C.ar    1  UNL1        0.0026
     16 C         -12.3336   -7.7714   16.4783 C.3     1  UNL1        0.1020
     17 C         -13.5094   -7.9055   17.3999 C.3     1  UNL1        0.1697
     18 O         -13.3288   -8.5017   18.7644 O.3     1  UNL1       -0.3793
     19 H         -12.3984   -8.7456   18.8901 H       1  UNL1        0.2106
     20 C         -14.8660   -7.4434   16.9569 C.3     1  UNL1        0.2358
     21 O         -15.7505   -6.6933   17.9082 O.3     1  UNL1       -0.4721
     22 C         -16.8415   -7.4130   18.6441 C.ar    1  UNL1        0.1482
     23 C         -16.8220   -8.9100   18.7374 C.ar    1  UNL1        0.0376
     24 C         -17.9130   -9.6298   19.4733 C.ar    1  UNL1        0.0032
     25 C         -19.0235   -8.8526   20.1159 C.ar    1  UNL1        0.0009
     26 C         -19.0429   -7.3557   20.0226 C.ar    1  UNL1        0.0133
     27 C         -17.9519   -6.6359   19.2867 C.ar    1  UNL1        0.1023
     28 C         -17.9713   -5.1390   19.1933 C.1     1  UNL1        0.1035
     29 N         -17.9907   -3.6420   19.1000 N.1     1  UNL1       -0.1907
@<TRIPOS>BOND
     1     3     4    1
     2     4     5    1
     3     4     6    1
     4     6     7    1
     5     7     8   ar
     6     8     9   ar
     7     9    10   ar
     8    10    11   ar
     9    11    12   ar
    10    12    13   ar
    11    13    14   ar
    12    14    15   ar
    13     4     1    1
    14     1    16    1
    15    16    17    1
    16    17    18    1
    17    17    20    1
    18    20    21    1
    19    21    22    1
    20    22    23   ar
    21    23    24   ar
    22    24    25   ar
    23    25    26   ar
    24    26    27   ar
    25    27    28    1
    26    28    29    3
    27    15     7   ar
    28    27    22   ar
    29    15    10   ar
    30     1     2    1
    31    18    19    1
@<TRIPOS>MOLECULE
*****
 29 31 0 0 0
SMALL
GASTEIGER

@<TRIPOS>ATOM
      1 N         -12.9631   -8.4111   17.7724 N.3     1  UNL1       -0.2972
      2 H         -12.8789   -9.4214   17.6606 H       1  UNL1        0.1233
      3 C         -14.8856   -8.7100   18.6176 C.3     1  UNL1        0.0161
      4 C         -14.3636   -8.0469   17.3775 C.3     1  UNL1        0.0461
      5 C         -13.8416   -7.3838   16.1374 C.3     1  UNL1        0.0161
      6 C         -15.7642   -7.6828   16.9827 C.3     1  UNL1        0.0413
      7 C         -16.5177   -6.6461   17.7622 C.ar    1  UNL1       -0.0139
      8 C         -17.6025   -6.9118   18.7634 C.ar    1  UNL1        0.0312
      9 S         -18.0739   -5.5916   19.2973 S.2     1  UNL1       -0.0868
     10 C         -17.2803   -4.5101   18.6261 C.ar    1  UNL1        0.0292
     11 C         -17.3092   -3.0161   18.7562 C.ar    1  UNL1        0.0065
     12 C         -16.3763   -2.1738   17.9376 C.ar    1  UNL1        0.0005
     13 C         -15.4145   -2.8255   16.9888 C.ar    1  UNL1        0.0000
     14 C         -15.3856   -4.3195   16.8587 C.ar    1  UNL1        0.0002
     15 C         -16.3185   -5.1618   17.6773 C.ar    1  UNL1        0.0026
     16 C         -11.7978   -7.7975   17.0543 C.3     1  UNL1        0.1020
     17 C         -10.5230   -7.5191   17.7942 C.3     1  UNL1        0.1697
     18 O          -9.5756   -8.6400   18.1041 O.3     1  UNL1       -0.3793
     19 H          -9.9353   -9.4722   17.7590 H       1  UNL1        0.2106
     20 C         -10.1957   -6.1199   18.2243 C.3     1  UNL1        0.2358
     21 O         -11.0953   -4.9852   17.8332 O.3     1  UNL1       -0.4721
     22 C         -12.1164   -4.4689   18.8031 C.ar    1  UNL1        0.1482
     23 C         -12.9614   -5.4303   19.5851 C.ar    1  UNL1        0.0376
     24 C         -13.9825   -4.9140   20.5550 C.ar    1  UNL1        0.0032
     25 C         -14.1586   -3.4363   20.7429 C.ar    1  UNL1        0.0009
     26 C         -13.3136   -2.4748   19.9609 C.ar    1  UNL1        0.0133
     27 C         -12.2925   -2.9911   18.9910 C.ar    1  UNL1        0.1023
     28 C         -11.4474   -2.0298   18.2090 C.1     1  UNL1        0.1035
     29 N         -10.6023   -1.0684   17.4270 N.1     1  UNL1       -0.1907
@<TRIPOS>BOND
     1     3     4    1
     2     4     5    1
     3     4     6    1
     4     6     7    1
     5     7     8   ar
     6     8     9   ar
     7     9    10   ar
     8    10    11   ar
     9    11    12   ar
    10    12    13   ar
    11    13    14   ar
    12    14    15   ar
    13     4     1    1
    14     1    16    1
    15    16    17    1
    16    17    18    1
    17    17    20    1
    18    20    21    1
    19    21    22    1
    20    22    23   ar
    21    23    24   ar
    22    24    25   ar
    23    25    26   ar
    24    26    27   ar
    25    27    28    1
    26    28    29    3
    27    15     7   ar
    28    27    22   ar
    29    15    10   ar
    30     1     2    1
    31    18    19    1
@<TRIPOS>MOLECULE
*****
 29 31 0 0 0
SMALL
GASTEIGER

@<TRIPOS>ATOM
      1 N         -16.8181   -8.0662   17.7350 N.3     1  UNL1       -0.2972
      2 H         -17.3782   -8.2618   16.9052 H       1  UNL1        0.1233
      3 C         -17.4882   -6.1242   17.2064 C.3     1  UNL1        0.0161
      4 C         -17.4985   -6.9445   18.4621 C.3     1  UNL1        0.0461
      5 C         -17.5087   -7.7647   19.7179 C.3     1  UNL1        0.0161
      6 C         -18.1789   -5.8227   19.1893 C.3     1  UNL1        0.0413
      7 C         -17.4979   -4.4927   19.3220 C.ar    1  UNL1       -0.0139
      8 C         -18.1226   -3.1530   19.0671 C.ar    1  UNL1        0.0312
      9 S         -17.0834   -2.1014   19.3205 S.2     1  UNL1       -0.0868
     10 C         -15.8165   -2.7912   19.7319 C.ar    1  UNL1        0.0292
     11 C         -14.4628   -2.2644   20.1059 C.ar    1  UNL1        0.0065
     12 C         -13.3653   -3.2156   20.4807 C.ar    1  UNL1        0.0005
     13 C         -13.6215   -4.6936   20.4817 C.ar    1  UNL1        0.0000
     14 C         -14.9752   -5.2203   20.1077 C.ar    1  UNL1        0.0002
     15 C         -16.0727   -4.2691   19.7329 C.ar    1  UNL1        0.0026
     16 C         -15.3997   -7.9092   17.2728 C.3     1  UNL1        0.1020
     17 C         -14.2709   -8.3709   18.1461 C.3     1  UNL1        0.1697
     18 O         -14.4642   -9.5396   19.0663 O.3     1  UNL1       -0.3793
     19 H         -15.3685   -9.8780   18.9737 H       1  UNL1        0.2106
     20 C         -12.9489   -7.6638   18.0993 C.3     1  UNL1        0.2358
     21 O         -12.6393   -6.7262   16.9701 O.3     1  UNL1       -0.4721
     22 C         -11.9979   -5.3997   17.2510 C.ar    1  UNL1        0.1482
     23 C         -12.7122   -4.1303   16.8924 C.ar    1  UNL1        0.0376
     24 C         -12.0708   -2.8038   17.1733 C.ar    1  UNL1        0.0032
     25 C         -10.7152   -2.7466   17.8128 C.ar    1  UNL1        0.0009
     26 C         -10.0009   -4.0159   18.1715 C.ar    1  UNL1        0.0133
     27 C         -10.6423   -5.3425   17.8906 C.ar    1  UNL1        0.1023
     28 C          -9.9282   -6.6118   18.2492 C.1     1  UNL1        0.1035
     29 N          -9.2140   -7.8812   18.6077 N.1     1  UNL1       -0.1907
@<TRIPOS>BOND
     1     3     4    1
     2     4     5    1
     3     4     6    1
     4     6     7    1
     5     7     8   ar
     6     8     9   ar
     7     9    10   ar
     8    10    11   ar
     9    11    12   ar
    10    12    13   ar
    11    13    14   ar
    12    14    15   ar
    13     4     1    1
    14     1    16    1
    15    16    17    1
    16    17    18    1
    17    17    20    1
    18    20    21    1
    19    21    22    1
    20    22    23   ar
    21    23    24   ar
    22    24    25   ar
    23    25    26   ar
    24    26    27   ar
    25    27    28    1
    26    28    29    3
    27    15     7   ar
    28    27    22   ar
    29    15    10   ar
    30     1     2    1
    31    18    19    1
