@<TRIPOS>MOLECULE
*****
 23 24 0 0 0
SMALL
GASTEIGER

@<TRIPOS>ATOM
      1 C          -3.0003  -18.8626   21.2722 C.ar    1  UNL1        0.2059
      2 C          -4.0363  -18.9296   22.3547 C.ar    1  UNL1        0.1754
      3 C          -5.4718  -19.1877   22.0041 C.ar    1  UNL1        0.0403
      4 C          -5.8711  -19.3789   20.5710 C.ar    1  UNL1        0.0063
      5 C          -4.8350  -19.3119   19.4884 C.ar    1  UNL1        0.0403
      6 C          -3.3996  -19.0538   19.8390 C.ar    1  UNL1        0.1754
      7 O          -3.6370  -18.7385   23.7880 O.3     1  UNL1       -0.4683
      8 C          -3.8998  -17.4295   24.4716 C.3     1  UNL1        0.2526
      9 C          -7.3066  -19.6370   20.2204 C.2     1  UNL1        0.0035
     10 C          -8.4010  -18.9865   21.0136 C.2     1  UNL1        0.0420
     11 C          -9.8364  -19.2446   20.6630 C.2     1  UNL1        0.1957
     12 O         -10.1807  -19.9601   19.3904 O.2     1  UNL1       -0.2866
     13 C         -10.9276  -18.7872   21.5851 C.ar    1  UNL1        0.0420
     14 C         -10.8550  -19.1058   23.0490 C.ar    1  UNL1        0.0239
     15 C         -11.9462  -18.6484   23.9711 C.ar    1  UNL1        0.0990
     16 N         -13.1099  -17.8724   23.4292 N.ar    1  UNL1       -0.2423
     17 C         -13.1824  -17.5539   21.9651 C.ar    1  UNL1        0.0990
     18 C         -12.0913  -18.0113   21.0431 C.ar    1  UNL1        0.0239
     19 O          -2.3635  -18.9868   18.7564 O.3     1  UNL1       -0.4683
     20 C          -1.9488  -17.6585   18.1963 C.3     1  UNL1        0.2526
     21 O          -1.5648  -18.6045   21.6227 O.3     1  UNL1       -0.4695
     22 C          -1.8790  -16.0256   21.6070 C.3     1  UNL1        0.0512
     23 C          -0.9914  -17.2270   21.4696 C.3     1  UNL1        0.2058
@<TRIPOS>BOND
     1    22    23    1
     2    23    21    1
     3    21     1    1
     4     1     2   ar
     5     2     7    1
     6     7     8    1
     7     2     3   ar
     8     3     4   ar
     9     4     9    1
    10     9    10    2
    11    10    11    1
    12    11    12    2
    13    11    13    1
    14    13    14   ar
    15    14    15   ar
    16    15    16   ar
    17    16    17   ar
    18    17    18   ar
    19     4     5   ar
    20     5     6   ar
    21     6    19    1
    22    19    20    1
    23     6     1   ar
    24    18    13   ar
@<TRIPOS>MOLECULE
*****
 23 24 0 0 0
SMALL
GASTEIGER

@<TRIPOS>ATOM
      1 C          -3.0577  -18.8124   21.3231 C.ar    1  UNL1        0.2059
      2 C          -3.4954  -19.0467   19.9077 C.ar    1  UNL1        0.1754
      3 C          -4.9395  -19.3155   19.6039 C.ar    1  UNL1        0.0403
      4 C          -5.9459  -19.3500   20.7156 C.ar    1  UNL1        0.0063
      5 C          -5.5083  -19.1157   22.1310 C.ar    1  UNL1        0.0403
      6 C          -4.0641  -18.8469   22.4348 C.ar    1  UNL1        0.1754
      7 O          -2.4890  -19.0122   18.7959 O.3     1  UNL1       -0.4683
      8 C          -2.0422  -17.6972   18.2293 C.3     1  UNL1        0.2526
      9 C          -7.3901  -19.6188   20.4118 C.2     1  UNL1        0.0035
     10 C          -8.4604  -18.8041   21.0756 C.2     1  UNL1        0.0420
     11 C          -9.9045  -19.0729   20.7719 C.2     1  UNL1        0.1957
     12 O         -10.2956  -19.6624   19.4492 O.2     1  UNL1       -0.2866
     13 C         -10.9575  -18.7522   21.7909 C.ar    1  UNL1        0.0420
     14 C         -10.7709  -19.1701   23.2193 C.ar    1  UNL1        0.0239
     15 C         -11.8240  -18.8494   24.2383 C.ar    1  UNL1        0.0990
     16 N         -13.0636  -18.1108   23.8288 N.ar    1  UNL1       -0.2423
     17 C         -13.2502  -17.6929   22.4003 C.ar    1  UNL1        0.0990
     18 C         -12.1972  -18.0136   21.3814 C.ar    1  UNL1        0.0239
     19 O          -3.6265  -18.6126   23.8503 O.3     1  UNL1       -0.4683
     20 C          -4.0255  -17.3528   24.5599 C.3     1  UNL1        0.2526
     21 O          -1.6136  -18.5436   21.6269 O.3     1  UNL1       -0.4695
     22 C          -2.0111  -15.9777   21.7184 C.3     1  UNL1        0.0512
     23 C          -1.0806  -17.1432   21.5574 C.3     1  UNL1        0.2058
@<TRIPOS>BOND
     1    22    23    1
     2    23    21    1
     3    21     1    1
     4     1     2   ar
     5     2     7    1
     6     7     8    1
     7     2     3   ar
     8     3     4   ar
     9     4     9    1
    10     9    10    2
    11    10    11    1
    12    11    12    2
    13    11    13    1
    14    13    14   ar
    15    14    15   ar
    16    15    16   ar
    17    16    17   ar
    18    17    18   ar
    19     4     5   ar
    20     5     6   ar
    21     6    19    1
    22    19    20    1
    23     6     1   ar
    24    18    13   ar
@<TRIPOS>MOLECULE
*****
 23 24 0 0 0
SMALL
GASTEIGER

@<TRIPOS>ATOM
      1 C          -3.7169  -17.7982   22.4501 C.ar    1  UNL1        0.2059
      2 C          -4.8198  -17.1237   23.2107 C.ar    1  UNL1        0.1754
      3 C          -6.2317  -17.6117   23.0752 C.ar    1  UNL1        0.0403
      4 C          -6.5407  -18.7741   22.1790 C.ar    1  UNL1        0.0063
      5 C          -5.4378  -19.4486   21.4183 C.ar    1  UNL1        0.0403
      6 C          -4.0259  -18.9606   21.5539 C.ar    1  UNL1        0.1754
      7 O          -4.5108  -15.9612   24.1070 O.3     1  UNL1       -0.4683
      8 C          -5.5612  -15.4318   25.0377 C.3     1  UNL1        0.2526
      9 C          -7.9526  -19.2621   22.0434 C.2     1  UNL1        0.0035
     10 C          -8.9648  -18.4346   21.3081 C.2     1  UNL1        0.0420
     11 C         -10.3767  -18.9225   21.1725 C.2     1  UNL1        0.1957
     12 O         -10.8058  -19.6406   19.9275 O.2     1  UNL1       -0.2866
     13 C         -11.3596  -18.6924   22.2821 C.ar    1  UNL1        0.0420
     14 C         -12.6084  -17.9020   22.0260 C.ar    1  UNL1        0.0239
     15 C         -13.5912  -17.6719   23.1356 C.ar    1  UNL1        0.0990
     16 N         -13.3252  -18.2322   24.5013 N.ar    1  UNL1       -0.2423
     17 C         -12.0762  -19.0226   24.7575 C.ar    1  UNL1        0.0990
     18 C         -11.0935  -19.2527   23.6479 C.ar    1  UNL1        0.0239
     19 O          -2.9230  -19.6352   20.7932 O.3     1  UNL1       -0.4683
     20 C          -2.9431  -19.6445   19.2933 C.3     1  UNL1        0.2526
     21 O          -2.3049  -17.3102   22.5856 O.3     1  UNL1       -0.4695
     22 C          -0.9783  -16.7673   20.4188 C.3     1  UNL1        0.0512
     23 C          -1.7615  -16.3067   21.6122 C.3     1  UNL1        0.2058
@<TRIPOS>BOND
     1    22    23    1
     2    23    21    1
     3    21     1    1
     4     1     2   ar
     5     2     7    1
     6     7     8    1
     7     2     3   ar
     8     3     4   ar
     9     4     9    1
    10     9    10    2
    11    10    11    1
    12    11    12    2
    13    11    13    1
    14    13    14   ar
    15    14    15   ar
    16    15    16   ar
    17    16    17   ar
    18    17    18   ar
    19     4     5   ar
    20     5     6   ar
    21     6    19    1
    22    19    20    1
    23     6     1   ar
    24    18    13   ar
@<TRIPOS>MOLECULE
*****
 23 24 0 0 0
SMALL
GASTEIGER

@<TRIPOS>ATOM
      1 C          -4.1593  -17.9141   22.6594 C.ar    1  UNL1        0.2059
      2 C          -4.5985  -19.0912   21.8401 C.ar    1  UNL1        0.1754
      3 C          -6.0602  -19.3611   21.6382 C.ar    1  UNL1        0.0403
      4 C          -7.0826  -18.4538   22.2557 C.ar    1  UNL1        0.0063
      5 C          -6.6435  -17.2767   23.0751 C.ar    1  UNL1        0.0403
      6 C          -5.1818  -17.0068   23.2770 C.ar    1  UNL1        0.1754
      7 O          -3.5760  -19.9986   21.2225 O.3     1  UNL1       -0.4683
      8 C          -3.5929  -20.2512   19.7440 C.3     1  UNL1        0.2526
      9 C          -8.5443  -18.7237   22.0539 C.2     1  UNL1        0.0035
     10 C          -9.4847  -17.5893   21.7732 C.2     1  UNL1        0.0420
     11 C         -10.9463  -17.8592   21.5714 C.2     1  UNL1        0.1957
     12 O         -11.5181  -17.8942   20.1851 O.2     1  UNL1       -0.2866
     13 C         -11.8362  -18.0940   22.7559 C.ar    1  UNL1        0.0420
     14 C         -13.2825  -17.7005   22.6971 C.ar    1  UNL1        0.0239
     15 C         -14.1724  -17.9353   23.8817 C.ar    1  UNL1        0.0990
     16 N         -13.6159  -18.5636   25.1249 N.ar    1  UNL1       -0.2423
     17 C         -12.1696  -18.9570   25.1836 C.ar    1  UNL1        0.0990
     18 C         -11.2798  -18.7222   23.9992 C.ar    1  UNL1        0.0239
     19 O          -4.7426  -15.8296   24.0964 O.3     1  UNL1       -0.4683
     20 C          -5.4367  -15.5143   25.3883 C.3     1  UNL1        0.2526
     21 O          -2.6977  -17.6442   22.8613 O.3     1  UNL1       -0.4695
     22 C          -1.6888  -16.9959   20.5566 C.3     1  UNL1        0.0512
     23 C          -1.9900  -16.6532   21.9855 C.3     1  UNL1        0.2058
@<TRIPOS>BOND
     1    22    23    1
     2    23    21    1
     3    21     1    1
     4     1     2   ar
     5     2     7    1
     6     7     8    1
     7     2     3   ar
     8     3     4   ar
     9     4     9    1
    10     9    10    2
    11    10    11    1
    12    11    12    2
    13    11    13    1
    14    13    14   ar
    15    14    15   ar
    16    15    16   ar
    17    16    17   ar
    18    17    18   ar
    19     4     5   ar
    20     5     6   ar
    21     6    19    1
    22    19    20    1
    23     6     1   ar
    24    18    13   ar
@<TRIPOS>MOLECULE
*****
 23 24 0 0 0
SMALL
GASTEIGER

@<TRIPOS>ATOM
      1 C          -3.4443  -19.1906   21.4539 C.ar    1  UNL1        0.2059
      2 C          -4.6366  -19.9841   21.0083 C.ar    1  UNL1        0.1754
      3 C          -6.0121  -19.5860   21.4551 C.ar    1  UNL1        0.0403
      4 C          -6.1952  -18.3944   22.3475 C.ar    1  UNL1        0.0063
      5 C          -5.0029  -17.6009   22.7932 C.ar    1  UNL1        0.0403
      6 C          -3.6274  -17.9990   22.3464 C.ar    1  UNL1        0.1754
      7 O          -4.4535  -21.1757   20.1157 O.3     1  UNL1       -0.4683
      8 C          -5.6485  -21.9487   19.6422 C.3     1  UNL1        0.2526
      9 C          -7.5707  -17.9963   22.7943 C.2     1  UNL1        0.0035
     10 C          -7.8427  -16.5825   23.2150 C.2     1  UNL1        0.0420
     11 C          -9.2182  -16.1844   23.6618 C.2     1  UNL1        0.1957
     12 O          -9.3992  -15.4142   24.9362 O.2     1  UNL1       -0.2866
     13 C         -10.4126  -16.5565   22.8342 C.ar    1  UNL1        0.0420
     14 C         -10.5596  -16.0146   21.4433 C.ar    1  UNL1        0.0239
     15 C         -11.7540  -16.3867   20.6156 C.ar    1  UNL1        0.0990
     16 N         -12.8015  -17.3008   21.1790 N.ar    1  UNL1       -0.2423
     17 C         -12.6545  -17.8427   22.5700 C.ar    1  UNL1        0.0990
     18 C         -11.4601  -17.4706   23.3975 C.ar    1  UNL1        0.0239
     19 O          -2.4350  -17.2054   22.7921 O.3     1  UNL1       -0.4683
     20 C          -1.9762  -16.0254   21.9878 C.3     1  UNL1        0.2526
     21 O          -2.0688  -19.5887   21.0072 O.3     1  UNL1       -0.4695
     22 C          -2.1492  -18.1101   18.8724 C.3     1  UNL1        0.0512
     23 C          -1.3616  -18.7888   19.9536 C.3     1  UNL1        0.2058
@<TRIPOS>BOND
     1    22    23    1
     2    23    21    1
     3    21     1    1
     4     1     2   ar
     5     2     7    1
     6     7     8    1
     7     2     3   ar
     8     3     4   ar
     9     4     9    1
    10     9    10    2
    11    10    11    1
    12    11    12    2
    13    11    13    1
    14    13    14   ar
    15    14    15   ar
    16    15    16   ar
    17    16    17   ar
    18    17    18   ar
    19     4     5   ar
    20     5     6   ar
    21     6    19    1
    22    19    20    1
    23     6     1   ar
    24    18    13   ar
@<TRIPOS>MOLECULE
*****
 23 24 0 0 0
SMALL
GASTEIGER

@<TRIPOS>ATOM
      1 C          -3.3472  -19.1003   21.4753 C.ar    1  UNL1        0.2059
      2 C          -3.5744  -17.9098   22.3591 C.ar    1  UNL1        0.1754
      3 C          -4.9651  -17.5526   22.7932 C.ar    1  UNL1        0.0403
      4 C          -6.1285  -18.3858   22.3435 C.ar    1  UNL1        0.0063
      5 C          -5.9012  -19.5762   21.4597 C.ar    1  UNL1        0.0403
      6 C          -4.5106  -19.9335   21.0256 C.ar    1  UNL1        0.1754
      7 O          -2.4110  -17.0766   22.8088 O.3     1  UNL1       -0.4683
      8 C          -1.9200  -15.9487   21.9505 C.3     1  UNL1        0.2526
      9 C          -7.5191  -18.0285   22.7776 C.2     1  UNL1        0.0035
     10 C          -8.5400  -19.1074   22.9869 C.2     1  UNL1        0.0420
     11 C          -9.9306  -18.7502   23.4210 C.2     1  UNL1        0.1957
     12 O         -10.4215  -19.1605   24.7777 O.2     1  UNL1       -0.2866
     13 C         -10.8304  -17.9825   22.4984 C.ar    1  UNL1        0.0420
     14 C         -11.7568  -16.9398   23.0500 C.ar    1  UNL1        0.0239
     15 C         -12.6566  -16.1721   22.1274 C.ar    1  UNL1        0.0990
     16 N         -12.6299  -16.4473   20.6531 N.ar    1  UNL1       -0.2423
     17 C         -11.7034  -17.4901   20.1014 C.ar    1  UNL1        0.0990
     18 C         -10.8037  -18.2577   21.0241 C.ar    1  UNL1        0.0239
     19 O          -4.2833  -21.1240   20.1418 O.3     1  UNL1       -0.4683
     20 C          -5.4526  -21.9107   19.6280 C.3     1  UNL1        0.2526
     21 O          -1.9565  -19.4575   21.0412 O.3     1  UNL1       -0.4695
     22 C          -2.1283  -18.0500   18.8642 C.3     1  UNL1        0.0512
     23 C          -1.2954  -18.6894   19.9354 C.3     1  UNL1        0.2058
@<TRIPOS>BOND
     1    22    23    1
     2    23    21    1
     3    21     1    1
     4     1     2   ar
     5     2     7    1
     6     7     8    1
     7     2     3   ar
     8     3     4   ar
     9     4     9    1
    10     9    10    2
    11    10    11    1
    12    11    12    2
    13    11    13    1
    14    13    14   ar
    15    14    15   ar
    16    15    16   ar
    17    16    17   ar
    18    17    18   ar
    19     4     5   ar
    20     5     6   ar
    21     6    19    1
    22    19    20    1
    23     6     1   ar
    24    18    13   ar
@<TRIPOS>MOLECULE
*****
 23 24 0 0 0
SMALL
GASTEIGER

@<TRIPOS>ATOM
      1 C          -4.0149  -18.0034   22.8930 C.ar    1  UNL1        0.2059
      2 C          -4.5222  -19.0120   21.9055 C.ar    1  UNL1        0.1754
      3 C          -5.9865  -19.0795   21.5873 C.ar    1  UNL1        0.0403
      4 C          -6.9436  -18.1384   22.2568 C.ar    1  UNL1        0.0063
      5 C          -6.4364  -17.1298   23.2444 C.ar    1  UNL1        0.0403
      6 C          -4.9720  -17.0623   23.5625 C.ar    1  UNL1        0.1754
      7 O          -3.5650  -19.9532   21.2359 O.3     1  UNL1       -0.4683
      8 C          -3.4529  -19.9704   19.7402 C.3     1  UNL1        0.2526
      9 C          -8.4079  -18.2059   21.9387 C.2     1  UNL1        0.0035
     10 C          -9.1634  -19.4842   22.1512 C.2     1  UNL1        0.0420
     11 C         -10.6277  -19.5517   21.8331 C.2     1  UNL1        0.1957
     12 O         -11.3906  -20.8198   22.0775 O.2     1  UNL1       -0.2866
     13 C         -11.3291  -18.3510   21.2705 C.ar    1  UNL1        0.0420
     14 C         -11.0805  -17.9337   19.8514 C.ar    1  UNL1        0.0239
     15 C         -11.7819  -16.7330   19.2888 C.ar    1  UNL1        0.0990
     16 N         -12.7320  -15.9497   20.1454 N.ar    1  UNL1       -0.2423
     17 C         -12.9806  -16.3671   21.5646 C.ar    1  UNL1        0.0990
     18 C         -12.2792  -17.5677   22.1271 C.ar    1  UNL1        0.0239
     19 O          -4.4648  -16.0536   24.5502 O.3     1  UNL1       -0.4683
     20 C          -5.4097  -15.4210   25.5284 C.3     1  UNL1        0.2526
     21 O          -2.5506  -17.9359   23.2111 O.3     1  UNL1       -0.4695
     22 C          -1.8702  -16.2845   21.3244 C.3     1  UNL1        0.0512
     23 C          -1.5747  -17.4936   22.1614 C.3     1  UNL1        0.2058
@<TRIPOS>BOND
     1    22    23    1
     2    23    21    1
     3    21     1    1
     4     1     2   ar
     5     2     7    1
     6     7     8    1
     7     2     3   ar
     8     3     4   ar
     9     4     9    1
    10     9    10    2
    11    10    11    1
    12    11    12    2
    13    11    13    1
    14    13    14   ar
    15    14    15   ar
    16    15    16   ar
    17    16    17   ar
    18    17    18   ar
    19     4     5   ar
    20     5     6   ar
    21     6    19    1
    22    19    20    1
    23     6     1   ar
    24    18    13   ar
@<TRIPOS>MOLECULE
*****
 23 24 0 0 0
SMALL
GASTEIGER

@<TRIPOS>ATOM
      1 C         -12.4133   -3.1592   19.2366 C.ar    1  UNL1        0.2059
      2 C         -11.6070   -4.4119   19.0623 C.ar    1  UNL1        0.1754
      3 C         -12.2955   -5.7423   18.9844 C.ar    1  UNL1        0.0403
      4 C         -13.7903   -5.8199   19.0810 C.ar    1  UNL1        0.0063
      5 C         -14.5967   -4.5672   19.2554 C.ar    1  UNL1        0.0403
      6 C         -13.9081   -3.2368   19.3332 C.ar    1  UNL1        0.1754
      7 O         -10.1120   -4.3344   18.9657 O.3     1  UNL1       -0.4683
      8 C          -9.2953   -5.5923   18.9484 C.3     1  UNL1        0.2526
      9 C         -14.4789   -7.1503   19.0032 C.2     1  UNL1        0.0035
     10 C         -15.8845   -7.2978   19.5055 C.2     1  UNL1        0.0420
     11 C         -16.5730   -8.6282   19.4277 C.2     1  UNL1        0.1957
     12 O         -16.3062   -9.6729   20.4704 O.2     1  UNL1       -0.2866
     13 C         -17.5285   -8.9138   18.3071 C.ar    1  UNL1        0.0420
     14 C         -17.6430   -7.9577   17.1570 C.ar    1  UNL1        0.0239
     15 C         -18.5984   -8.2433   16.0364 C.ar    1  UNL1        0.0990
     16 N         -19.4393   -9.4851   16.0660 N.ar    1  UNL1       -0.2423
     17 C         -19.3247  -10.4412   17.2161 C.ar    1  UNL1        0.0990
     18 C         -18.3693  -10.1556   18.3366 C.ar    1  UNL1        0.0239
     19 O         -14.7145   -1.9840   19.5076 O.3     1  UNL1       -0.4683
     20 C         -15.7238   -1.5912   18.4698 C.3     1  UNL1        0.2526
     21 O         -11.7248   -1.8288   19.3144 O.3     1  UNL1       -0.4695
     22 C         -11.9279    0.0198   17.5003 C.3     1  UNL1        0.0512
     23 C         -11.2157   -1.1736   18.0649 C.3     1  UNL1        0.2058
@<TRIPOS>BOND
     1    22    23    1
     2    23    21    1
     3    21     1    1
     4     1     2   ar
     5     2     7    1
     6     7     8    1
     7     2     3   ar
     8     3     4   ar
     9     4     9    1
    10     9    10    2
    11    10    11    1
    12    11    12    2
    13    11    13    1
    14    13    14   ar
    15    14    15   ar
    16    15    16   ar
    17    16    17   ar
    18    17    18   ar
    19     4     5   ar
    20     5     6   ar
    21     6    19    1
    22    19    20    1
    23     6     1   ar
    24    18    13   ar
@<TRIPOS>MOLECULE
*****
 23 24 0 0 0
SMALL
GASTEIGER

@<TRIPOS>ATOM
      1 C          -4.2428  -19.2568   21.6212 C.ar    1  UNL1        0.2059
      2 C          -4.3794  -18.1124   22.5812 C.ar    1  UNL1        0.1754
      3 C          -5.7289  -17.5146   22.8483 C.ar    1  UNL1        0.0403
      4 C          -6.9418  -18.0611   22.1554 C.ar    1  UNL1        0.0063
      5 C          -6.8052  -19.2055   21.1954 C.ar    1  UNL1        0.0403
      6 C          -5.4557  -19.8033   20.9283 C.ar    1  UNL1        0.1754
      7 O          -3.1665  -17.5658   23.2741 O.3     1  UNL1       -0.4683
      8 C          -2.2468  -16.6289   22.5488 C.3     1  UNL1        0.2526
      9 C          -8.2913  -17.4632   22.4226 C.2     1  UNL1        0.0035
     10 C          -9.3968  -17.6300   21.4225 C.2     1  UNL1        0.0420
     11 C         -10.7463  -17.0321   21.6897 C.2     1  UNL1        0.1957
     12 O         -11.2347  -15.8820   20.8598 O.2     1  UNL1       -0.2866
     13 C         -11.6075  -17.5844   22.7867 C.ar    1  UNL1        0.0420
     14 C         -11.0010  -18.4454   23.8548 C.ar    1  UNL1        0.0239
     15 C         -11.8622  -18.9977   24.9518 C.ar    1  UNL1        0.0990
     16 N         -13.3298  -18.6890   24.9806 N.ar    1  UNL1       -0.2423
     17 C         -13.9363  -17.8280   23.9124 C.ar    1  UNL1        0.0990
     18 C         -13.0751  -17.2757   22.8155 C.ar    1  UNL1        0.0239
     19 O          -5.3191  -20.9478   19.9682 O.3     1  UNL1       -0.4683
     20 C          -6.4013  -21.9824   19.8758 C.3     1  UNL1        0.2526
     21 O          -2.8933  -19.8547   21.3541 O.3     1  UNL1       -0.4695
     22 C          -2.4958  -18.2621   19.3402 C.3     1  UNL1        0.0512
     23 C          -2.1607  -19.5177   20.0893 C.3     1  UNL1        0.2058
@<TRIPOS>BOND
     1    22    23    1
     2    23    21    1
     3    21     1    1
     4     1     2   ar
     5     2     7    1
     6     7     8    1
     7     2     3   ar
     8     3     4   ar
     9     4     9    1
    10     9    10    2
    11    10    11    1
    12    11    12    2
    13    11    13    1
    14    13    14   ar
    15    14    15   ar
    16    15    16   ar
    17    16    17   ar
    18    17    18   ar
    19     4     5   ar
    20     5     6   ar
    21     6    19    1
    22    19    20    1
    23     6     1   ar
    24    18    13   ar
