@<TRIPOS>MOLECULE
*****
 29 33 0 0 0
SMALL
GASTEIGER

@<TRIPOS>ATOM
      1 C           4.7535   -2.2629   20.5510 C.ar    1  UNL1        0.1208
      2 C           3.9299   -1.4370   21.4943 C.ar    1  UNL1        0.0563
      3 C           4.0924   -1.6051   22.9759 C.ar    1  UNL1        0.0336
      4 C           5.0784   -2.5991   23.5143 C.ar    1  UNL1        0.0838
      5 N           5.9019   -3.4249   22.5710 N.ar    1  UNL1       -0.2759
      6 C           6.9458   -4.4761   22.8065 C.ar    1  UNL1        0.1471
      7 N           7.4284   -4.9577   21.4704 N.ar    1  UNL1       -0.1330
      8 N           6.6829   -4.2041   20.4092 N.ar    1  UNL1       -0.1287
      9 C           5.7395   -3.2568   21.0893 C.ar    1  UNL1        0.1752
     10 N           2.9439   -0.4431   20.9559 N.pl3   1  UNL1       -0.3074
     11 C           1.5458   -0.8760   20.6278 C.3     1  UNL1        0.0911
     12 C           0.5597    0.1180   20.0894 C.3     1  UNL1        0.0258
     13 C           0.9719    1.5448   19.8791 C.3     1  UNL1        0.0257
     14 C           2.3702    1.9777   20.2073 C.3     1  UNL1        0.0258
     15 C           3.3561    0.9838   20.7456 C.3     1  UNL1        0.0911
     16 C          -0.0141    2.5388   19.3408 C.ar    1  UNL1       -0.0224
     17 C           0.1132    3.0329   17.9301 C.ar    1  UNL1       -0.0043
     18 C          -0.8728    4.0268   17.3918 C.ar    1  UNL1       -0.0003
     19 C          -1.9861    4.5267   18.2639 C.ar    1  UNL1       -0.0000
     20 C          -2.1134    4.0327   19.6745 C.ar    1  UNL1       -0.0003
     21 C          -1.1274    3.0387   20.2129 C.ar    1  UNL1       -0.0043
     22 F           4.4286   -1.9266   17.5876 F       1  UNL1       -0.1657
     23 C           4.5910   -2.0947   19.0693 C.3     1  UNL1        0.4226
     24 F           5.6572   -1.0396   19.0721 F       1  UNL1       -0.1657
     25 F           3.5249   -3.1499   19.0665 F       1  UNL1       -0.1657
     26 C           7.4231   -4.9607   24.1434 C.3     1  UNL1        0.0662
     27 C           8.0168   -6.3318   24.2760 C.3     1  UNL1        0.0076
     28 C           8.1178   -7.6388   25.0051 C.3     1  UNL1        0.0005
     29 C           8.9442   -7.3997   23.7764 C.3     1  UNL1        0.0005
@<TRIPOS>BOND
     1    22    23    1
     2    23    24    1
     3    23    25    1
     4    23     1    1
     5     1     2   ar
     6     2    10    1
     7    10    11    1
     8    11    12    1
     9    12    13    1
    10    13    16    1
    11    16    17   ar
    12    17    18   ar
    13    18    19   ar
    14    19    20   ar
    15    20    21   ar
    16    13    14    1
    17    14    15    1
    18     2     3   ar
    19     3     4   ar
    20     4     5   ar
    21     5     6   ar
    22     6    26    1
    23    26    27    1
    24    27    28    1
    25    28    29    1
    26     6     7   ar
    27     7     8   ar
    28     8     9   ar
    29     9     1   ar
    30    15    10    1
    31     9     5   ar
    32    21    16   ar
    33    29    27    1
@<TRIPOS>MOLECULE
*****
 29 33 0 0 0
SMALL
GASTEIGER

@<TRIPOS>ATOM
      1 C           6.3556   -2.6174   29.4743 C.ar    1  UNL1        0.1208
      2 C           6.4860   -3.2169   30.8432 C.ar    1  UNL1        0.0563
      3 C           6.8017   -4.6753   30.9961 C.ar    1  UNL1        0.0336
      4 C           6.9871   -5.5341   29.7803 C.ar    1  UNL1        0.0838
      5 N           6.8567   -4.9345   28.4116 N.ar    1  UNL1       -0.2759
      6 C           6.9845   -5.5275   27.0397 C.ar    1  UNL1        0.1471
      7 N           6.7478   -4.4357   26.0388 N.ar    1  UNL1       -0.1330
      8 N           6.4737   -3.1678   26.7922 N.ar    1  UNL1       -0.1287
      9 C           6.5410   -3.4762   28.2586 C.ar    1  UNL1        0.1752
     10 N           6.3006   -2.3581   32.0589 N.pl3   1  UNL1       -0.3074
     11 C           7.4531   -1.5648   32.5995 C.3     1  UNL1        0.0911
     12 C           7.2677   -0.7059   33.8153 C.3     1  UNL1        0.0258
     13 C           5.9298   -0.6405   34.4904 C.3     1  UNL1        0.0257
     14 C           4.7773   -1.4339   33.9497 C.3     1  UNL1        0.0258
     15 C           4.9627   -2.2927   32.7340 C.3     1  UNL1        0.0911
     16 C           5.7444    0.2183   35.7061 C.ar    1  UNL1       -0.0224
     17 C           4.5065    0.0784   36.5416 C.ar    1  UNL1       -0.0043
     18 C           4.3211    0.9371   37.7574 C.ar    1  UNL1       -0.0003
     19 C           5.3736    1.9359   38.1377 C.ar    1  UNL1       -0.0000
     20 C           6.6115    2.0759   37.3023 C.ar    1  UNL1       -0.0003
     21 C           6.7969    1.2171   36.0865 C.ar    1  UNL1       -0.0043
     22 F           5.7241    0.2994   29.1684 F       1  UNL1       -0.1657
     23 C           6.0399   -1.1590   29.3213 C.3     1  UNL1        0.4226
     24 F           4.5744   -1.4784   29.3009 F       1  UNL1       -0.1657
     25 F           7.5053   -0.8395   29.3418 F       1  UNL1       -0.1657
     26 C           7.2947   -6.9608   26.7241 C.3     1  UNL1        0.0662
     27 C           8.1304   -7.3011   25.5259 C.3     1  UNL1        0.0076
     28 C           9.3846   -7.8767   24.9379 C.3     1  UNL1        0.0005
     29 C           8.3238   -7.3148   24.0385 C.3     1  UNL1        0.0005
@<TRIPOS>BOND
     1    22    23    1
     2    23    24    1
     3    23    25    1
     4    23     1    1
     5     1     2   ar
     6     2    10    1
     7    10    11    1
     8    11    12    1
     9    12    13    1
    10    13    16    1
    11    16    17   ar
    12    17    18   ar
    13    18    19   ar
    14    19    20   ar
    15    20    21   ar
    16    13    14    1
    17    14    15    1
    18     2     3   ar
    19     3     4   ar
    20     4     5   ar
    21     5     6   ar
    22     6    26    1
    23    26    27    1
    24    27    28    1
    25    28    29    1
    26     6     7   ar
    27     7     8   ar
    28     8     9   ar
    29     9     1   ar
    30    15    10    1
    31     9     5   ar
    32    21    16   ar
    33    29    27    1
@<TRIPOS>MOLECULE
*****
 29 33 0 0 0
SMALL
GASTEIGER

@<TRIPOS>ATOM
      1 C           4.2720   -0.0207   33.1215 C.ar    1  UNL1        0.1208
      2 C           3.3514    0.7860   32.2544 C.ar    1  UNL1        0.0563
      3 C           2.4698    1.8333   32.8674 C.ar    1  UNL1        0.0336
      4 C           2.5088    2.0740   34.3475 C.ar    1  UNL1        0.0838
      5 N           3.4293    1.2674   35.2145 N.ar    1  UNL1       -0.2759
      6 C           3.6838    1.2803   36.6927 C.ar    1  UNL1        0.1471
      7 N           4.7227    0.2409   36.9933 N.ar    1  UNL1       -0.1330
      8 N           5.1103   -0.4144   35.7009 N.ar    1  UNL1       -0.1287
      9 C           4.3110    0.2200   34.6015 C.ar    1  UNL1        0.1752
     10 N           3.3124    0.5453   30.7744 N.pl3   1  UNL1       -0.3074
     11 C           4.2848    1.2484   29.8744 C.3     1  UNL1        0.0911
     12 C           4.2459    1.0077   28.3943 C.3     1  UNL1        0.0258
     13 C           3.2346    0.0639   27.8143 C.3     1  UNL1        0.0257
     14 C           2.2622   -0.6393   28.7144 C.3     1  UNL1        0.0258
     15 C           2.3012   -0.3986   30.1944 C.3     1  UNL1        0.0911
     16 C           3.1956   -0.1768   26.3342 C.ar    1  UNL1       -0.0224
     17 C           2.3009    0.6537   25.4626 C.ar    1  UNL1       -0.0043
     18 C           2.2619    0.4129   23.9826 C.ar    1  UNL1       -0.0003
     19 C           3.1177   -0.6582   23.3741 C.ar    1  UNL1       -0.0000
     20 C           4.0124   -1.4887   24.2457 C.ar    1  UNL1       -0.0003
     21 C           4.0514   -1.2480   25.7258 C.ar    1  UNL1       -0.0043
     22 F           6.0353   -2.1154   31.8955 F       1  UNL1       -0.1657
     23 C           5.1537   -1.0681   32.5085 C.3     1  UNL1        0.4226
     24 F           4.0482   -2.0737   32.6369 F       1  UNL1       -0.1657
     25 F           6.2591   -0.0624   32.3801 F       1  UNL1       -0.1657
     26 C           3.0165    2.1754   37.6944 C.3     1  UNL1        0.0662
     27 C           1.9773    1.6193   38.6222 C.3     1  UNL1        0.0076
     28 C           0.8476    1.8334   39.5856 C.3     1  UNL1        0.0005
     29 C           1.3070    0.4418   39.2659 C.3     1  UNL1        0.0005
@<TRIPOS>BOND
     1    22    23    1
     2    23    24    1
     3    23    25    1
     4    23     1    1
     5     1     2   ar
     6     2    10    1
     7    10    11    1
     8    11    12    1
     9    12    13    1
    10    13    16    1
    11    16    17   ar
    12    17    18   ar
    13    18    19   ar
    14    19    20   ar
    15    20    21   ar
    16    13    14    1
    17    14    15    1
    18     2     3   ar
    19     3     4   ar
    20     4     5   ar
    21     5     6   ar
    22     6    26    1
    23    26    27    1
    24    27    28    1
    25    28    29    1
    26     6     7   ar
    27     7     8   ar
    28     8     9   ar
    29     9     1   ar
    30    15    10    1
    31     9     5   ar
    32    21    16   ar
    33    29    27    1
@<TRIPOS>MOLECULE
*****
 29 33 0 0 0
SMALL
GASTEIGER

@<TRIPOS>ATOM
      1 C           1.8288    0.8194   29.1459 C.ar    1  UNL1        0.1208
      2 C           3.1122    0.4366   28.4702 C.ar    1  UNL1        0.0563
      3 C           4.3932    0.4155   29.2503 C.ar    1  UNL1        0.0336
      4 C           4.3909    0.7772   30.7061 C.ar    1  UNL1        0.0838
      5 N           3.1075    1.1600   31.3817 N.ar    1  UNL1       -0.2759
      6 C           2.7974    1.5623   32.7931 C.ar    1  UNL1        0.1471
      7 N           1.3248    1.8321   32.8853 N.ar    1  UNL1       -0.1330
      8 N           0.7247    1.5965   31.5309 N.ar    1  UNL1       -0.1287
      9 C           1.8265    1.1811   30.6016 C.ar    1  UNL1        0.1752
     10 N           3.1145    0.0749   27.0145 N.pl3   1  UNL1       -0.3074
     11 C           3.8418   -1.1510   26.5475 C.3     1  UNL1        0.0911
     12 C           3.8441   -1.5128   25.0917 C.3     1  UNL1        0.0258
     13 C           3.1191   -0.6486   24.1031 C.3     1  UNL1        0.0257
     14 C           2.3917    0.5773   24.5701 C.3     1  UNL1        0.0258
     15 C           2.3894    0.9390   26.0258 C.3     1  UNL1        0.0911
     16 C           3.1214   -1.0103   22.6474 C.ar    1  UNL1       -0.0224
     17 C           4.0009   -2.1197   22.1516 C.ar    1  UNL1       -0.0043
     18 C           4.0032   -2.4814   20.6959 C.ar    1  UNL1       -0.0003
     19 C           3.1260   -1.7338   19.7359 C.ar    1  UNL1       -0.0000
     20 C           2.2465   -0.6244   20.2316 C.ar    1  UNL1       -0.0003
     21 C           2.2442   -0.2626   21.6874 C.ar    1  UNL1       -0.0043
     22 F          -0.7332    0.8616   27.5858 F       1  UNL1       -0.1657
     23 C           0.5478    0.8405   28.3658 C.3     1  UNL1        0.4226
     24 F           0.4401   -0.6494   28.5025 F       1  UNL1       -0.1657
     25 F           0.6555    2.3304   28.2292 F       1  UNL1       -0.1657
     26 C           3.7864    1.6751   33.9152 C.3     1  UNL1        0.0662
     27 C           4.3655    0.4364   34.5319 C.3     1  UNL1        0.0076
     28 C           4.9199   -0.9499   34.3868 C.3     1  UNL1        0.0005
     29 C           4.8141   -0.3229   35.7453 C.3     1  UNL1        0.0005
@<TRIPOS>BOND
     1    22    23    1
     2    23    24    1
     3    23    25    1
     4    23     1    1
     5     1     2   ar
     6     2    10    1
     7    10    11    1
     8    11    12    1
     9    12    13    1
    10    13    16    1
    11    16    17   ar
    12    17    18   ar
    13    18    19   ar
    14    19    20   ar
    15    20    21   ar
    16    13    14    1
    17    14    15    1
    18     2     3   ar
    19     3     4   ar
    20     4     5   ar
    21     5     6   ar
    22     6    26    1
    23    26    27    1
    24    27    28    1
    25    28    29    1
    26     6     7   ar
    27     7     8   ar
    28     8     9   ar
    29     9     1   ar
    30    15    10    1
    31     9     5   ar
    32    21    16   ar
    33    29    27    1
@<TRIPOS>MOLECULE
*****
 29 33 0 0 0
SMALL
GASTEIGER

@<TRIPOS>ATOM
      1 C           1.8848    1.7998   31.2571 C.ar    1  UNL1        0.1208
      2 C           1.7397    0.9671   30.0179 C.ar    1  UNL1        0.0563
      3 C           2.3840   -0.3855   29.9434 C.ar    1  UNL1        0.0336
      4 C           3.1735   -0.9052   31.1082 C.ar    1  UNL1        0.0838
      5 N           3.3186   -0.0725   32.3473 N.ar    1  UNL1       -0.2759
      6 C           4.0309   -0.3186   33.6443 C.ar    1  UNL1        0.1471
      7 N           3.8268    0.8817   34.5203 N.ar    1  UNL1       -0.1330
      8 N           2.9884    1.8697   33.7647 N.ar    1  UNL1       -0.1287
      9 C           2.6743    1.2800   32.4218 C.ar    1  UNL1        0.1752
     10 N           0.9503    1.4869   28.8532 N.pl3   1  UNL1       -0.3074
     11 C          -0.4845    1.0849   28.6804 C.3     1  UNL1        0.0911
     12 C          -1.2740    1.6047   27.5157 C.3     1  UNL1        0.0258
     13 C          -0.6287    2.5265   26.5238 C.3     1  UNL1        0.0257
     14 C           0.8061    2.9284   26.6965 C.3     1  UNL1        0.0258
     15 C           1.5956    2.4086   27.8612 C.3     1  UNL1        0.0911
     16 C          -1.4182    3.0463   25.3591 C.ar    1  UNL1       -0.0224
     17 C          -0.7994    3.0902   23.9933 C.ar    1  UNL1       -0.0043
     18 C          -1.5888    3.6100   22.8286 C.ar    1  UNL1       -0.0003
     19 C          -2.9970    4.0859   23.0296 C.ar    1  UNL1       -0.0000
     20 C          -3.6158    4.0420   24.3953 C.ar    1  UNL1       -0.0003
     21 C          -2.8264    3.5222   25.5601 C.ar    1  UNL1       -0.0043
     22 F           0.5962    4.5048   31.4060 F       1  UNL1       -0.1657
     23 C           1.2405    3.1523   31.3315 C.3     1  UNL1        0.4226
     24 F           2.5263    3.7889   30.8939 F       1  UNL1       -0.1657
     25 F          -0.0452    2.5157   31.7692 F       1  UNL1       -0.1657
     26 C           4.8104   -1.5492   34.0023 C.3     1  UNL1        0.0662
     27 C           5.7395   -2.1667   32.9996 C.3     1  UNL1        0.0076
     28 C           6.3262   -3.3849   32.3500 C.3     1  UNL1        0.0005
     29 C           6.7620   -2.0180   31.9122 C.3     1  UNL1        0.0005
@<TRIPOS>BOND
     1    22    23    1
     2    23    24    1
     3    23    25    1
     4    23     1    1
     5     1     2   ar
     6     2    10    1
     7    10    11    1
     8    11    12    1
     9    12    13    1
    10    13    16    1
    11    16    17   ar
    12    17    18   ar
    13    18    19   ar
    14    19    20   ar
    15    20    21   ar
    16    13    14    1
    17    14    15    1
    18     2     3   ar
    19     3     4   ar
    20     4     5   ar
    21     5     6   ar
    22     6    26    1
    23    26    27    1
    24    27    28    1
    25    28    29    1
    26     6     7   ar
    27     7     8   ar
    28     8     9   ar
    29     9     1   ar
    30    15    10    1
    31     9     5   ar
    32    21    16   ar
    33    29    27    1
@<TRIPOS>MOLECULE
*****
 29 33 0 0 0
SMALL
GASTEIGER

@<TRIPOS>ATOM
      1 C          -0.8375    2.9025   24.3463 C.ar    1  UNL1        0.1208
      2 C          -1.5621    3.1123   25.6429 C.ar    1  UNL1        0.0563
      3 C          -2.9917    3.5665   25.6382 C.ar    1  UNL1        0.0336
      4 C          -3.6967    3.8108   24.3369 C.ar    1  UNL1        0.0838
      5 N          -2.9721    3.6010   23.0404 N.ar    1  UNL1       -0.2759
      6 C          -3.4031    3.7602   21.6125 C.ar    1  UNL1        0.1471
      7 N          -2.2399    3.4045   20.7347 N.ar    1  UNL1       -0.1330
      8 N          -1.0900    3.0254   21.6201 N.ar    1  UNL1       -0.1287
      9 C          -1.5425    3.1468   23.0451 C.ar    1  UNL1        0.1752
     10 N          -0.8571    2.8680   26.9441 N.pl3   1  UNL1       -0.3074
     11 C          -0.1298    3.9893   27.6251 C.3     1  UNL1        0.0911
     12 C           0.5753    3.7450   28.9264 C.3     1  UNL1        0.0258
     13 C           0.5530    2.3794   29.5466 C.3     1  UNL1        0.0257
     14 C          -0.1743    1.2581   28.8656 C.3     1  UNL1        0.0258
     15 C          -0.8793    1.5024   27.5644 C.3     1  UNL1        0.0911
     16 C           1.2580    2.1351   30.8479 C.ar    1  UNL1       -0.0224
     17 C           0.9688    3.0080   32.0330 C.ar    1  UNL1       -0.0043
     18 C           1.6739    2.7637   33.3342 C.ar    1  UNL1       -0.0003
     19 C           2.6681    1.6465   33.4504 C.ar    1  UNL1       -0.0000
     20 C           2.9572    0.7737   32.2653 C.ar    1  UNL1       -0.0003
     21 C           2.2522    1.0179   30.9640 C.ar    1  UNL1       -0.0043
     22 F           2.0217    1.9941   24.3558 F       1  UNL1       -0.1657
     23 C           0.5921    2.4483   24.3511 C.3     1  UNL1        0.4226
     24 F           1.0462    3.8776   24.3228 F       1  UNL1       -0.1657
     25 F           0.1379    1.0190   24.3794 F       1  UNL1       -0.1657
     26 C          -4.7592    4.1983   21.1445 C.3     1  UNL1        0.0662
     27 C          -5.2392    3.8178   19.7753 C.3     1  UNL1        0.0076
     28 C          -6.3129    3.2750   18.8793 C.3     1  UNL1        0.0005
     29 C          -4.9970    3.7017   18.2995 C.3     1  UNL1        0.0005
@<TRIPOS>BOND
     1    22    23    1
     2    23    24    1
     3    23    25    1
     4    23     1    1
     5     1     2   ar
     6     2    10    1
     7    10    11    1
     8    11    12    1
     9    12    13    1
    10    13    16    1
    11    16    17   ar
    12    17    18   ar
    13    18    19   ar
    14    19    20   ar
    15    20    21   ar
    16    13    14    1
    17    14    15    1
    18     2     3   ar
    19     3     4   ar
    20     4     5   ar
    21     5     6   ar
    22     6    26    1
    23    26    27    1
    24    27    28    1
    25    28    29    1
    26     6     7   ar
    27     7     8   ar
    28     8     9   ar
    29     9     1   ar
    30    15    10    1
    31     9     5   ar
    32    21    16   ar
    33    29    27    1
@<TRIPOS>MOLECULE
*****
 29 33 0 0 0
SMALL
GASTEIGER

@<TRIPOS>ATOM
      1 C           7.2752   -4.2554   28.6741 C.ar    1  UNL1        0.1208
      2 C           6.8643   -2.8276   28.8805 C.ar    1  UNL1        0.0563
      3 C           6.5518   -1.9587   27.6984 C.ar    1  UNL1        0.0336
      4 C           6.6502   -2.5177   26.3098 C.ar    1  UNL1        0.0838
      5 N           7.0610   -3.9455   26.1035 N.ar    1  UNL1       -0.2759
      6 C           7.2440   -4.7679   24.8625 C.ar    1  UNL1        0.1471
      7 N           7.6696   -6.1451   25.2776 N.ar    1  UNL1       -0.1330
      8 N           7.7497   -6.1737   26.7752 N.ar    1  UNL1       -0.1287
      9 C           7.3735   -4.8143   27.2856 C.ar    1  UNL1        0.1752
     10 N           6.7660   -2.2687   30.2690 N.pl3   1  UNL1       -0.3074
     11 C           7.9446   -1.5724   30.8823 C.3     1  UNL1        0.0911
     12 C           7.8463   -1.0134   32.2709 C.3     1  UNL1        0.0258
     13 C           6.5695   -1.1508   33.0460 C.3     1  UNL1        0.0257
     14 C           5.3909   -1.8471   32.4326 C.3     1  UNL1        0.0258
     15 C           5.4892   -2.4060   31.0441 C.3     1  UNL1        0.0911
     16 C           6.4711   -0.5919   34.4345 C.ar    1  UNL1       -0.0224
     17 C           7.6979   -0.0683   35.1208 C.ar    1  UNL1       -0.0043
     18 C           7.5996    0.4907   36.5093 C.ar    1  UNL1       -0.0003
     19 C           6.2746    0.5260   37.2115 C.ar    1  UNL1       -0.0000
     20 C           5.0479    0.0024   36.5252 C.ar    1  UNL1       -0.0003
     21 C           5.1461   -0.5565   35.1367 C.ar    1  UNL1       -0.0043
     22 F           7.9002   -5.9931   31.0383 F       1  UNL1       -0.1657
     23 C           7.5877   -5.1243   29.8562 C.3     1  UNL1        0.4226
     24 F           6.1829   -5.6498   29.8414 F       1  UNL1       -0.1657
     25 F           8.9926   -4.5988   29.8710 F       1  UNL1       -0.1657
     26 C           7.0376   -4.2960   23.4537 C.3     1  UNL1        0.0662
     27 C           5.6996   -3.7682   23.0279 C.3     1  UNL1        0.0076
     28 C           4.5143   -3.8213   22.1102 C.3     1  UNL1        0.0005
     29 C           4.5675   -2.8009   23.2083 C.3     1  UNL1        0.0005
@<TRIPOS>BOND
     1    22    23    1
     2    23    24    1
     3    23    25    1
     4    23     1    1
     5     1     2   ar
     6     2    10    1
     7    10    11    1
     8    11    12    1
     9    12    13    1
    10    13    16    1
    11    16    17   ar
    12    17    18   ar
    13    18    19   ar
    14    19    20   ar
    15    20    21   ar
    16    13    14    1
    17    14    15    1
    18     2     3   ar
    19     3     4   ar
    20     4     5   ar
    21     5     6   ar
    22     6    26    1
    23    26    27    1
    24    27    28    1
    25    28    29    1
    26     6     7   ar
    27     7     8   ar
    28     8     9   ar
    29     9     1   ar
    30    15    10    1
    31     9     5   ar
    32    21    16   ar
    33    29    27    1
@<TRIPOS>MOLECULE
*****
 29 33 0 0 0
SMALL
GASTEIGER

@<TRIPOS>ATOM
      1 C          -0.1715    2.6124   23.5671 C.ar    1  UNL1        0.1208
      2 C          -0.2296    2.4076   22.0822 C.ar    1  UNL1        0.0563
      3 C          -1.3293    3.0385   21.2806 C.ar    1  UNL1        0.0336
      4 C          -2.3709    3.8742   21.9639 C.ar    1  UNL1        0.0838
      5 N          -2.3127    4.0790   23.4487 N.ar    1  UNL1       -0.2759
      6 C          -3.1925    4.8452   24.3915 C.ar    1  UNL1        0.1471
      7 N          -2.6366    4.6879   25.7757 N.ar    1  UNL1       -0.1330
      8 N          -1.4132    3.8244   25.6885 N.ar    1  UNL1       -0.1287
      9 C          -1.2130    3.4480   24.2503 C.ar    1  UNL1        0.1752
     10 N           0.8120    1.5720   21.3990 N.pl3   1  UNL1       -0.3074
     11 C           0.4679    0.1959   20.9111 C.3     1  UNL1        0.0911
     12 C           1.5095   -0.6398   20.2279 C.3     1  UNL1        0.0258
     13 C           2.8951   -0.0994   20.0326 C.3     1  UNL1        0.0257
     14 C           3.2391    1.2767   20.5206 C.3     1  UNL1        0.0258
     15 C           2.1975    2.1123   21.2038 C.3     1  UNL1        0.0911
     16 C           3.9366   -0.9351   19.3494 C.ar    1  UNL1       -0.0224
     17 C           5.0940   -0.2752   18.6600 C.ar    1  UNL1       -0.0043
     18 C           6.1355   -1.1109   17.9768 C.ar    1  UNL1       -0.0003
     19 C           6.0198   -2.6064   17.9830 C.ar    1  UNL1       -0.0000
     20 C           4.8626   -3.2663   18.6724 C.ar    1  UNL1       -0.0003
     21 C           3.8210   -2.4306   19.3556 C.ar    1  UNL1       -0.0043
     22 F           2.0280    1.3506   25.1703 F       1  UNL1       -0.1657
     23 C           0.9283    1.9815   24.3687 C.3     1  UNL1        0.4226
     24 F           1.7447    3.2325   24.2332 F       1  UNL1       -0.1657
     25 F           0.1118    0.7305   24.5042 F       1  UNL1       -0.1657
     26 C          -4.4139    5.6309   24.0159 C.3     1  UNL1        0.0662
     27 C          -5.6225    4.9256   23.4756 C.3     1  UNL1        0.0076
     28 C          -6.2569    4.0390   22.4452 C.3     1  UNL1        0.0005
     29 C          -7.0816    4.5908   23.5700 C.3     1  UNL1        0.0005
@<TRIPOS>BOND
     1    22    23    1
     2    23    24    1
     3    23    25    1
     4    23     1    1
     5     1     2   ar
     6     2    10    1
     7    10    11    1
     8    11    12    1
     9    12    13    1
    10    13    16    1
    11    16    17   ar
    12    17    18   ar
    13    18    19   ar
    14    19    20   ar
    15    20    21   ar
    16    13    14    1
    17    14    15    1
    18     2     3   ar
    19     3     4   ar
    20     4     5   ar
    21     5     6   ar
    22     6    26    1
    23    26    27    1
    24    27    28    1
    25    28    29    1
    26     6     7   ar
    27     7     8   ar
    28     8     9   ar
    29     9     1   ar
    30    15    10    1
    31     9     5   ar
    32    21    16   ar
    33    29    27    1
@<TRIPOS>MOLECULE
*****
 29 33 0 0 0
SMALL
GASTEIGER

@<TRIPOS>ATOM
      1 C           4.1342    1.7224   34.9129 C.ar    1  UNL1        0.1208
      2 C           4.8250    0.4640   35.3480 C.ar    1  UNL1        0.0563
      3 C           5.0964    0.2222   36.8033 C.ar    1  UNL1        0.0336
      4 C           4.6769    1.2388   37.8235 C.ar    1  UNL1        0.0838
      5 N           3.9861    2.4971   37.3883 N.ar    1  UNL1       -0.2759
      6 C           3.4604    3.6715   38.1593 C.ar    1  UNL1        0.1471
      7 N           2.8640    4.6391   37.1805 N.ar    1  UNL1       -0.1330
      8 N           3.0213    4.0627   35.8046 N.ar    1  UNL1       -0.1287
      9 C           3.7148    2.7389   35.9330 C.ar    1  UNL1        0.1752
     10 N           5.2444   -0.5525   34.3279 N.pl3   1  UNL1       -0.3074
     11 C           4.2953   -1.6393   33.9179 C.3     1  UNL1        0.0911
     12 C           4.7147   -2.6559   32.8977 C.3     1  UNL1        0.0258
     13 C           6.0832   -2.5856   32.2875 C.3     1  UNL1        0.0257
     14 C           7.0323   -1.4988   32.6975 C.3     1  UNL1        0.0258
     15 C           6.6129   -0.4823   33.7177 C.3     1  UNL1        0.0911
     16 C           6.5026   -3.6021   31.2673 C.ar    1  UNL1       -0.0224
     17 C           6.9722   -4.9570   31.7077 C.ar    1  UNL1       -0.0043
     18 C           7.3916   -5.9735   30.6875 C.ar    1  UNL1       -0.0003
     19 C           7.3415   -5.6352   29.2270 C.ar    1  UNL1       -0.0000
     20 C           6.8719   -4.2804   28.7867 C.ar    1  UNL1       -0.0003
     21 C           6.4524   -3.2638   29.8069 C.ar    1  UNL1       -0.0043
     22 F           3.5914    2.2060   32.0023 F       1  UNL1       -0.1657
     23 C           3.8628    1.9642   33.4576 C.3     1  UNL1        0.4226
     24 F           2.5003    1.3558   33.6106 F       1  UNL1       -0.1657
     25 F           5.2253    2.5726   33.3046 F       1  UNL1       -0.1657
     26 C           3.5204    3.8474   39.6477 C.3     1  UNL1        0.0662
     27 C           4.8228    4.1842   40.3112 C.3     1  UNL1        0.0076
     28 C           5.9110    5.1723   40.6104 C.3     1  UNL1        0.0005
     29 C           5.9906    3.7794   41.1612 C.3     1  UNL1        0.0005
@<TRIPOS>BOND
     1    22    23    1
     2    23    24    1
     3    23    25    1
     4    23     1    1
     5     1     2   ar
     6     2    10    1
     7    10    11    1
     8    11    12    1
     9    12    13    1
    10    13    16    1
    11    16    17   ar
    12    17    18   ar
    13    18    19   ar
    14    19    20   ar
    15    20    21   ar
    16    13    14    1
    17    14    15    1
    18     2     3   ar
    19     3     4   ar
    20     4     5   ar
    21     5     6   ar
    22     6    26    1
    23    26    27    1
    24    27    28    1
    25    28    29    1
    26     6     7   ar
    27     7     8   ar
    28     8     9   ar
    29     9     1   ar
    30    15    10    1
    31     9     5   ar
    32    21    16   ar
    33    29    27    1
