@<TRIPOS>MOLECULE
*****
 41 44 0 0 0
SMALL
GASTEIGER

@<TRIPOS>ATOM
      1 C          -2.1609    3.1854   26.3989 C.ar    1  UNL1        0.1317
      2 N          -3.5411    3.6089   26.8058 N.ar    1  UNL1       -0.2294
      3 C          -4.5013    4.1260   25.7758 C.ar    1  UNL1        0.0988
      4 C          -4.0812    4.2195   24.3389 C.ar    1  UNL1        0.0374
      5 C          -2.7010    3.7960   23.9320 C.ar    1  UNL1        0.0029
      6 C          -1.7408    3.2789   24.9620 C.ar    1  UNL1        0.0329
      7 N           0.7194    1.6343   29.4889 N.3     1  UNL1       -0.1520
      8 C           0.8344    3.0472   28.9987 C.3     1  UNL1        0.1173
      9 C          -0.1257    3.5643   27.9687 C.3     1  UNL1        0.1113
     10 N          -1.2008    2.6684   27.4289 N.pl3   1  UNL1       -0.2903
     11 C          -1.3159    1.2555   27.9191 C.3     1  UNL1        0.1113
     12 C          -0.3558    0.7384   28.9491 C.3     1  UNL1        0.1173
     13 S           1.6795    1.1173   30.5189 S.O2    1  UNL1        0.0649
     14 O           2.0399    2.5253   30.8897 O.2     1  UNL1       -0.1527
     15 O           1.3191   -0.2908   30.1480 O.2     1  UNL1       -0.1527
     16 N           5.5199   -0.9509   34.6388 N.pl3   1  UNL1       -0.3426
     17 C           4.5598   -0.4338   33.6088 C.ar    1  UNL1        0.1255
     18 C           4.3770   -1.1724   32.3162 C.ar    1  UNL1        0.0353
     19 C           3.4169   -0.6554   31.2862 C.ar    1  UNL1        0.0244
     20 C           2.6396    0.6002   31.5488 C.ar    1  UNL1        0.1414
     21 C           2.8223    1.3388   32.8415 C.ar    1  UNL1        0.1201
     22 N           3.7824    0.8218   33.8715 N.ar    1  UNL1       -0.2282
     23 H           6.0301   -1.7750   34.4664 H       1  UNL1        0.1437
     24 H           5.6398   -0.4661   35.4872 H       1  UNL1        0.1437
     25 C          -0.3606    2.8554   24.5550 C.ar    1  UNL1        0.0219
     26 C          -0.0134    1.3979   24.4848 C.ar    1  UNL1        0.0032
     27 C           1.3668    0.9743   24.0778 C.ar    1  UNL1        0.0207
     28 C           2.3999    2.0084   23.7411 C.ar    1  UNL1        0.0989
     29 N           2.0527    3.4661   23.8113 N.ar    1  UNL1       -0.2423
     30 C           0.6725    3.8895   24.2183 C.ar    1  UNL1        0.0989
     31 C          -5.0413    4.7365   23.3090 C.3     1  UNL1        0.2841
     32 O          -5.1984    6.0059   24.0926 O.3     1  UNL1       -0.3692
     33 H          -5.9929    5.9480   24.6460 H       1  UNL1        0.2112
     34 C          -6.0014    5.2536   22.2790 C.3     1  UNL1        0.4312
     35 F          -6.9615    5.7706   21.2490 F       1  UNL1       -0.1669
     36 F          -5.0291    6.3367   21.9164 F       1  UNL1       -0.1669
     37 F          -6.6403    4.6560   22.4173 F       1  UNL1       -0.1669
     38 C          -4.8842    3.4672   22.5253 C.3     1  UNL1        0.4312
     39 F          -4.7271    2.1978   21.7417 F       1  UNL1       -0.1669
     40 F          -5.2705    2.9289   23.1131 F       1  UNL1       -0.1669
     41 F          -4.1877    3.8999   21.2692 F       1  UNL1       -0.1669
@<TRIPOS>BOND
     1    16    17    1
     2    17    18   ar
     3    18    19   ar
     4    19    20   ar
     5    20    13    1
     6    13    14    2
     7    13    15    2
     8    13     7    1
     9     7     8    1
    10     8     9    1
    11     9    10    1
    12    10     1    1
    13     1     2   ar
    14     2     3   ar
    15     3     4   ar
    16     4    31    1
    17    31    32    1
    18    31    34    1
    19    34    35    1
    20    34    36    1
    21    34    37    1
    22    31    38    1
    23    38    39    1
    24    38    40    1
    25    38    41    1
    26     4     5   ar
    27     5     6   ar
    28     6    25    1
    29    25    26   ar
    30    26    27   ar
    31    27    28   ar
    32    28    29   ar
    33    29    30   ar
    34    10    11    1
    35    11    12    1
    36    20    21   ar
    37    21    22   ar
    38    22    17   ar
    39    12     7    1
    40     6     1   ar
    41    30    25   ar
    42    16    23    1
    43    16    24    1
    44    32    33    1
@<TRIPOS>MOLECULE
*****
 41 44 0 0 0
SMALL
GASTEIGER

@<TRIPOS>ATOM
      1 C           5.3328   -0.0341   34.9855 C.ar    1  UNL1        0.1317
      2 N           5.7349   -0.2777   36.4099 N.ar    1  UNL1       -0.2294
      3 C           5.3794    0.7213   37.4709 C.ar    1  UNL1        0.0988
      4 C           4.6219    1.9638   37.1075 C.ar    1  UNL1        0.0374
      5 C           4.2198    2.2075   35.6831 C.ar    1  UNL1        0.0029
      6 C           4.5753    1.2085   34.6221 C.ar    1  UNL1        0.0329
      7 N           6.3992   -3.0309   31.8025 N.3     1  UNL1       -0.1520
      8 C           7.3655   -1.9409   32.1602 C.3     1  UNL1        0.1173
      9 C           7.0100   -0.9419   33.2212 C.3     1  UNL1        0.1113
     10 N           5.6883   -1.0330   33.9245 N.pl3   1  UNL1       -0.2903
     11 C           4.7220   -2.1231   33.5668 C.3     1  UNL1        0.1113
     12 C           5.0775   -3.1220   32.5058 C.3     1  UNL1        0.1173
     13 S           6.7547   -4.0299   30.7415 S.O2    1  UNL1        0.0649
     14 O           6.8940   -5.0937   31.7898 O.2     1  UNL1       -0.1527
     15 O           6.6154   -2.9661   29.6932 O.2     1  UNL1       -0.1527
     16 N           8.1766   -8.0257   26.4975 N.pl3   1  UNL1       -0.3426
     17 C           7.8211   -7.0268   27.5585 C.ar    1  UNL1        0.1255
     18 C           6.8063   -5.9595   27.2739 C.ar    1  UNL1        0.0353
     19 C           6.4509   -4.9605   28.3349 C.ar    1  UNL1        0.0244
     20 C           7.1102   -5.0288   29.6805 C.ar    1  UNL1        0.1414
     21 C           8.1249   -6.0962   29.9650 C.ar    1  UNL1        0.1201
     22 N           8.4804   -7.0951   28.9040 N.ar    1  UNL1       -0.2282
     23 H           7.7438   -7.9808   25.6143 H       1  UNL1        0.1437
     24 H           8.8426   -8.7262   26.6843 H       1  UNL1        0.1437
     25 C           4.1732    1.4522   33.1977 C.ar    1  UNL1        0.0219
     26 C           5.1140    2.1516   32.2619 C.ar    1  UNL1        0.0032
     27 C           4.7118    2.3953   30.8375 C.ar    1  UNL1        0.0207
     28 C           3.3689    1.9395   30.3488 C.ar    1  UNL1        0.0989
     29 N           2.4281    1.2400   31.2846 N.ar    1  UNL1       -0.2423
     30 C           2.8302    0.9963   32.7090 C.ar    1  UNL1        0.0989
     31 C           4.2664    2.9628   38.1685 C.3     1  UNL1        0.2841
     32 O           5.6019    3.6231   37.9942 O.3     1  UNL1       -0.3692
     33 H           6.2171    3.2909   38.6666 H       1  UNL1        0.2112
     34 C           3.9110    3.9617   39.2295 C.3     1  UNL1        0.4312
     35 F           3.5555    4.9607   40.2905 F       1  UNL1       -0.1669
     36 F           3.7581    5.0223   38.1798 F       1  UNL1       -0.1669
     37 F           3.9749    3.4121   39.9211 F       1  UNL1       -0.1669
     38 C           2.9309    2.3025   38.3428 C.3     1  UNL1        0.4312
     39 F           1.5954    1.6421   38.5171 F       1  UNL1       -0.1669
     40 F           2.4607    2.8824   37.8663 F       1  UNL1       -0.1669
     41 F           3.2270    1.1039   39.1946 F       1  UNL1       -0.1669
@<TRIPOS>BOND
     1    16    17    1
     2    17    18   ar
     3    18    19   ar
     4    19    20   ar
     5    20    13    1
     6    13    14    2
     7    13    15    2
     8    13     7    1
     9     7     8    1
    10     8     9    1
    11     9    10    1
    12    10     1    1
    13     1     2   ar
    14     2     3   ar
    15     3     4   ar
    16     4    31    1
    17    31    32    1
    18    31    34    1
    19    34    35    1
    20    34    36    1
    21    34    37    1
    22    31    38    1
    23    38    39    1
    24    38    40    1
    25    38    41    1
    26     4     5   ar
    27     5     6   ar
    28     6    25    1
    29    25    26   ar
    30    26    27   ar
    31    27    28   ar
    32    28    29   ar
    33    29    30   ar
    34    10    11    1
    35    11    12    1
    36    20    21   ar
    37    21    22   ar
    38    22    17   ar
    39    12     7    1
    40     6     1   ar
    41    30    25   ar
    42    16    23    1
    43    16    24    1
    44    32    33    1
@<TRIPOS>MOLECULE
*****
 41 44 0 0 0
SMALL
GASTEIGER

@<TRIPOS>ATOM
      1 C           3.1269    1.4151   32.5969 C.ar    1  UNL1        0.1317
      2 N           2.1865    2.5146   32.9927 N.ar    1  UNL1       -0.2294
      3 C           2.0989    2.9467   34.4264 C.ar    1  UNL1        0.0988
      4 C           2.9516    2.2793   35.4644 C.ar    1  UNL1        0.0374
      5 C           3.8920    1.1798   35.0686 C.ar    1  UNL1        0.0029
      6 C           3.9797    0.7477   33.6349 C.ar    1  UNL1        0.0329
      7 N           3.3900    0.1187   28.2957 N.3     1  UNL1       -0.1520
      8 C           2.3949   -0.5267   29.2140 C.3     1  UNL1        0.1173
      9 C           2.3073   -0.0945   30.6478 C.3     1  UNL1        0.1113
     10 N           3.2146    0.9829   31.1632 N.pl3   1  UNL1       -0.2903
     11 C           4.2097    1.6283   30.2448 C.3     1  UNL1        0.1113
     12 C           4.2973    1.1962   28.8111 C.3     1  UNL1        0.1173
     13 S           3.4777   -0.3134   26.8620 S.O2    1  UNL1        0.0649
     14 O           3.4685   -1.7498   27.2943 O.2     1  UNL1       -0.1527
     15 O           3.4868    1.1229   26.4296 O.2     1  UNL1       -0.1527
     16 N           3.8284   -2.0419   21.1271 N.pl3   1  UNL1       -0.3426
     17 C           3.7407   -1.6098   22.5608 C.ar    1  UNL1        0.1255
     18 C           2.8026   -0.5082   22.9561 C.ar    1  UNL1        0.0353
     19 C           2.7149   -0.0761   24.3898 C.ar    1  UNL1        0.0244
     20 C           3.5653   -0.7456   25.4282 C.ar    1  UNL1        0.1414
     21 C           4.5034   -1.8472   25.0330 C.ar    1  UNL1        0.1201
     22 N           4.5911   -2.2793   23.5992 N.ar    1  UNL1       -0.2282
     23 H           3.2702   -1.6025   20.4455 H       1  UNL1        0.1437
     24 H           4.4441   -2.7650   20.8676 H       1  UNL1        0.1437
     25 C           4.9201   -0.3519   33.2391 C.ar    1  UNL1        0.0219
     26 C           4.4463   -1.7750   33.2242 C.ar    1  UNL1        0.0032
     27 C           5.3868   -2.8745   32.8284 C.ar    1  UNL1        0.0207
     28 C           6.8011   -2.5509   32.4476 C.ar    1  UNL1        0.0989
     29 N           7.2749   -1.1278   32.4626 N.ar    1  UNL1       -0.2423
     30 C           6.3345   -0.0283   32.8583 C.ar    1  UNL1        0.0989
     31 C           2.8639    2.7114   36.8981 C.3     1  UNL1        0.2841
     32 O           2.2551    1.3890   37.2594 O.3     1  UNL1       -0.3692
     33 H           1.2893    1.4748   37.2881 H       1  UNL1        0.2112
     34 C           2.7762    3.1436   38.3318 C.3     1  UNL1        0.4312
     35 F           2.6886    3.5757   39.7655 F       1  UNL1       -0.1669
     36 F           1.2790    3.1412   38.2410 F       1  UNL1       -0.1669
     37 F           3.6474    3.1761   38.4883 F       1  UNL1       -0.1669
     38 C           3.4728    4.0338   36.5367 C.3     1  UNL1        0.4312
     39 F           4.0817    5.3562   36.1754 F       1  UNL1       -0.1669
     40 F           4.2826    3.7309   36.3445 F       1  UNL1       -0.1669
     41 F           2.3520    5.0129   36.7246 F       1  UNL1       -0.1669
@<TRIPOS>BOND
     1    16    17    1
     2    17    18   ar
     3    18    19   ar
     4    19    20   ar
     5    20    13    1
     6    13    14    2
     7    13    15    2
     8    13     7    1
     9     7     8    1
    10     8     9    1
    11     9    10    1
    12    10     1    1
    13     1     2   ar
    14     2     3   ar
    15     3     4   ar
    16     4    31    1
    17    31    32    1
    18    31    34    1
    19    34    35    1
    20    34    36    1
    21    34    37    1
    22    31    38    1
    23    38    39    1
    24    38    40    1
    25    38    41    1
    26     4     5   ar
    27     5     6   ar
    28     6    25    1
    29    25    26   ar
    30    26    27   ar
    31    27    28   ar
    32    28    29   ar
    33    29    30   ar
    34    10    11    1
    35    11    12    1
    36    20    21   ar
    37    21    22   ar
    38    22    17   ar
    39    12     7    1
    40     6     1   ar
    41    30    25   ar
    42    16    23    1
    43    16    24    1
    44    32    33    1
@<TRIPOS>MOLECULE
*****
 41 44 0 0 0
SMALL
GASTEIGER

@<TRIPOS>ATOM
      1 C           4.6866   -0.2374   29.3826 C.ar    1  UNL1        0.1317
      2 N           5.9841   -0.6839   29.9884 N.ar    1  UNL1       -0.2294
      3 C           6.1484   -0.7032   31.4793 C.ar    1  UNL1        0.0988
      4 C           5.0152   -0.2759   32.3643 C.ar    1  UNL1        0.0374
      5 C           3.7177    0.1706   31.7584 C.ar    1  UNL1        0.0029
      6 C           3.5534    0.1899   30.2676 C.ar    1  UNL1        0.0329
      7 N           4.1938   -0.1795   24.9100 N.3     1  UNL1       -0.1520
      8 C           3.8716   -1.4233   25.6840 C.3     1  UNL1        0.1173
      9 C           4.0359   -1.4426   27.1749 C.3     1  UNL1        0.1113
     10 N           4.5223   -0.2181   27.8917 N.pl3   1  UNL1       -0.2903
     11 C           4.8445    1.0257   27.1177 C.3     1  UNL1        0.1113
     12 C           4.6802    1.0450   25.6269 C.3     1  UNL1        0.1173
     13 S           4.0295   -0.1603   23.4192 S.O2    1  UNL1        0.0649
     14 O           3.8256   -1.6463   23.4224 O.2     1  UNL1       -0.1527
     15 O           4.2333    1.3258   23.4159 O.2     1  UNL1       -0.1527
     16 N           3.3723   -0.0832   17.4558 N.pl3   1  UNL1       -0.3426
     17 C           3.5366   -0.1024   18.9466 C.ar    1  UNL1        0.1255
     18 C           2.8793   -1.1779   19.7598 C.ar    1  UNL1        0.0353
     19 C           3.0436   -1.1972   21.2506 C.ar    1  UNL1        0.0244
     20 C           3.8652   -0.1410   21.9283 C.ar    1  UNL1        0.1414
     21 C           4.5225    0.9345   21.1152 C.ar    1  UNL1        0.1201
     22 N           4.3582    0.9538   19.6243 N.ar    1  UNL1       -0.2282
     23 H           2.8331   -0.7764   17.0110 H       1  UNL1        0.1437
     24 H           3.8037    0.6227   16.9221 H       1  UNL1        0.1437
     25 C           2.2559    0.6365   29.6617 C.ar    1  UNL1        0.0219
     26 C           2.0093    2.0940   29.4072 C.ar    1  UNL1        0.0032
     27 C           0.7117    2.5405   28.8014 C.ar    1  UNL1        0.0207
     28 C          -0.3392    1.5295   28.4501 C.ar    1  UNL1        0.0989
     29 N          -0.0926    0.0719   28.7047 N.ar    1  UNL1       -0.2423
     30 C           1.2049   -0.3746   29.3105 C.ar    1  UNL1        0.0989
     31 C           5.1795   -0.2952   33.8551 C.3     1  UNL1        0.2841
     32 O           5.8246    1.0579   33.8015 O.3     1  UNL1       -0.3692
     33 H           6.7893    0.9565   33.8032 H       1  UNL1        0.2112
     34 C           5.3438   -0.3145   35.3460 C.3     1  UNL1        0.4312
     35 F           5.5081   -0.3338   36.8368 F       1  UNL1       -0.1669
     36 F           4.2696    0.7241   35.4778 F       1  UNL1       -0.1669
     37 F           5.9852   -0.9246   35.3761 F       1  UNL1       -0.1669
     38 C           4.5344   -1.6484   33.9087 C.3     1  UNL1        0.4312
     39 F           3.8893   -3.0015   33.9623 F       1  UNL1       -0.1669
     40 F           3.7783   -1.3924   34.2926 F       1  UNL1       -0.1669
     41 F           5.5531   -2.5608   33.2926 F       1  UNL1       -0.1669
@<TRIPOS>BOND
     1    16    17    1
     2    17    18   ar
     3    18    19   ar
     4    19    20   ar
     5    20    13    1
     6    13    14    2
     7    13    15    2
     8    13     7    1
     9     7     8    1
    10     8     9    1
    11     9    10    1
    12    10     1    1
    13     1     2   ar
    14     2     3   ar
    15     3     4   ar
    16     4    31    1
    17    31    32    1
    18    31    34    1
    19    34    35    1
    20    34    36    1
    21    34    37    1
    22    31    38    1
    23    38    39    1
    24    38    40    1
    25    38    41    1
    26     4     5   ar
    27     5     6   ar
    28     6    25    1
    29    25    26   ar
    30    26    27   ar
    31    27    28   ar
    32    28    29   ar
    33    29    30   ar
    34    10    11    1
    35    11    12    1
    36    20    21   ar
    37    21    22   ar
    38    22    17   ar
    39    12     7    1
    40     6     1   ar
    41    30    25   ar
    42    16    23    1
    43    16    24    1
    44    32    33    1
@<TRIPOS>MOLECULE
*****
 41 44 0 0 0
SMALL
GASTEIGER

@<TRIPOS>ATOM
      1 C           2.1093    1.3092   30.7263 C.ar    1  UNL1        0.1317
      2 N           1.6607    1.6534   32.1156 N.ar    1  UNL1       -0.2294
      3 C           2.5003    1.2586   33.2942 C.ar    1  UNL1        0.0988
      4 C           3.7885    0.5196   33.0836 C.ar    1  UNL1        0.0374
      5 C           4.2371    0.1754   31.6943 C.ar    1  UNL1        0.0029
      6 C           3.3975    0.5702   30.5156 C.ar    1  UNL1        0.0329
      7 N          -0.4095    2.4936   27.1903 N.3     1  UNL1       -0.1520
      8 C          -0.7060    1.2231   27.9304 C.3     1  UNL1        0.1173
      9 C           0.1336    0.8283   29.1091 C.3     1  UNL1        0.1113
     10 N           1.2697    1.7040   29.5476 N.pl3   1  UNL1       -0.2903
     11 C           1.5662    2.9745   28.8075 C.3     1  UNL1        0.1113
     12 C           0.7266    3.3693   27.6288 C.3     1  UNL1        0.1173
     13 S          -1.2491    2.8884   26.0116 S.O2    1  UNL1        0.0649
     14 O          -2.0418    3.8138   26.8863 O.2     1  UNL1       -0.1527
     15 O          -0.4563    1.9629   25.1370 O.2     1  UNL1       -0.1527
     16 N          -4.6075    4.4675   21.2970 N.pl3   1  UNL1       -0.3426
     17 C          -3.7679    4.0727   22.4757 C.ar    1  UNL1        0.1255
     18 C          -4.4017    3.9017   23.8244 C.ar    1  UNL1        0.0353
     19 C          -3.5621    3.5069   25.0030 C.ar    1  UNL1        0.0244
     20 C          -2.0887    3.2831   24.8330 C.ar    1  UNL1        0.1414
     21 C          -1.4549    3.4542   23.4843 C.ar    1  UNL1        0.1201
     22 N          -2.2945    3.8490   22.3057 N.ar    1  UNL1       -0.2282
     23 H          -5.5745    4.6144   21.4086 H       1  UNL1        0.1437
     24 H          -4.1914    4.5798   20.4118 H       1  UNL1        0.1437
     25 C           3.8462    0.2260   29.1262 C.ar    1  UNL1        0.0219
     26 C           3.3067   -0.9967   28.4452 C.ar    1  UNL1        0.0032
     27 C           3.7553   -1.3409   27.0558 C.ar    1  UNL1        0.0207
     28 C           4.7435   -0.4624   26.3475 C.ar    1  UNL1        0.0989
     29 N           5.2830    0.7604   27.0286 N.ar    1  UNL1       -0.2423
     30 C           4.8343    1.1046   28.4179 C.ar    1  UNL1        0.0989
     31 C           4.6281    0.1248   34.2622 C.3     1  UNL1        0.2841
     32 O           4.7269    1.5639   34.6738 O.3     1  UNL1       -0.3692
     33 H           5.5591    1.9379   34.3445 H       1  UNL1        0.2112
     34 C           5.4677   -0.2700   35.4409 C.3     1  UNL1        0.4312
     35 F           6.3073   -0.6648   36.6195 F       1  UNL1       -0.1669
     36 F           6.6382    0.4596   34.8514 F       1  UNL1       -0.1669
     37 F           4.8421   -0.7260   35.8712 F       1  UNL1       -0.1669
     38 C           4.5292   -1.3142   33.8506 C.3     1  UNL1        0.4312
     39 F           4.4303   -2.7532   33.4391 F       1  UNL1       -0.1669
     40 F           3.6619   -1.4105   34.0020 F       1  UNL1       -0.1669
     41 F           5.9294   -1.6746   33.4513 F       1  UNL1       -0.1669
@<TRIPOS>BOND
     1    16    17    1
     2    17    18   ar
     3    18    19   ar
     4    19    20   ar
     5    20    13    1
     6    13    14    2
     7    13    15    2
     8    13     7    1
     9     7     8    1
    10     8     9    1
    11     9    10    1
    12    10     1    1
    13     1     2   ar
    14     2     3   ar
    15     3     4   ar
    16     4    31    1
    17    31    32    1
    18    31    34    1
    19    34    35    1
    20    34    36    1
    21    34    37    1
    22    31    38    1
    23    38    39    1
    24    38    40    1
    25    38    41    1
    26     4     5   ar
    27     5     6   ar
    28     6    25    1
    29    25    26   ar
    30    26    27   ar
    31    27    28   ar
    32    28    29   ar
    33    29    30   ar
    34    10    11    1
    35    11    12    1
    36    20    21   ar
    37    21    22   ar
    38    22    17   ar
    39    12     7    1
    40     6     1   ar
    41    30    25   ar
    42    16    23    1
    43    16    24    1
    44    32    33    1
@<TRIPOS>MOLECULE
*****
 41 44 0 0 0
SMALL
GASTEIGER

@<TRIPOS>ATOM
      1 C           4.5284   -0.6219   23.7360 C.ar    1  UNL1        0.1317
      2 N           3.5235    0.2600   23.0560 N.ar    1  UNL1       -0.2294
      3 C           3.3933    0.2354   21.5619 C.ar    1  UNL1        0.0988
      4 C           4.2680   -0.6712   20.7477 C.ar    1  UNL1        0.0374
      5 C           5.2728   -1.5531   21.4276 C.ar    1  UNL1        0.0029
      6 C           5.4030   -1.5285   22.9217 C.ar    1  UNL1        0.0329
      7 N           4.9190   -0.5481   28.2184 N.3     1  UNL1       -0.1520
      8 C           5.7441    0.3810   27.3782 C.3     1  UNL1        0.1173
      9 C           5.6139    0.3564   25.8841 C.3     1  UNL1        0.1113
     10 N           4.6586   -0.5973   25.2301 N.pl3   1  UNL1       -0.2903
     11 C           3.8334   -1.5264   26.0702 C.3     1  UNL1        0.1113
     12 C           3.9636   -1.5017   27.5644 C.3     1  UNL1        0.1173
     13 S           5.0492   -0.5234   29.7125 S.O2    1  UNL1        0.0649
     14 O           3.5633   -0.6809   29.8446 O.2     1  UNL1       -0.1527
     15 O           6.5350   -0.3660   29.5804 O.2     1  UNL1       -0.1527
     16 N           5.5700   -0.4249   35.6890 N.pl3   1  UNL1       -0.3426
     17 C           5.4398   -0.4496   34.1949 C.ar    1  UNL1        0.1255
     18 C           4.2685   -1.1343   33.5553 C.ar    1  UNL1        0.0353
     19 C           4.1383   -1.1589   32.0612 C.ar    1  UNL1        0.0244
     20 C           5.1794   -0.4988   31.2066 C.ar    1  UNL1        0.1414
     21 C           6.3507    0.1860   31.8462 C.ar    1  UNL1        0.1201
     22 N           6.4809    0.2106   33.3404 N.ar    1  UNL1       -0.2282
     23 H           4.8867   -0.8582   36.2499 H       1  UNL1        0.1437
     24 H           6.3388    0.0245   36.1088 H       1  UNL1        0.1437
     25 C           6.4080   -2.4105   23.6016 C.ar    1  UNL1        0.0219
     26 C           6.0326   -3.8073   23.9992 C.ar    1  UNL1        0.0032
     27 C           7.0376   -4.6893   24.6791 C.ar    1  UNL1        0.0207
     28 C           8.4179   -4.1745   24.9614 C.ar    1  UNL1        0.0989
     29 N           8.7932   -2.7776   24.5638 N.ar    1  UNL1       -0.2423
     30 C           7.7883   -1.8957   23.8840 C.ar    1  UNL1        0.0989
     31 C           4.1378   -0.6958   19.2535 C.3     1  UNL1        0.2841
     32 O           4.7366    0.6774   19.1787 O.3     1  UNL1       -0.3692
     33 H           4.0275    1.3367   19.1206 H       1  UNL1        0.2112
     34 C           4.0076   -0.7204   17.7594 C.3     1  UNL1        0.4312
     35 F           3.8774   -0.7451   16.2653 F       1  UNL1       -0.1669
     36 F           5.5005   -0.7869   17.6304 F       1  UNL1       -0.1669
     37 F           3.1232   -0.6833   17.7274 F       1  UNL1       -0.1669
     38 C           3.5389   -2.0690   19.3284 C.3     1  UNL1        0.4312
     39 F           2.9401   -3.4423   19.4032 F       1  UNL1       -0.1669
     40 F           2.7782   -1.8341   19.7165 F       1  UNL1       -0.1669
     41 F           4.5819   -2.9539   18.7127 F       1  UNL1       -0.1669
@<TRIPOS>BOND
     1    16    17    1
     2    17    18   ar
     3    18    19   ar
     4    19    20   ar
     5    20    13    1
     6    13    14    2
     7    13    15    2
     8    13     7    1
     9     7     8    1
    10     8     9    1
    11     9    10    1
    12    10     1    1
    13     1     2   ar
    14     2     3   ar
    15     3     4   ar
    16     4    31    1
    17    31    32    1
    18    31    34    1
    19    34    35    1
    20    34    36    1
    21    34    37    1
    22    31    38    1
    23    38    39    1
    24    38    40    1
    25    38    41    1
    26     4     5   ar
    27     5     6   ar
    28     6    25    1
    29    25    26   ar
    30    26    27   ar
    31    27    28   ar
    32    28    29   ar
    33    29    30   ar
    34    10    11    1
    35    11    12    1
    36    20    21   ar
    37    21    22   ar
    38    22    17   ar
    39    12     7    1
    40     6     1   ar
    41    30    25   ar
    42    16    23    1
    43    16    24    1
    44    32    33    1
@<TRIPOS>MOLECULE
*****
 41 44 0 0 0
SMALL
GASTEIGER

@<TRIPOS>ATOM
      1 C           4.1949   -0.4450   24.2006 C.ar    1  UNL1        0.1317
      2 N           5.0768   -1.3386   23.3797 N.ar    1  UNL1       -0.2294
      3 C           4.9429   -1.3574   21.8858 C.ar    1  UNL1        0.0988
      4 C           3.9271   -0.4827   21.2128 C.ar    1  UNL1        0.0374
      5 C           3.0452    0.4109   22.0337 C.ar    1  UNL1        0.0029
      6 C           3.1791    0.4297   23.5276 C.ar    1  UNL1        0.0329
      7 N           4.5966   -0.3886   28.6823 N.3     1  UNL1       -0.1520
      8 C           5.4874    0.4742   27.8385 C.3     1  UNL1        0.1173
      9 C           5.3535    0.4554   26.3446 C.3     1  UNL1        0.1113
     10 N           4.3288   -0.4262   25.6945 N.pl3   1  UNL1       -0.2903
     11 C           3.4380   -1.2890   26.5383 C.3     1  UNL1        0.1113
     12 C           3.5719   -1.2702   28.0322 C.3     1  UNL1        0.1173
     13 S           4.7305   -0.3697   30.1762 S.O2    1  UNL1        0.0649
     14 O           6.1765    0.0057   30.0418 O.2     1  UNL1       -0.1527
     15 O           3.2845   -0.7452   30.3105 O.2     1  UNL1       -0.1527
     16 N           5.2661   -0.2945   36.1517 N.pl3   1  UNL1       -0.3426
     17 C           5.1322   -0.3133   34.6578 C.ar    1  UNL1        0.1255
     18 C           4.4199   -1.4477   33.9829 C.ar    1  UNL1        0.0353
     19 C           4.2860   -1.4665   32.4890 C.ar    1  UNL1        0.0244
     20 C           4.8644   -0.3509   31.6701 C.ar    1  UNL1        0.1414
     21 C           5.5767    0.7835   32.3450 C.ar    1  UNL1        0.1201
     22 N           5.7106    0.8023   33.8389 N.ar    1  UNL1       -0.2282
     23 H           4.8864   -1.0267   36.6893 H       1  UNL1        0.1437
     24 H           5.7336    0.4501   36.5947 H       1  UNL1        0.1437
     25 C           2.2972    1.3233   24.3484 C.ar    1  UNL1        0.0219
     26 C           0.8898    0.9078   24.6591 C.ar    1  UNL1        0.0032
     27 C           0.0079    1.8014   25.4800 C.ar    1  UNL1        0.0207
     28 C           0.5334    3.1105   25.9901 C.ar    1  UNL1        0.0989
     29 N           1.9409    3.5259   25.6793 N.ar    1  UNL1       -0.2423
     30 C           2.8227    2.6324   24.8585 C.ar    1  UNL1        0.0989
     31 C           3.7932   -0.5015   19.7189 C.3     1  UNL1        0.2841
     32 O           5.2344   -0.1077   19.5848 O.3     1  UNL1       -0.3692
     33 H           5.2969    0.8519   19.4581 H       1  UNL1        0.2112
     34 C           3.6593   -0.5203   18.2250 C.3     1  UNL1        0.4312
     35 F           3.5254   -0.5391   16.7311 F       1  UNL1       -0.1669
     36 F           3.8560    0.9663   18.1887 F       1  UNL1       -0.1669
     37 F           3.5344   -1.3929   18.1388 F       1  UNL1       -0.1669
     38 C           2.3520   -0.8953   19.8530 C.3     1  UNL1        0.4312
     39 F           0.9109   -1.2890   19.9872 F       1  UNL1       -0.1669
     40 F           2.4915   -1.7016   20.1920 F       1  UNL1       -0.1669
     41 F           1.6006    0.2974   19.3403 F       1  UNL1       -0.1669
@<TRIPOS>BOND
     1    16    17    1
     2    17    18   ar
     3    18    19   ar
     4    19    20   ar
     5    20    13    1
     6    13    14    2
     7    13    15    2
     8    13     7    1
     9     7     8    1
    10     8     9    1
    11     9    10    1
    12    10     1    1
    13     1     2   ar
    14     2     3   ar
    15     3     4   ar
    16     4    31    1
    17    31    32    1
    18    31    34    1
    19    34    35    1
    20    34    36    1
    21    34    37    1
    22    31    38    1
    23    38    39    1
    24    38    40    1
    25    38    41    1
    26     4     5   ar
    27     5     6   ar
    28     6    25    1
    29    25    26   ar
    30    26    27   ar
    31    27    28   ar
    32    28    29   ar
    33    29    30   ar
    34    10    11    1
    35    11    12    1
    36    20    21   ar
    37    21    22   ar
    38    22    17   ar
    39    12     7    1
    40     6     1   ar
    41    30    25   ar
    42    16    23    1
    43    16    24    1
    44    32    33    1
@<TRIPOS>MOLECULE
*****
 41 44 0 0 0
SMALL
GASTEIGER

@<TRIPOS>ATOM
      1 C           4.4172   -0.2869   29.4348 C.ar    1  UNL1        0.1317
      2 N           5.6791   -0.7621   30.0917 N.ar    1  UNL1       -0.2294
      3 C           5.7871   -0.7748   31.5877 C.ar    1  UNL1        0.0988
      4 C           4.6331   -0.3122   32.4269 C.ar    1  UNL1        0.0374
      5 C           3.3712    0.1630   31.7700 C.ar    1  UNL1        0.0029
      6 C           3.2632    0.1757   30.2740 C.ar    1  UNL1        0.0329
      7 N           4.0933   -0.2489   24.9466 N.3     1  UNL1       -0.1520
      8 C           4.4019    1.0186   25.6871 C.3     1  UNL1        0.1173
      9 C           4.5098    1.0059   27.1831 C.3     1  UNL1        0.1113
     10 N           4.3092   -0.2742   27.9387 N.pl3   1  UNL1       -0.2903
     11 C           4.0006   -1.5416   27.1983 C.3     1  UNL1        0.1113
     12 C           3.8926   -1.5290   25.7023 C.3     1  UNL1        0.1173
     13 S           3.9853   -0.2362   23.4506 S.O2    1  UNL1        0.0649
     14 O           2.5116    0.0215   23.5591 O.2     1  UNL1       -0.1527
     15 O           5.4590   -0.4938   23.3420 O.2     1  UNL1       -0.1527
     16 N           3.5534   -0.1855   17.4664 N.pl3   1  UNL1       -0.3426
     17 C           3.6614   -0.1982   18.9624 C.ar    1  UNL1        0.1255
     18 C           2.7211   -1.0380   19.7751 C.ar    1  UNL1        0.0353
     19 C           2.8291   -1.0506   21.2712 C.ar    1  UNL1        0.0244
     20 C           3.8773   -0.2235   21.9545 C.ar    1  UNL1        0.1414
     21 C           4.8176    0.6163   21.1418 C.ar    1  UNL1        0.1201
     22 N           4.7096    0.6289   19.6457 N.ar    1  UNL1       -0.2282
     23 H           2.8654   -0.7284   17.0179 H       1  UNL1        0.1437
     24 H           4.1706    0.3657   16.9329 H       1  UNL1        0.1437
     25 C           2.0011    0.6510   29.6171 C.ar    1  UNL1        0.0219
     26 C           1.7379    2.1207   29.4735 C.ar    1  UNL1        0.0032
     27 C           0.4759    2.5960   28.8167 C.ar    1  UNL1        0.0207
     28 C          -0.5229    1.6015   28.3034 C.ar    1  UNL1        0.0989
     29 N          -0.2596    0.1317   28.4470 N.ar    1  UNL1       -0.2423
     30 C           1.0024   -0.3435   29.1039 C.ar    1  UNL1        0.0989
     31 C           4.7411   -0.3249   33.9230 C.3     1  UNL1        0.2841
     32 O           3.8500   -1.5303   33.9771 O.3     1  UNL1       -0.3692
     33 H           2.9382   -1.2506   34.1541 H       1  UNL1        0.2112
     34 C           4.8491   -0.3375   35.4190 C.3     1  UNL1        0.4312
     35 F           4.9570   -0.3502   36.9151 F       1  UNL1       -0.1669
     36 F           3.8746    0.8000   35.4990 F       1  UNL1       -0.1669
     37 F           5.4279   -1.0051   35.4799 F       1  UNL1       -0.1669
     38 C           5.6322    0.8805   33.8689 C.3     1  UNL1        0.4312
     39 F           6.5233    2.0859   33.8148 F       1  UNL1       -0.1669
     40 F           6.3758    0.4770   34.1312 F       1  UNL1       -0.1669
     41 F           4.7231    1.9840   33.4151 F       1  UNL1       -0.1669
@<TRIPOS>BOND
     1    16    17    1
     2    17    18   ar
     3    18    19   ar
     4    19    20   ar
     5    20    13    1
     6    13    14    2
     7    13    15    2
     8    13     7    1
     9     7     8    1
    10     8     9    1
    11     9    10    1
    12    10     1    1
    13     1     2   ar
    14     2     3   ar
    15     3     4   ar
    16     4    31    1
    17    31    32    1
    18    31    34    1
    19    34    35    1
    20    34    36    1
    21    34    37    1
    22    31    38    1
    23    38    39    1
    24    38    40    1
    25    38    41    1
    26     4     5   ar
    27     5     6   ar
    28     6    25    1
    29    25    26   ar
    30    26    27   ar
    31    27    28   ar
    32    28    29   ar
    33    29    30   ar
    34    10    11    1
    35    11    12    1
    36    20    21   ar
    37    21    22   ar
    38    22    17   ar
    39    12     7    1
    40     6     1   ar
    41    30    25   ar
    42    16    23    1
    43    16    24    1
    44    32    33    1
@<TRIPOS>MOLECULE
*****
 41 44 0 0 0
SMALL
GASTEIGER

@<TRIPOS>ATOM
      1 C          -1.7398    3.1425   25.1841 C.ar    1  UNL1        0.1317
      2 N          -3.2106    3.4367   25.1839 N.ar    1  UNL1       -0.2294
      3 C          -3.9239    3.6934   23.8896 C.ar    1  UNL1        0.0988
      4 C          -3.1665    3.6558   22.5955 C.ar    1  UNL1        0.0374
      5 C          -1.6956    3.3616   22.5957 C.ar    1  UNL1        0.0029
      6 C          -0.9823    3.1049   23.8900 C.ar    1  UNL1        0.0329
      7 N           0.4003    2.3724   29.0671 N.3     1  UNL1       -0.1520
      8 C           0.3015    3.7692   28.5293 C.3     1  UNL1        0.1173
      9 C          -0.4119    4.0259   27.2350 C.3     1  UNL1        0.1113
     10 N          -1.0264    2.8858   26.4784 N.pl3   1  UNL1       -0.2903
     11 C          -0.9276    1.4890   27.0161 C.3     1  UNL1        0.1113
     12 C          -0.2142    1.2323   28.3104 C.3     1  UNL1        0.1173
     13 S           1.1136    2.1157   30.3614 S.O2    1  UNL1        0.0649
     14 O           1.0276    0.6384   30.1158 O.2     1  UNL1       -0.1527
     15 O           1.1997    3.5930   30.6069 O.2     1  UNL1       -0.1527
     16 N           3.9670    1.0890   35.5386 N.pl3   1  UNL1       -0.3426
     17 C           3.2537    1.3456   34.2443 C.ar    1  UNL1        0.1255
     18 C           2.2764    2.4786   34.1384 C.ar    1  UNL1        0.0353
     19 C           1.5631    2.7353   32.8441 C.ar    1  UNL1        0.0244
     20 C           1.8270    1.8590   31.6557 C.ar    1  UNL1        0.1414
     21 C           2.8042    0.7260   31.7616 C.ar    1  UNL1        0.1201
     22 N           3.5176    0.4693   33.0559 N.ar    1  UNL1       -0.2282
     23 H           3.7938    1.6641   36.3186 H       1  UNL1        0.1437
     24 H           4.6084    0.3453   35.6081 H       1  UNL1        0.1437
     25 C           0.4886    2.8106   23.8902 C.ar    1  UNL1        0.0219
     26 C           1.4781    3.9337   23.9877 C.ar    1  UNL1        0.0032
     27 C           2.9490    3.6394   23.9879 C.ar    1  UNL1        0.0207
     28 C           3.4304    2.2221   23.8905 C.ar    1  UNL1        0.0989
     29 N           2.4407    1.0990   23.7929 N.ar    1  UNL1       -0.2423
     30 C           0.9699    1.3933   23.7927 C.ar    1  UNL1        0.0989
     31 C          -3.8798    3.9125   21.3012 C.3     1  UNL1        0.2841
     32 O          -4.3633    2.4927   21.2861 O.3     1  UNL1       -0.3692
     33 H          -3.7760    1.9570   20.7303 H       1  UNL1        0.2112
     34 C          -4.5931    4.1692   20.0069 C.3     1  UNL1        0.4312
     35 F          -5.3065    4.4259   18.7125 F       1  UNL1       -0.1669
     36 F          -3.6310    3.2635   19.2970 F       1  UNL1       -0.1669
     37 F          -5.2084    4.7185   20.3297 F       1  UNL1       -0.1669
     38 C          -3.3963    5.3324   21.3163 C.3     1  UNL1        0.4312
     39 F          -2.9127    6.7522   21.3314 F       1  UNL1       -0.1669
     40 F          -3.9190    5.6175   21.9719 F       1  UNL1       -0.1669
     41 F          -2.3562    5.3731   20.2362 F       1  UNL1       -0.1669
@<TRIPOS>BOND
     1    16    17    1
     2    17    18   ar
     3    18    19   ar
     4    19    20   ar
     5    20    13    1
     6    13    14    2
     7    13    15    2
     8    13     7    1
     9     7     8    1
    10     8     9    1
    11     9    10    1
    12    10     1    1
    13     1     2   ar
    14     2     3   ar
    15     3     4   ar
    16     4    31    1
    17    31    32    1
    18    31    34    1
    19    34    35    1
    20    34    36    1
    21    34    37    1
    22    31    38    1
    23    38    39    1
    24    38    40    1
    25    38    41    1
    26     4     5   ar
    27     5     6   ar
    28     6    25    1
    29    25    26   ar
    30    26    27   ar
    31    27    28   ar
    32    28    29   ar
    33    29    30   ar
    34    10    11    1
    35    11    12    1
    36    20    21   ar
    37    21    22   ar
    38    22    17   ar
    39    12     7    1
    40     6     1   ar
    41    30    25   ar
    42    16    23    1
    43    16    24    1
    44    32    33    1
