@<TRIPOS>MOLECULE
*****
 31 33 0 0 0
SMALL
GASTEIGER

@<TRIPOS>ATOM
      1 C          -7.6898  -17.0556   23.2764 C.ar    1  UNL1        0.1572
      2 C          -6.4520  -17.5677   22.6015 C.ar    1  UNL1        0.0377
      3 C          -6.3689  -19.0039   22.1768 C.ar    1  UNL1        0.0519
      4 C          -7.5236  -19.9280   22.4271 C.ar    1  UNL1        0.0179
      5 C          -8.7614  -19.4159   23.1020 C.ar    1  UNL1        0.0402
      6 C          -8.8445  -17.9797   23.5267 C.ar    1  UNL1        0.1638
      7 N          -7.8560  -14.1831   24.1258 N.3     1  UNL1       -0.2034
      8 S          -7.7729  -15.6193   23.7011 S.O2    1  UNL1        0.0601
      9 O          -7.8667  -15.1998   22.2640 O.2     1  UNL1       -0.1531
     10 O          -7.6791  -16.0388   25.1382 O.2     1  UNL1       -0.1531
     11 H          -8.8220  -13.8633   24.0561 H       1  UNL1        0.1442
     12 H          -7.2650  -13.6145   23.5193 H       1  UNL1        0.1442
     13 N          -5.1310  -19.5160   21.5019 N.am    1  UNL1       -0.2836
     14 C          -3.8031  -19.4118   22.1915 C.2     1  UNL1        0.2305
     15 O          -3.7129  -18.7954   23.5561 O.2     1  UNL1       -0.2744
     16 H          -5.1902  -19.9206   20.6063 H       1  UNL1        0.1549
     17 C          -2.5652  -19.9238   21.5166 C.3     1  UNL1        0.1116
     18 C          -1.8616  -19.0771   20.4978 C.ar    1  UNL1       -0.0131
     19 C          -0.4861  -18.5505   20.7812 C.ar    1  UNL1       -0.0038
     20 C           0.2175  -17.7038   19.7623 C.ar    1  UNL1       -0.0003
     21 C          -0.4544  -17.3838   18.4600 C.ar    1  UNL1       -0.0000
     22 C          -1.8301  -17.9105   18.1765 C.ar    1  UNL1       -0.0003
     23 C          -2.5337  -18.7572   19.1954 C.ar    1  UNL1       -0.0038
     24 O         -10.0823  -17.4676   24.2017 O.3     1  UNL1       -0.4521
     25 C         -11.4222  -17.6559   23.5541 C.ar    1  UNL1        0.1462
     26 C         -11.5709  -17.4764   22.0723 C.ar    1  UNL1        0.0375
     27 C         -12.9108  -17.6647   21.4248 C.ar    1  UNL1        0.0040
     28 C         -14.1019  -18.0325   22.2591 C.ar    1  UNL1        0.0116
     29 C         -13.9532  -18.2120   23.7408 C.ar    1  UNL1        0.0607
     30 CL        -15.1443  -18.5798   24.5751 Cl      1  UNL1       -0.0821
     31 C         -12.6133  -18.0237   24.3884 C.ar    1  UNL1        0.0489
@<TRIPOS>BOND
     1     7     8    1
     2     8     9    2
     3     8    10    2
     4     8     1    1
     5     1     2   ar
     6     2     3   ar
     7     3    13    1
     8    13    14   am
     9    14    15    2
    10    14    17    1
    11    17    18    1
    12    18    19   ar
    13    19    20   ar
    14    20    21   ar
    15    21    22   ar
    16    22    23   ar
    17     3     4   ar
    18     4     5   ar
    19     5     6   ar
    20     6    24    1
    21    24    25    1
    22    25    26   ar
    23    26    27   ar
    24    27    28   ar
    25    28    29   ar
    26    29    30    1
    27    29    31   ar
    28     6     1   ar
    29    31    25   ar
    30    23    18   ar
    31     7    11    1
    32     7    12    1
    33    13    16    1
@<TRIPOS>MOLECULE
*****
 31 33 0 0 0
SMALL
GASTEIGER

@<TRIPOS>ATOM
      1 C          -5.3012  -18.9605   22.1431 C.ar    1  UNL1        0.1572
      2 C          -6.7860  -18.7524   22.1860 C.ar    1  UNL1        0.0377
      3 C          -7.6715  -19.4624   21.2053 C.ar    1  UNL1        0.0519
      4 C          -7.0721  -20.3805   20.1817 C.ar    1  UNL1        0.0179
      5 C          -5.5873  -20.5886   20.1388 C.ar    1  UNL1        0.0402
      6 C          -4.7018  -19.8786   21.1195 C.ar    1  UNL1        0.1638
      7 N          -3.5302  -17.5405   24.1046 N.3     1  UNL1       -0.2034
      8 S          -4.4157  -18.2505   23.1239 S.O2    1  UNL1        0.0601
      9 O          -3.6996  -19.5374   23.4089 O.2     1  UNL1       -0.1531
     10 O          -5.1318  -16.9637   22.8388 O.2     1  UNL1       -0.1531
     11 H          -2.6163  -17.3781   23.6818 H       1  UNL1        0.1442
     12 H          -3.4208  -18.1140   24.9410 H       1  UNL1        0.1442
     13 N          -9.1564  -19.2543   21.2482 N.am    1  UNL1       -0.2836
     14 C          -9.7175  -17.8644   21.3070 C.2     1  UNL1        0.2305
     15 O          -8.7937  -16.6827   21.3229 O.2     1  UNL1       -0.2744
     16 H          -9.7627  -20.0299   21.2378 H       1  UNL1        0.1549
     17 C         -11.2024  -17.6563   21.3499 C.3     1  UNL1        0.1116
     18 C         -11.9681  -17.9720   22.6005 C.ar    1  UNL1       -0.0131
     19 C         -11.2789  -18.6390   23.7537 C.ar    1  UNL1       -0.0038
     20 C         -12.0447  -18.9548   25.0043 C.ar    1  UNL1       -0.0003
     21 C         -13.4997  -18.6034   25.1016 C.ar    1  UNL1       -0.0000
     22 C         -14.1890  -17.9363   23.9483 C.ar    1  UNL1       -0.0003
     23 C         -13.4232  -17.6206   22.6978 C.ar    1  UNL1       -0.0038
     24 O          -3.2169  -20.0867   21.0766 O.3     1  UNL1       -0.4521
     25 C          -2.3540  -19.1682   20.2633 C.ar    1  UNL1        0.1462
     26 C          -2.8609  -18.6188   18.9627 C.ar    1  UNL1        0.0375
     27 C          -1.9979  -17.7002   18.1494 C.ar    1  UNL1        0.0040
     28 C          -0.6282  -17.3309   18.6366 C.ar    1  UNL1        0.0116
     29 C          -0.1213  -17.8802   19.9371 C.ar    1  UNL1        0.0607
     30 CL          1.2484  -17.5109   20.4243 Cl      1  UNL1       -0.0821
     31 C          -0.9842  -18.7988   20.7504 C.ar    1  UNL1        0.0489
@<TRIPOS>BOND
     1     7     8    1
     2     8     9    2
     3     8    10    2
     4     8     1    1
     5     1     2   ar
     6     2     3   ar
     7     3    13    1
     8    13    14   am
     9    14    15    2
    10    14    17    1
    11    17    18    1
    12    18    19   ar
    13    19    20   ar
    14    20    21   ar
    15    21    22   ar
    16    22    23   ar
    17     3     4   ar
    18     4     5   ar
    19     5     6   ar
    20     6    24    1
    21    24    25    1
    22    25    26   ar
    23    26    27   ar
    24    27    28   ar
    25    28    29   ar
    26    29    30    1
    27    29    31   ar
    28     6     1   ar
    29    31    25   ar
    30    23    18   ar
    31     7    11    1
    32     7    12    1
    33    13    16    1
@<TRIPOS>MOLECULE
*****
 31 33 0 0 0
SMALL
GASTEIGER

@<TRIPOS>ATOM
      1 C          -7.5442  -17.0232   23.2814 C.ar    1  UNL1        0.1572
      2 C          -6.2847  -17.5069   22.6259 C.ar    1  UNL1        0.0377
      3 C          -6.1762  -18.9317   22.1695 C.ar    1  UNL1        0.0519
      4 C          -7.3271  -19.8728   22.3687 C.ar    1  UNL1        0.0179
      5 C          -8.5865  -19.3891   23.0243 C.ar    1  UNL1        0.0402
      6 C          -8.6951  -17.9643   23.4806 C.ar    1  UNL1        0.1638
      7 N          -7.7612  -14.1737   24.1941 N.3     1  UNL1       -0.2034
      8 S          -7.6527  -15.5985   23.7378 S.O2    1  UNL1        0.0601
      9 O          -7.4725  -16.0403   25.1599 O.2     1  UNL1       -0.1531
     10 O          -7.8329  -15.1567   22.3157 O.2     1  UNL1       -0.1531
     11 H          -6.8321  -13.8160   24.4160 H       1  UNL1        0.1442
     12 H          -8.3509  -14.1268   25.0251 H       1  UNL1        0.1442
     13 N          -4.9167  -19.4154   21.5139 N.am    1  UNL1       -0.2836
     14 C          -3.6124  -19.3447   22.2515 C.2     1  UNL1        0.2305
     15 O          -3.5677  -18.7903   23.6446 O.2     1  UNL1       -0.2744
     16 H          -4.9460  -19.7792   20.5996 H       1  UNL1        0.1549
     17 C          -2.3529  -19.8283   21.5959 C.3     1  UNL1        0.1116
     18 C          -1.7105  -19.0133   20.5129 C.ar    1  UNL1       -0.0131
     19 C          -0.3058  -18.5151   20.6823 C.ar    1  UNL1       -0.0038
     20 C           0.3366  -17.7001   19.5992 C.ar    1  UNL1       -0.0003
     21 C          -0.4255  -17.3833   18.3468 C.ar    1  UNL1       -0.0000
     22 C          -1.8302  -17.8815   18.1773 C.ar    1  UNL1       -0.0003
     23 C          -2.4727  -18.6965   19.2603 C.ar    1  UNL1       -0.0038
     24 O          -9.9546  -17.4807   24.1362 O.3     1  UNL1       -0.4521
     25 C         -11.2381  -17.4461   23.3608 C.ar    1  UNL1        0.1462
     26 C         -12.4665  -18.1058   23.9139 C.ar    1  UNL1        0.0375
     27 C         -13.7501  -18.0712   23.1384 C.ar    1  UNL1        0.0040
     28 C         -13.8052  -17.3769   21.8100 C.ar    1  UNL1        0.0116
     29 C         -12.5769  -16.7172   21.2569 C.ar    1  UNL1        0.0607
     30 CL        -12.6320  -16.0229   19.9284 Cl      1  UNL1       -0.0821
     31 C         -11.2933  -16.7518   22.0323 C.ar    1  UNL1        0.0489
@<TRIPOS>BOND
     1     7     8    1
     2     8     9    2
     3     8    10    2
     4     8     1    1
     5     1     2   ar
     6     2     3   ar
     7     3    13    1
     8    13    14   am
     9    14    15    2
    10    14    17    1
    11    17    18    1
    12    18    19   ar
    13    19    20   ar
    14    20    21   ar
    15    21    22   ar
    16    22    23   ar
    17     3     4   ar
    18     4     5   ar
    19     5     6   ar
    20     6    24    1
    21    24    25    1
    22    25    26   ar
    23    26    27   ar
    24    27    28   ar
    25    28    29   ar
    26    29    30    1
    27    29    31   ar
    28     6     1   ar
    29    31    25   ar
    30    23    18   ar
    31     7    11    1
    32     7    12    1
    33    13    16    1
@<TRIPOS>MOLECULE
*****
 31 33 0 0 0
SMALL
GASTEIGER

@<TRIPOS>ATOM
      1 C           6.0294   -2.0071   19.3975 C.ar    1  UNL1        0.1572
      2 C           7.0622   -2.5221   20.3557 C.ar    1  UNL1        0.0377
      3 C           6.6436   -3.3402   21.5413 C.ar    1  UNL1        0.0519
      4 C           5.1923   -3.6432   21.7687 C.ar    1  UNL1        0.0179
      5 C           4.1595   -3.1282   20.8105 C.ar    1  UNL1        0.0402
      6 C           4.5781   -2.3102   19.6250 C.ar    1  UNL1        0.1638
      7 N           6.8666   -0.3710   17.0264 N.3     1  UNL1       -0.2034
      8 S           6.4480   -1.1891   18.2120 S.O2    1  UNL1        0.0601
      9 O           6.6236   -2.4435   17.4084 O.2     1  UNL1       -0.1531
     10 O           6.2723    0.0653   19.0155 O.2     1  UNL1       -0.1531
     11 H           6.0938   -0.3134   16.3632 H       1  UNL1        0.1442
     12 H           7.6690   -0.8110   16.5760 H       1  UNL1        0.1442
     13 N           7.6765   -3.8552   22.4995 N.am    1  UNL1       -0.2836
     14 C           8.4520   -5.0963   22.1705 C.2     1  UNL1        0.2305
     15 O           8.1947   -5.8224   20.8833 O.2     1  UNL1       -0.2744
     16 H           7.8453   -3.3787   23.3442 H       1  UNL1        0.1549
     17 C           9.4848   -5.6114   23.1286 C.3     1  UNL1        0.1116
     18 C           9.0659   -6.1529   24.4632 C.ar    1  UNL1       -0.0131
     19 C           8.1771   -7.3588   24.5379 C.ar    1  UNL1       -0.0038
     20 C           7.7582   -7.9004   25.8726 C.ar    1  UNL1       -0.0003
     21 C           8.2282   -7.2359   27.1326 C.ar    1  UNL1       -0.0000
     22 C           9.1170   -6.0299   27.0579 C.ar    1  UNL1       -0.0003
     23 C           9.5359   -5.4883   25.7233 C.ar    1  UNL1       -0.0038
     24 O           3.5452   -1.7951   18.6668 O.3     1  UNL1       -0.4521
     25 C           2.6252   -0.6852   19.0810 C.ar    1  UNL1        0.1462
     26 C           1.5143   -0.9549   20.0522 C.ar    1  UNL1        0.0375
     27 C           0.5943    0.1551   20.4664 C.ar    1  UNL1        0.0040
     28 C           0.7851    1.5346   19.9093 C.ar    1  UNL1        0.0116
     29 C           1.8959    1.8043   18.9381 C.ar    1  UNL1        0.0607
     30 CL          2.0867    3.1839   18.3811 Cl      1  UNL1       -0.0821
     31 C           2.8160    0.6944   18.5239 C.ar    1  UNL1        0.0489
@<TRIPOS>BOND
     1     7     8    1
     2     8     9    2
     3     8    10    2
     4     8     1    1
     5     1     2   ar
     6     2     3   ar
     7     3    13    1
     8    13    14   am
     9    14    15    2
    10    14    17    1
    11    17    18    1
    12    18    19   ar
    13    19    20   ar
    14    20    21   ar
    15    21    22   ar
    16    22    23   ar
    17     3     4   ar
    18     4     5   ar
    19     5     6   ar
    20     6    24    1
    21    24    25    1
    22    25    26   ar
    23    26    27   ar
    24    27    28   ar
    25    28    29   ar
    26    29    30    1
    27    29    31   ar
    28     6     1   ar
    29    31    25   ar
    30    23    18   ar
    31     7    11    1
    32     7    12    1
    33    13    16    1
@<TRIPOS>MOLECULE
*****
 31 33 0 0 0
SMALL
GASTEIGER

@<TRIPOS>ATOM
      1 C           4.4269   -3.4399   20.8551 C.ar    1  UNL1        0.1572
      2 C           5.0906   -3.9039   22.1177 C.ar    1  UNL1        0.0377
      3 C           4.9837   -3.0811   23.3673 C.ar    1  UNL1        0.0519
      4 C           4.2132   -1.7943   23.3543 C.ar    1  UNL1        0.0179
      5 C           3.5495   -1.3302   22.0917 C.ar    1  UNL1        0.0402
      6 C           3.6564   -2.1530   20.8421 C.ar    1  UNL1        0.1638
      7 N           4.6407   -5.0855   18.3558 N.3     1  UNL1       -0.2034
      8 S           4.5338   -4.2627   19.6055 S.O2    1  UNL1        0.0601
      9 O           5.5289   -3.2881   19.0488 O.2     1  UNL1       -0.1531
     10 O           3.5387   -5.2374   20.1621 O.2     1  UNL1       -0.1531
     11 H           5.5065   -5.6244   18.3766 H       1  UNL1        0.1442
     12 H           4.6427   -4.4699   17.5426 H       1  UNL1        0.1442
     13 N           5.6474   -3.5452   24.6299 N.am    1  UNL1       -0.2836
     14 C           7.1308   -3.3969   24.7957 C.2     1  UNL1        0.2305
     15 O           7.9506   -2.7845   23.6988 O.2     1  UNL1       -0.2744
     16 H           5.1094   -3.9472   25.3498 H       1  UNL1        0.1549
     17 C           7.7946   -3.8610   26.0582 C.3     1  UNL1        0.1116
     18 C           7.9105   -5.3279   26.3491 C.ar    1  UNL1       -0.0131
     19 C           7.8143   -6.3240   25.2318 C.ar    1  UNL1       -0.0038
     20 C           7.9302   -7.7910   25.5227 C.ar    1  UNL1       -0.0003
     21 C           8.1424   -8.2618   26.9309 C.ar    1  UNL1       -0.0000
     22 C           8.2386   -7.2657   28.0484 C.ar    1  UNL1       -0.0003
     23 C           8.1227   -5.7988   27.7575 C.ar    1  UNL1       -0.0038
     24 O           2.9927   -1.6889   19.5795 O.3     1  UNL1       -0.4521
     25 C           2.2333   -0.3955   19.5631 C.ar    1  UNL1        0.1462
     26 C           0.8730   -0.3164   20.1901 C.ar    1  UNL1        0.0375
     27 C           0.1136    0.9772   20.1736 C.ar    1  UNL1        0.0040
     28 C           0.7146    2.1915   19.5302 C.ar    1  UNL1        0.0116
     29 C           2.0750    2.1125   18.9032 C.ar    1  UNL1        0.0607
     30 CL          2.6760    3.3268   18.2598 Cl      1  UNL1       -0.0821
     31 C           2.8344    0.8190   18.9196 C.ar    1  UNL1        0.0489
@<TRIPOS>BOND
     1     7     8    1
     2     8     9    2
     3     8    10    2
     4     8     1    1
     5     1     2   ar
     6     2     3   ar
     7     3    13    1
     8    13    14   am
     9    14    15    2
    10    14    17    1
    11    17    18    1
    12    18    19   ar
    13    19    20   ar
    14    20    21   ar
    15    21    22   ar
    16    22    23   ar
    17     3     4   ar
    18     4     5   ar
    19     5     6   ar
    20     6    24    1
    21    24    25    1
    22    25    26   ar
    23    26    27   ar
    24    27    28   ar
    25    28    29   ar
    26    29    30    1
    27    29    31   ar
    28     6     1   ar
    29    31    25   ar
    30    23    18   ar
    31     7    11    1
    32     7    12    1
    33    13    16    1
@<TRIPOS>MOLECULE
*****
 31 33 0 0 0
SMALL
GASTEIGER

@<TRIPOS>ATOM
      1 C           3.6352   -0.4979   18.5141 C.ar    1  UNL1        0.1572
      2 C           2.7860    0.6610   18.0830 C.ar    1  UNL1        0.0377
      3 C           1.4356    0.8721   18.7009 C.ar    1  UNL1        0.0519
      4 C           0.9344   -0.0756   19.7500 C.ar    1  UNL1        0.0179
      5 C           1.7835   -1.2345   20.1811 C.ar    1  UNL1        0.0402
      6 C           3.1339   -1.4456   19.5631 C.ar    1  UNL1        0.1638
      7 N           6.3359   -0.9203   17.2781 N.3     1  UNL1       -0.2034
      8 S           4.9855   -0.7091   17.8961 S.O2    1  UNL1        0.0601
      9 O           5.6344   -0.1141   19.1106 O.2     1  UNL1       -0.1531
     10 O           4.3367   -1.3041   16.6816 O.2     1  UNL1       -0.1531
     11 H           6.7820   -1.7321   17.7051 H       1  UNL1        0.1442
     12 H           6.9137   -0.0941   17.4332 H       1  UNL1        0.1442
     13 N           0.5865    2.0311   18.2698 N.am    1  UNL1       -0.2836
     14 C           0.4656    3.2403   19.1491 C.2     1  UNL1        0.2305
     15 O           1.1939    3.2906   20.4595 O.2     1  UNL1       -0.2744
     16 H           0.1085    1.9981   17.4098 H       1  UNL1        0.1549
     17 C          -0.3835    4.3992   18.7180 C.3     1  UNL1        0.1116
     18 C          -1.8055    4.1720   18.2982 C.ar    1  UNL1       -0.0131
     19 C          -2.8903    4.1005   19.3317 C.ar    1  UNL1       -0.0038
     20 C          -4.3123    3.8733   18.9120 C.ar    1  UNL1       -0.0003
     21 C          -4.6496    3.7174   17.4587 C.ar    1  UNL1       -0.0000
     22 C          -3.5648    3.7889   16.4252 C.ar    1  UNL1       -0.0003
     23 C          -2.1428    4.0161   16.8449 C.ar    1  UNL1       -0.0038
     24 O           3.9831   -2.6046   19.9943 O.3     1  UNL1       -0.4521
     25 C           4.4783   -2.6867   21.4077 C.ar    1  UNL1        0.1462
     26 C           3.8796   -1.8065   22.4645 C.ar    1  UNL1        0.0375
     27 C           4.3748   -1.8886   23.8781 C.ar    1  UNL1        0.0040
     28 C           5.4687   -2.8508   24.2348 C.ar    1  UNL1        0.0116
     29 C           6.0675   -3.7311   23.1780 C.ar    1  UNL1        0.0607
     30 CL          7.1614   -4.6933   23.5347 Cl      1  UNL1       -0.0821
     31 C           5.5723   -3.6490   21.7645 C.ar    1  UNL1        0.0489
@<TRIPOS>BOND
     1     7     8    1
     2     8     9    2
     3     8    10    2
     4     8     1    1
     5     1     2   ar
     6     2     3   ar
     7     3    13    1
     8    13    14   am
     9    14    15    2
    10    14    17    1
    11    17    18    1
    12    18    19   ar
    13    19    20   ar
    14    20    21   ar
    15    21    22   ar
    16    22    23   ar
    17     3     4   ar
    18     4     5   ar
    19     5     6   ar
    20     6    24    1
    21    24    25    1
    22    25    26   ar
    23    26    27   ar
    24    27    28   ar
    25    28    29   ar
    26    29    30    1
    27    29    31   ar
    28     6     1   ar
    29    31    25   ar
    30    23    18   ar
    31     7    11    1
    32     7    12    1
    33    13    16    1
@<TRIPOS>MOLECULE
*****
 31 33 0 0 0
SMALL
GASTEIGER

@<TRIPOS>ATOM
      1 C           4.0641   -1.9216   20.2812 C.ar    1  UNL1        0.1572
      2 C           4.6809   -2.6833   21.4166 C.ar    1  UNL1        0.0377
      3 C           4.2997   -2.3605   22.8310 C.ar    1  UNL1        0.0519
      4 C           3.3018   -1.2759   23.1099 C.ar    1  UNL1        0.0179
      5 C           2.6850   -0.5142   21.9745 C.ar    1  UNL1        0.0402
      6 C           3.0662   -0.8370   20.5601 C.ar    1  UNL1        0.1638
      7 N           4.8264   -2.5672   17.4524 N.3     1  UNL1       -0.2034
      8 S           4.4453   -2.2444   18.8668 S.O2    1  UNL1        0.0601
      9 O           5.4493   -1.1301   18.8830 O.2     1  UNL1       -0.1531
     10 O           3.4413   -3.3587   18.8505 O.2     1  UNL1       -0.1531
     11 H           5.7119   -3.0734   17.4460 H       1  UNL1        0.1442
     12 H           4.9254   -1.7022   16.9210 H       1  UNL1        0.1442
     13 N           4.9166   -3.1222   23.9665 N.am    1  UNL1       -0.2836
     14 C           6.2379   -2.6898   24.5296 C.2     1  UNL1        0.2305
     15 O           6.9424   -1.4955   23.9572 O.2     1  UNL1       -0.2744
     16 H           4.4542   -3.9060   24.3421 H       1  UNL1        0.1549
     17 C           6.8547   -3.4515   25.6650 C.3     1  UNL1        0.1116
     18 C           7.2215   -4.8952   25.4881 C.ar    1  UNL1       -0.0131
     19 C           7.8945   -5.3488   24.2267 C.ar    1  UNL1       -0.0038
     20 C           8.2613   -6.7925   24.0497 C.ar    1  UNL1       -0.0003
     21 C           7.9551   -7.7825   25.1342 C.ar    1  UNL1       -0.0000
     22 C           7.2820   -7.3288   26.3957 C.ar    1  UNL1       -0.0003
     23 C           6.9153   -5.8852   26.5727 C.ar    1  UNL1       -0.0038
     24 O           2.4494   -0.0752   19.4246 O.3     1  UNL1       -0.4521
     25 C           1.8462    1.2764   19.6682 C.ar    1  UNL1        0.1462
     26 C           2.7138    2.4998   19.6461 C.ar    1  UNL1        0.0375
     27 C           2.1106    3.8515   19.8897 C.ar    1  UNL1        0.0040
     28 C           0.6399    3.9796   20.1555 C.ar    1  UNL1        0.0116
     29 C          -0.2276    2.7562   20.1775 C.ar    1  UNL1        0.0607
     30 CL         -1.6983    2.8843   20.4432 Cl      1  UNL1       -0.0821
     31 C           0.3755    1.4046   19.9339 C.ar    1  UNL1        0.0489
@<TRIPOS>BOND
     1     7     8    1
     2     8     9    2
     3     8    10    2
     4     8     1    1
     5     1     2   ar
     6     2     3   ar
     7     3    13    1
     8    13    14   am
     9    14    15    2
    10    14    17    1
    11    17    18    1
    12    18    19   ar
    13    19    20   ar
    14    20    21   ar
    15    21    22   ar
    16    22    23   ar
    17     3     4   ar
    18     4     5   ar
    19     5     6   ar
    20     6    24    1
    21    24    25    1
    22    25    26   ar
    23    26    27   ar
    24    27    28   ar
    25    28    29   ar
    26    29    30    1
    27    29    31   ar
    28     6     1   ar
    29    31    25   ar
    30    23    18   ar
    31     7    11    1
    32     7    12    1
    33    13    16    1
@<TRIPOS>MOLECULE
*****
 31 33 0 0 0
SMALL
GASTEIGER

@<TRIPOS>ATOM
      1 C           3.5189   -0.2717   18.3272 C.ar    1  UNL1        0.1572
      2 C           2.5331    0.8581   18.3663 C.ar    1  UNL1        0.0377
      3 C           1.3263    0.7701   19.2528 C.ar    1  UNL1        0.0519
      4 C           1.1053   -0.4478   20.1002 C.ar    1  UNL1        0.0179
      5 C           2.0912   -1.5776   20.0610 C.ar    1  UNL1        0.0402
      6 C           3.2980   -1.4895   19.1746 C.ar    1  UNL1        0.1638
      7 N           5.9326   -0.0957   16.5542 N.3     1  UNL1       -0.2034
      8 S           4.7258   -0.1837   17.4407 S.O2    1  UNL1        0.0601
      9 O           3.9733   -0.8819   16.3470 O.2     1  UNL1       -0.1531
     10 O           5.4783    0.5145   18.5344 O.2     1  UNL1       -0.1531
     11 H           5.7996    0.6509   15.8721 H       1  UNL1        0.1442
     12 H           6.0619   -0.9824   16.0670 H       1  UNL1        0.1442
     13 N           0.3404    1.8999   19.2919 N.am    1  UNL1       -0.2836
     14 C           0.1135    2.6535   20.5689 C.2     1  UNL1        0.2305
     15 O           0.8725    2.2771   21.8068 O.2     1  UNL1       -0.2744
     16 H          -0.1578    2.1469   18.4794 H       1  UNL1        0.1549
     17 C          -0.8723    3.7833   20.6080 C.3     1  UNL1        0.1116
     18 C          -2.1905    3.6048   21.3012 C.ar    1  UNL1       -0.0131
     19 C          -3.4109    3.2392   20.5094 C.ar    1  UNL1       -0.0038
     20 C          -4.7291    3.0608   21.2026 C.ar    1  UNL1       -0.0003
     21 C          -4.8269    3.2479   22.6876 C.ar    1  UNL1       -0.0000
     22 C          -3.6065    3.6135   23.4795 C.ar    1  UNL1       -0.0003
     23 C          -2.2883    3.7920   22.7863 C.ar    1  UNL1       -0.0038
     24 O           4.2839   -2.6194   19.1355 O.3     1  UNL1       -0.4521
     25 C           5.1899   -2.8651   20.3054 C.ar    1  UNL1        0.1462
     26 C           4.6450   -3.4819   21.5594 C.ar    1  UNL1        0.0375
     27 C           5.5511   -3.7276   22.7294 C.ar    1  UNL1        0.0040
     28 C           7.0020   -3.3563   22.6453 C.ar    1  UNL1        0.0116
     29 C           7.5468   -2.7395   21.3913 C.ar    1  UNL1        0.0607
     30 CL          8.9977   -2.3682   21.3071 Cl      1  UNL1       -0.0821
     31 C           6.6408   -2.4938   20.2213 C.ar    1  UNL1        0.0489
@<TRIPOS>BOND
     1     7     8    1
     2     8     9    2
     3     8    10    2
     4     8     1    1
     5     1     2   ar
     6     2     3   ar
     7     3    13    1
     8    13    14   am
     9    14    15    2
    10    14    17    1
    11    17    18    1
    12    18    19   ar
    13    19    20   ar
    14    20    21   ar
    15    21    22   ar
    16    22    23   ar
    17     3     4   ar
    18     4     5   ar
    19     5     6   ar
    20     6    24    1
    21    24    25    1
    22    25    26   ar
    23    26    27   ar
    24    27    28   ar
    25    28    29   ar
    26    29    30    1
    27    29    31   ar
    28     6     1   ar
    29    31    25   ar
    30    23    18   ar
    31     7    11    1
    32     7    12    1
    33    13    16    1
@<TRIPOS>MOLECULE
*****
 31 33 0 0 0
SMALL
GASTEIGER

@<TRIPOS>ATOM
      1 C           4.4188   -0.5356   32.2874 C.ar    1  UNL1        0.1572
      2 C           4.0980   -0.0694   33.6765 C.ar    1  UNL1        0.0377
      3 C           5.1955    0.0888   34.6867 C.ar    1  UNL1        0.0519
      4 C           6.6137   -0.2191   34.3078 C.ar    1  UNL1        0.0179
      5 C           6.9345   -0.6852   32.9186 C.ar    1  UNL1        0.0402
      6 C           5.8371   -0.8435   31.9084 C.ar    1  UNL1        0.1638
      7 N           2.2239   -0.8521   30.2669 N.3     1  UNL1       -0.2034
      8 S           3.3213   -0.6939   31.2771 S.O2    1  UNL1        0.0601
      9 O           3.5309    0.7218   30.8277 O.2     1  UNL1       -0.1531
     10 O           3.1118   -2.1095   31.7266 O.2     1  UNL1       -0.1531
     11 H           2.6305   -0.9772   29.3399 H       1  UNL1        0.1442
     12 H           1.6356   -0.0188   30.2706 H       1  UNL1        0.1442
     13 N           4.8746    0.5550   36.0759 N.am    1  UNL1       -0.2836
     14 C           4.6314    2.0112   36.3408 C.2     1  UNL1        0.2305
     15 O           4.7091    3.0013   35.2166 O.2     1  UNL1       -0.2744
     16 H           4.8236   -0.0948   36.8137 H       1  UNL1        0.1549
     17 C           4.3105    2.4775   37.7299 C.3     1  UNL1        0.1116
     18 C           2.9980    2.1140   38.3586 C.ar    1  UNL1       -0.0131
     19 C           1.8883    3.1217   38.4139 C.ar    1  UNL1       -0.0038
     20 C           0.5758    2.7582   39.0426 C.ar    1  UNL1       -0.0003
     21 C           0.3730    1.3871   39.6160 C.ar    1  UNL1       -0.0000
     22 C           1.4828    0.3793   39.5608 C.ar    1  UNL1       -0.0003
     23 C           2.7953    0.7428   38.9321 C.ar    1  UNL1       -0.0038
     24 O           6.1580   -1.3097   30.5192 O.3     1  UNL1       -0.4521
     25 C           6.4144   -2.7640   30.2567 C.ar    1  UNL1        0.1462
     26 C           6.6811   -3.6970   31.4005 C.ar    1  UNL1        0.0375
     27 C           6.9376   -5.1515   31.1379 C.ar    1  UNL1        0.0040
     28 C           6.9274   -5.6729   29.7315 C.ar    1  UNL1        0.0116
     29 C           6.6607   -4.7399   28.5877 C.ar    1  UNL1        0.0607
     30 CL          6.6505   -5.2612   27.1813 Cl      1  UNL1       -0.0821
     31 C           6.4042   -3.2855   28.8502 C.ar    1  UNL1        0.0489
@<TRIPOS>BOND
     1     7     8    1
     2     8     9    2
     3     8    10    2
     4     8     1    1
     5     1     2   ar
     6     2     3   ar
     7     3    13    1
     8    13    14   am
     9    14    15    2
    10    14    17    1
    11    17    18    1
    12    18    19   ar
    13    19    20   ar
    14    20    21   ar
    15    21    22   ar
    16    22    23   ar
    17     3     4   ar
    18     4     5   ar
    19     5     6   ar
    20     6    24    1
    21    24    25    1
    22    25    26   ar
    23    26    27   ar
    24    27    28   ar
    25    28    29   ar
    26    29    30    1
    27    29    31   ar
    28     6     1   ar
    29    31    25   ar
    30    23    18   ar
    31     7    11    1
    32     7    12    1
    33    13    16    1
