@<TRIPOS>MOLECULE
*****
 27 30 0 0 0
SMALL
GASTEIGER

@<TRIPOS>ATOM
      1 N           2.0321    0.9747   25.9780 N.ar    1  UNL1       -0.3256
      2 C           2.2549    0.5109   24.5690 C.ar    1  UNL1        0.0367
      3 C           1.1072    0.9967   23.7342 C.ar    1  UNL1        0.0109
      4 C           0.1752    1.7609   24.6272 C.ar    1  UNL1        0.0167
      5 C          -1.1201    2.4673   24.3568 C.ar    1  UNL1        0.0308
      6 C          -1.8437    3.1601   25.4731 C.ar    1  UNL1        0.1402
      7 F          -3.1391    3.8665   25.2028 F       1  UNL1       -0.2042
      8 C          -1.2721    3.1465   26.8599 C.ar    1  UNL1        0.0311
      9 C           0.0232    2.4401   27.1303 C.ar    1  UNL1        0.0195
     10 C           0.7468    1.7473   26.0140 C.ar    1  UNL1        0.0598
     11 C           1.0592    0.6806   22.2687 C.3     1  UNL1        0.1216
     12 N           2.1587   -0.1215   21.6380 N.am    1  UNL1       -0.2715
     13 C           2.1106   -0.4376   20.1724 C.2     1  UNL1        0.2493
     14 O           0.9630    0.0482   19.3376 O.2     1  UNL1       -0.2699
     15 C           3.3064   -0.6073   22.4728 C.3     1  UNL1        0.1003
     16 C           3.3544   -0.2911   23.9383 C.3     1  UNL1        0.0650
     17 C           3.2102   -1.2397   19.5418 C.ar    1  UNL1        0.0544
     18 C           4.3589   -0.5430   18.8745 C.ar    1  UNL1        0.0046
     19 C           5.4584   -1.3452   18.2439 C.ar    1  UNL1        0.0010
     20 C           5.4094   -2.8439   18.2807 C.ar    1  UNL1        0.0114
     21 C           4.2607   -3.5406   18.9480 C.ar    1  UNL1        0.0578
     22 CL          4.2116   -5.0393   18.9847 Cl      1  UNL1       -0.0822
     23 C           3.1611   -2.7385   19.5786 C.ar    1  UNL1        0.0159
     24 C           2.9359    0.7122   27.1459 C.3     1  UNL1        0.1474
     25 O           1.8249   -0.5462   29.1288 O.co2   1  UNL1       -0.5472
     26 C           2.7656   -0.5357   27.9605 C.2     1  UNL1        0.0732
     27 O           3.5360   -1.7732   27.6068 O.co2   1  UNL1       -0.5472
@<TRIPOS>UNITY_ATOM_ATTR
25 1
charge -1
@<TRIPOS>BOND
     1    25    26   ar
     2    26    27   ar
     3    26    24    1
     4    24     1    1
     5     1     2   ar
     6     2     3   ar
     7     3     4   ar
     8     4     5   ar
     9     5     6   ar
    10     6     7    1
    11     6     8   ar
    12     8     9   ar
    13     9    10   ar
    14     3    11    1
    15    11    12    1
    16    12    13   am
    17    13    14    2
    18    13    17    1
    19    17    18   ar
    20    18    19   ar
    21    19    20   ar
    22    20    21   ar
    23    21    22    1
    24    21    23   ar
    25    12    15    1
    26    15    16    1
    27    10     1   ar
    28    23    17   ar
    29    16     2    1
    30    10     4   ar
@<TRIPOS>MOLECULE
*****
 27 30 0 0 0
SMALL
GASTEIGER

@<TRIPOS>ATOM
      1 N           3.1880   -1.8458   20.4115 N.ar    1  UNL1       -0.3256
      2 C           2.1897   -0.7274   20.4632 C.ar    1  UNL1        0.0367
      3 C           2.1620   -0.1953   21.8654 C.ar    1  UNL1        0.0109
      4 C           3.1432   -0.9848   22.6803 C.ar    1  UNL1        0.0167
      5 C           3.5412   -0.9066   24.1244 C.ar    1  UNL1        0.0308
      6 C           4.5732   -1.8485   24.6699 C.ar    1  UNL1        0.1402
      7 F           4.9713   -1.7703   26.1141 F       1  UNL1       -0.2042
      8 C           5.2073   -2.8686   23.7714 C.ar    1  UNL1        0.0311
      9 C           4.8093   -2.9468   22.3273 C.ar    1  UNL1        0.0195
     10 C           3.7773   -2.0049   21.7817 C.ar    1  UNL1        0.0598
     11 C           1.2470    0.9394   22.2190 C.3     1  UNL1        0.1216
     12 N           0.3596    1.5420   21.1705 N.am    1  UNL1       -0.2715
     13 C          -0.5555    2.6768   21.5241 C.2     1  UNL1        0.2493
     14 O          -0.5832    3.2089   22.9263 O.2     1  UNL1       -0.2699
     15 C           0.3872    1.0098   19.7683 C.3     1  UNL1        0.1003
     16 C           1.3023   -0.1249   19.4147 C.3     1  UNL1        0.0650
     17 C          -1.4429    3.2793   20.4755 C.ar    1  UNL1        0.0544
     18 C          -0.8446    4.0740   19.3528 C.ar    1  UNL1        0.0046
     19 C          -1.7321    4.6764   18.3043 C.ar    1  UNL1        0.0010
     20 C          -3.2178    4.4842   18.3784 C.ar    1  UNL1        0.0114
     21 C          -3.8162    3.6895   19.5012 C.ar    1  UNL1        0.0578
     22 CL         -5.3020    3.4973   19.5753 Cl      1  UNL1       -0.0822
     23 C          -2.9288    3.0870   20.5497 C.ar    1  UNL1        0.0159
     24 C           3.5359   -2.6619   19.2020 C.3     1  UNL1        0.1474
     25 O           5.7301   -2.7126   17.8117 O.co2   1  UNL1       -0.5472
     26 C           4.4079   -2.0794   18.1296 C.2     1  UNL1        0.0732
     27 O           3.9579   -0.8636   17.3750 O.co2   1  UNL1       -0.5472
@<TRIPOS>UNITY_ATOM_ATTR
25 1
charge -1
@<TRIPOS>BOND
     1    25    26   ar
     2    26    27   ar
     3    26    24    1
     4    24     1    1
     5     1     2   ar
     6     2     3   ar
     7     3     4   ar
     8     4     5   ar
     9     5     6   ar
    10     6     7    1
    11     6     8   ar
    12     8     9   ar
    13     9    10   ar
    14     3    11    1
    15    11    12    1
    16    12    13   am
    17    13    14    2
    18    13    17    1
    19    17    18   ar
    20    18    19   ar
    21    19    20   ar
    22    20    21   ar
    23    21    22    1
    24    21    23   ar
    25    12    15    1
    26    15    16    1
    27    10     1   ar
    28    23    17   ar
    29    16     2    1
    30    10     4   ar
@<TRIPOS>MOLECULE
*****
 27 30 0 0 0
SMALL
GASTEIGER

@<TRIPOS>ATOM
      1 N           3.4456   -2.0385   19.9648 N.ar    1  UNL1       -0.3256
      2 C           4.1970   -2.4171   21.2065 C.ar    1  UNL1        0.0367
      3 C           3.6598   -1.5968   22.3416 C.ar    1  UNL1        0.0109
      4 C           2.5763   -0.7112   21.8014 C.ar    1  UNL1        0.0167
      5 C           1.6931    0.3084   22.4573 C.ar    1  UNL1        0.0308
      6 C           0.6776    1.0551   21.6443 C.ar    1  UNL1        0.1402
      7 F          -0.2056    2.0748   22.3002 F       1  UNL1       -0.2042
      8 C           0.5452    0.7821   20.1753 C.ar    1  UNL1        0.0311
      9 C           1.4284   -0.2375   19.5193 C.ar    1  UNL1        0.0195
     10 C           2.4439   -0.9842   20.3324 C.ar    1  UNL1        0.0598
     11 C           4.2266   -1.7622   23.7205 C.3     1  UNL1        0.1216
     12 N           5.3307   -2.7479   23.9643 N.am    1  UNL1       -0.2715
     13 C           5.8975   -2.9133   25.3433 C.2     1  UNL1        0.2493
     14 O           5.3602   -2.0930   26.4783 O.2     1  UNL1       -0.2699
     15 C           5.8679   -3.5682   22.8292 C.3     1  UNL1        0.1003
     16 C           5.3011   -3.4028   21.4503 C.3     1  UNL1        0.0650
     17 C           7.0015   -3.8990   25.5870 C.ar    1  UNL1        0.0544
     18 C           8.4312   -3.4461   25.5589 C.ar    1  UNL1        0.0046
     19 C           9.5352   -4.4319   25.8026 C.ar    1  UNL1        0.0010
     20 C           9.2096   -5.8707   26.0744 C.ar    1  UNL1        0.0114
     21 C           7.7798   -6.3237   26.1025 C.ar    1  UNL1        0.0578
     22 CL          7.4541   -7.7624   26.3742 Cl      1  UNL1       -0.0822
     23 C           6.6758   -5.3379   25.8587 C.ar    1  UNL1        0.0159
     24 C           3.6584   -2.6132   18.5957 C.3     1  UNL1        0.1474
     25 O           3.9233   -1.1495   16.4656 O.co2   1  UNL1       -0.5472
     26 C           4.5363   -1.8997   17.6108 C.2     1  UNL1        0.0732
     27 O           6.0273   -1.9361   17.7711 O.co2   1  UNL1       -0.5472
@<TRIPOS>UNITY_ATOM_ATTR
25 1
charge -1
@<TRIPOS>BOND
     1    25    26   ar
     2    26    27   ar
     3    26    24    1
     4    24     1    1
     5     1     2   ar
     6     2     3   ar
     7     3     4   ar
     8     4     5   ar
     9     5     6   ar
    10     6     7    1
    11     6     8   ar
    12     8     9   ar
    13     9    10   ar
    14     3    11    1
    15    11    12    1
    16    12    13   am
    17    13    14    2
    18    13    17    1
    19    17    18   ar
    20    18    19   ar
    21    19    20   ar
    22    20    21   ar
    23    21    22    1
    24    21    23   ar
    25    12    15    1
    26    15    16    1
    27    10     1   ar
    28    23    17   ar
    29    16     2    1
    30    10     4   ar
@<TRIPOS>MOLECULE
*****
 27 30 0 0 0
SMALL
GASTEIGER

@<TRIPOS>ATOM
      1 N          -5.1004  -16.4808   23.6157 N.ar    1  UNL1       -0.3256
      2 C          -6.4858  -17.0017   23.3719 C.ar    1  UNL1        0.0367
      3 C          -6.3712  -18.2703   22.5798 C.ar    1  UNL1        0.0109
      4 C          -4.9150  -18.5335   22.3341 C.ar    1  UNL1        0.0167
      5 C          -4.2028  -19.6373   21.6100 C.ar    1  UNL1        0.0308
      6 C          -2.7052  -19.6351   21.5262 C.ar    1  UNL1        0.1402
      7 F          -1.9929  -20.7390   20.8022 F       1  UNL1       -0.2042
      8 C          -1.9198  -18.5291   22.1664 C.ar    1  UNL1        0.0311
      9 C          -2.6320  -17.4253   22.8905 C.ar    1  UNL1        0.0195
     10 C          -4.1296  -17.4275   22.9743 C.ar    1  UNL1        0.0598
     11 C          -7.6076  -19.0220   22.1847 C.3     1  UNL1        0.1216
     12 N          -8.9586  -18.5051   22.5816 N.am    1  UNL1       -0.2715
     13 C         -10.1951  -19.2568   22.1864 C.2     1  UNL1        0.2493
     14 O         -10.0806  -20.5255   21.3943 O.2     1  UNL1       -0.2699
     15 C          -9.0732  -17.2364   23.3737 C.3     1  UNL1        0.1003
     16 C          -7.8368  -16.4847   23.7689 C.3     1  UNL1        0.0650
     17 C         -11.5461  -18.7398   22.5834 C.ar    1  UNL1        0.0544
     18 C         -12.4056  -18.0357   21.5757 C.ar    1  UNL1        0.0046
     19 C         -13.7566  -17.5187   21.9728 C.ar    1  UNL1        0.0010
     20 C         -14.2480  -17.7058   23.3776 C.ar    1  UNL1        0.0114
     21 C         -13.3885  -18.4099   24.3854 C.ar    1  UNL1        0.0578
     22 CL        -13.8799  -18.5970   25.7902 Cl      1  UNL1       -0.0822
     23 C         -12.0375  -18.9269   23.9883 C.ar    1  UNL1        0.0159
     24 C          -4.7477  -15.2324   24.3687 C.3     1  UNL1        0.1474
     25 O          -4.8924  -13.8008   26.5320 O.co2   1  UNL1       -0.5472
     26 C          -5.1180  -15.0996   25.8161 C.2     1  UNL1        0.0732
     27 O          -5.7139  -16.2655   26.5479 O.co2   1  UNL1       -0.5472
@<TRIPOS>UNITY_ATOM_ATTR
25 1
charge -1
@<TRIPOS>BOND
     1    25    26   ar
     2    26    27   ar
     3    26    24    1
     4    24     1    1
     5     1     2   ar
     6     2     3   ar
     7     3     4   ar
     8     4     5   ar
     9     5     6   ar
    10     6     7    1
    11     6     8   ar
    12     8     9   ar
    13     9    10   ar
    14     3    11    1
    15    11    12    1
    16    12    13   am
    17    13    14    2
    18    13    17    1
    19    17    18   ar
    20    18    19   ar
    21    19    20   ar
    22    20    21   ar
    23    21    22    1
    24    21    23   ar
    25    12    15    1
    26    15    16    1
    27    10     1   ar
    28    23    17   ar
    29    16     2    1
    30    10     4   ar
@<TRIPOS>MOLECULE
*****
 27 30 0 0 0
SMALL
GASTEIGER

@<TRIPOS>ATOM
      1 N           4.3206   -2.5671   20.8153 N.ar    1  UNL1       -0.3256
      2 C           4.7960   -2.5803   22.2379 C.ar    1  UNL1        0.0367
      3 C           3.9668   -1.5996   23.0128 C.ar    1  UNL1        0.0109
      4 C           2.9788   -0.9803   22.0692 C.ar    1  UNL1        0.0167
      5 C           1.9083    0.0508   22.2712 C.ar    1  UNL1        0.0308
      6 C           1.0566    0.4839   21.1150 C.ar    1  UNL1        0.1402
      7 F          -0.0140    1.5151   21.3170 F       1  UNL1       -0.2042
      8 C           1.2752   -0.1140   19.7569 C.ar    1  UNL1        0.0311
      9 C           2.3457   -1.1451   19.5549 C.ar    1  UNL1        0.0195
     10 C           3.1975   -1.5783   20.7110 C.ar    1  UNL1        0.0598
     11 C           4.2184   -1.3972   24.4777 C.3     1  UNL1        0.1216
     12 N           5.2993   -2.1755   25.1675 N.am    1  UNL1       -0.2715
     13 C           5.5509   -1.9731   26.6324 C.2     1  UNL1        0.2493
     14 O           4.7216   -0.9924   27.4074 O.2     1  UNL1       -0.2699
     15 C           6.1286   -3.1562   24.3926 C.3     1  UNL1        0.1003
     16 C           5.8770   -3.3586   22.9278 C.3     1  UNL1        0.0650
     17 C           6.6319   -2.7515   27.3222 C.ar    1  UNL1        0.0544
     18 C           8.0690   -2.3616   27.1412 C.ar    1  UNL1        0.0046
     19 C           9.1498   -3.1400   27.8311 C.ar    1  UNL1        0.0010
     20 C           8.7936   -4.3083   28.7019 C.ar    1  UNL1        0.0114
     21 C           7.3564   -4.6982   28.8829 C.ar    1  UNL1        0.0578
     22 CL          7.0002   -5.8664   29.7537 Cl      1  UNL1       -0.0822
     23 C           6.2756   -3.9198   28.1930 C.ar    1  UNL1        0.0159
     24 C           4.8715   -3.3970   19.6938 C.3     1  UNL1        0.1474
     25 O           2.6752   -4.6107   19.0206 O.co2   1  UNL1       -0.5472
     26 C           4.1557   -4.6417   19.2601 C.2     1  UNL1        0.0732
     27 O           4.9202   -5.9176   19.0658 O.co2   1  UNL1       -0.5472
@<TRIPOS>UNITY_ATOM_ATTR
25 1
charge -1
@<TRIPOS>BOND
     1    25    26   ar
     2    26    27   ar
     3    26    24    1
     4    24     1    1
     5     1     2   ar
     6     2     3   ar
     7     3     4   ar
     8     4     5   ar
     9     5     6   ar
    10     6     7    1
    11     6     8   ar
    12     8     9   ar
    13     9    10   ar
    14     3    11    1
    15    11    12    1
    16    12    13   am
    17    13    14    2
    18    13    17    1
    19    17    18   ar
    20    18    19   ar
    21    19    20   ar
    22    20    21   ar
    23    21    22    1
    24    21    23   ar
    25    12    15    1
    26    15    16    1
    27    10     1   ar
    28    23    17   ar
    29    16     2    1
    30    10     4   ar
@<TRIPOS>MOLECULE
*****
 27 30 0 0 0
SMALL
GASTEIGER

@<TRIPOS>ATOM
      1 N           5.6892   -1.8720   28.6880 N.ar    1  UNL1       -0.3256
      2 C           5.9008   -2.3256   27.2740 C.ar    1  UNL1        0.0367
      3 C           6.5502   -3.6771   27.3130 C.ar    1  UNL1        0.0109
      4 C           6.7400   -4.0589   28.7512 C.ar    1  UNL1        0.0167
      5 C           7.3286   -5.2783   29.3966 C.ar    1  UNL1        0.0308
      6 C           7.3850   -5.3820   30.8920 C.ar    1  UNL1        0.1402
      7 F           7.9737   -6.6014   31.5375 F       1  UNL1       -0.2042
      8 C           6.8529   -4.2664   31.7418 C.ar    1  UNL1        0.0311
      9 C           6.2643   -3.0470   31.0963 C.ar    1  UNL1        0.0195
     10 C           6.2079   -2.9433   29.6010 C.ar    1  UNL1        0.0598
     11 C           6.8848   -4.3856   26.0339 C.3     1  UNL1        0.1216
     12 N           6.5700   -3.7425   24.7158 N.am    1  UNL1       -0.2715
     13 C           6.9047   -4.4511   23.4367 C.2     1  UNL1        0.2493
     14 O           7.5541   -5.8026   23.4757 O.2     1  UNL1       -0.2699
     15 C           5.9206   -2.3910   24.6768 C.3     1  UNL1        0.1003
     16 C           5.5860   -1.6825   25.9559 C.3     1  UNL1        0.0650
     17 C           6.5899   -3.8079   22.1187 C.ar    1  UNL1        0.0544
     18 C           7.6652   -3.0894   21.3588 C.ar    1  UNL1        0.0046
     19 C           7.3503   -2.4462   20.0407 C.ar    1  UNL1        0.0010
     20 C           5.9600   -2.5216   19.4826 C.ar    1  UNL1        0.0114
     21 C           4.8846   -3.2402   20.2424 C.ar    1  UNL1        0.0578
     22 CL          3.4944   -3.3155   19.6843 Cl      1  UNL1       -0.0822
     23 C           5.1995   -3.8833   21.5605 C.ar    1  UNL1        0.0159
     24 C           5.0681   -0.5750   29.1144 C.3     1  UNL1        0.1474
     25 O           2.9229    0.5037   30.1067 O.co2   1  UNL1       -0.5472
     26 C           3.5756   -0.4267   29.1276 C.2     1  UNL1        0.0732
     27 O           2.7355   -1.2087   28.1619 O.co2   1  UNL1       -0.5472
@<TRIPOS>UNITY_ATOM_ATTR
25 1
charge -1
@<TRIPOS>BOND
     1    25    26   ar
     2    26    27   ar
     3    26    24    1
     4    24     1    1
     5     1     2   ar
     6     2     3   ar
     7     3     4   ar
     8     4     5   ar
     9     5     6   ar
    10     6     7    1
    11     6     8   ar
    12     8     9   ar
    13     9    10   ar
    14     3    11    1
    15    11    12    1
    16    12    13   am
    17    13    14    2
    18    13    17    1
    19    17    18   ar
    20    18    19   ar
    21    19    20   ar
    22    20    21   ar
    23    21    22    1
    24    21    23   ar
    25    12    15    1
    26    15    16    1
    27    10     1   ar
    28    23    17   ar
    29    16     2    1
    30    10     4   ar
@<TRIPOS>MOLECULE
*****
 27 30 0 0 0
SMALL
GASTEIGER

@<TRIPOS>ATOM
      1 N          -5.9715    4.5476   24.0114 N.ar    1  UNL1       -0.3256
      2 C          -4.7191    4.0508   24.6708 C.ar    1  UNL1        0.0367
      3 C          -3.8082    3.5270   23.6003 C.ar    1  UNL1        0.0109
      4 C          -4.4975    3.7001   22.2794 C.ar    1  UNL1        0.0167
      5 C          -4.0805    3.3648   20.8781 C.ar    1  UNL1        0.0308
      6 C          -5.0005    3.6602   19.7309 C.ar    1  UNL1        0.1402
      7 F          -4.5836    3.3249   18.3295 F       1  UNL1       -0.2042
      8 C          -6.3376    4.2910   19.9849 C.ar    1  UNL1        0.0311
      9 C          -6.7546    4.6263   21.3862 C.ar    1  UNL1        0.0195
     10 C          -5.8346    4.3308   22.5334 C.ar    1  UNL1        0.0598
     11 C          -2.4687    2.9602   23.9668 C.3     1  UNL1        0.1216
     12 N          -2.0401    2.9171   25.4036 N.am    1  UNL1       -0.2715
     13 C          -0.7005    2.3502   25.7700 C.2     1  UNL1        0.2493
     14 O           0.2105    1.8264   24.6996 O.2     1  UNL1       -0.2699
     15 C          -2.9510    3.4409   26.4740 C.3     1  UNL1        0.1003
     16 C          -4.2905    4.0078   26.1076 C.3     1  UNL1        0.0650
     17 C          -0.2720    2.3071   27.2069 C.ar    1  UNL1        0.0544
     18 C          -0.5635    1.0948   28.0406 C.ar    1  UNL1        0.0046
     19 C          -0.1350    1.0518   29.4774 C.ar    1  UNL1        0.0010
     20 C           0.5851    2.2213   30.0806 C.ar    1  UNL1        0.0114
     21 C           0.8767    3.4337   29.2468 C.ar    1  UNL1        0.0578
     22 CL          1.5969    4.6032   29.8500 Cl      1  UNL1       -0.0822
     23 C           0.4482    3.4767   27.8100 C.ar    1  UNL1        0.0159
     24 C          -7.1533    5.1546   24.7076 C.3     1  UNL1        0.1474
     25 O          -9.0303    6.4665   23.4803 O.co2   1  UNL1       -0.5472
     26 C          -8.4915    5.1791   24.0306 C.2     1  UNL1        0.0732
     27 O          -9.2912    3.9164   23.9038 O.co2   1  UNL1       -0.5472
@<TRIPOS>UNITY_ATOM_ATTR
25 1
charge -1
@<TRIPOS>BOND
     1    25    26   ar
     2    26    27   ar
     3    26    24    1
     4    24     1    1
     5     1     2   ar
     6     2     3   ar
     7     3     4   ar
     8     4     5   ar
     9     5     6   ar
    10     6     7    1
    11     6     8   ar
    12     8     9   ar
    13     9    10   ar
    14     3    11    1
    15    11    12    1
    16    12    13   am
    17    13    14    2
    18    13    17    1
    19    17    18   ar
    20    18    19   ar
    21    19    20   ar
    22    20    21   ar
    23    21    22    1
    24    21    23   ar
    25    12    15    1
    26    15    16    1
    27    10     1   ar
    28    23    17   ar
    29    16     2    1
    30    10     4   ar
@<TRIPOS>MOLECULE
*****
 27 30 0 0 0
SMALL
GASTEIGER

@<TRIPOS>ATOM
      1 N           5.4743   -1.9328   27.4282 N.ar    1  UNL1       -0.3256
      2 C           5.1603   -1.8744   25.9626 C.ar    1  UNL1        0.0367
      3 C           3.8981   -1.0825   25.7902 C.ar    1  UNL1        0.0109
      4 C           3.4321   -0.6515   27.1493 C.ar    1  UNL1        0.0167
      5 C           2.2465    0.1517   27.5957 C.ar    1  UNL1        0.0308
      6 C           2.0351    0.4293   29.0545 C.ar    1  UNL1        0.1402
      7 F           0.8495    1.2324   29.5011 F       1  UNL1       -0.2042
      8 C           3.0092   -0.0963   30.0669 C.ar    1  UNL1        0.0311
      9 C           4.1948   -0.8994   29.6204 C.ar    1  UNL1        0.0195
     10 C           4.4062   -1.1770   28.1616 C.ar    1  UNL1        0.0598
     11 C           3.3363   -0.8562   24.4180 C.3     1  UNL1        0.1216
     12 N           4.0366   -1.4219   23.2181 N.am    1  UNL1       -0.2715
     13 C           3.4747   -1.1955   21.8458 C.2     1  UNL1        0.2493
     14 O           2.2125   -0.4036   21.6734 O.2     1  UNL1       -0.2699
     15 C           5.2988   -2.2138   23.3905 C.3     1  UNL1        0.1003
     16 C           5.8607   -2.4401   24.7628 C.3     1  UNL1        0.0650
     17 C           4.1751   -1.7612   20.6460 C.ar    1  UNL1        0.0544
     18 C           5.0651   -0.8854   19.8149 C.ar    1  UNL1        0.0046
     19 C           5.7655   -1.4512   18.6151 C.ar    1  UNL1        0.0010
     20 C           5.5758   -2.8927   18.2465 C.ar    1  UNL1        0.0114
     21 C           4.6856   -3.7686   19.0776 C.ar    1  UNL1        0.0578
     22 CL          4.4959   -5.2101   18.7089 Cl      1  UNL1       -0.0822
     23 C           3.9853   -3.2028   20.2774 C.ar    1  UNL1        0.0159
     24 C           6.6500   -2.6254   28.0511 C.3     1  UNL1        0.1474
     25 O           6.0997   -5.1645   28.0648 O.co2   1  UNL1       -0.5472
     26 C           6.4528   -3.9078   28.8038 C.2     1  UNL1        0.0732
     27 O           6.6085   -3.9335   30.2955 O.co2   1  UNL1       -0.5472
@<TRIPOS>UNITY_ATOM_ATTR
25 1
charge -1
@<TRIPOS>BOND
     1    25    26   ar
     2    26    27   ar
     3    26    24    1
     4    24     1    1
     5     1     2   ar
     6     2     3   ar
     7     3     4   ar
     8     4     5   ar
     9     5     6   ar
    10     6     7    1
    11     6     8   ar
    12     8     9   ar
    13     9    10   ar
    14     3    11    1
    15    11    12    1
    16    12    13   am
    17    13    14    2
    18    13    17    1
    19    17    18   ar
    20    18    19   ar
    21    19    20   ar
    22    20    21   ar
    23    21    22    1
    24    21    23   ar
    25    12    15    1
    26    15    16    1
    27    10     1   ar
    28    23    17   ar
    29    16     2    1
    30    10     4   ar
@<TRIPOS>MOLECULE
*****
 27 30 0 0 0
SMALL
GASTEIGER

@<TRIPOS>ATOM
      1 N           4.9526   -2.5692   22.2816 N.ar    1  UNL1       -0.3256
      2 C           4.0420   -1.6173   22.9991 C.ar    1  UNL1        0.0367
      3 C           3.2807   -0.8380   21.9681 C.ar    1  UNL1        0.0109
      4 C           3.7207   -1.3082   20.6134 C.ar    1  UNL1        0.0167
      5 C           3.3141   -0.9004   19.2284 C.ar    1  UNL1        0.0308
      6 C           3.9407   -1.5624   18.0372 C.ar    1  UNL1        0.1402
      7 F           3.5340   -1.1545   16.6521 F       1  UNL1       -0.2042
      8 C           4.9740   -2.6323   18.2310 C.ar    1  UNL1        0.0311
      9 C           5.3807   -3.0402   19.6159 C.ar    1  UNL1        0.0195
     10 C           4.7541   -2.3781   20.8071 C.ar    1  UNL1        0.0598
     11 C           2.2851    0.1990   22.3960 C.3     1  UNL1        0.1216
     12 N           2.0508    0.4568   23.8550 N.am    1  UNL1       -0.2715
     13 C           1.0551    1.4940   24.2830 C.2     1  UNL1        0.2493
     14 O           0.2938    2.2733   23.2519 O.2     1  UNL1       -0.2699
     15 C           2.8121   -0.3225   24.8861 C.3     1  UNL1        0.1003
     16 C           3.8077   -1.3595   24.4581 C.3     1  UNL1        0.0650
     17 C           0.8208    1.7517   25.7420 C.ar    1  UNL1        0.0544
     18 C           1.6211    2.8001   26.4565 C.ar    1  UNL1        0.0046
     19 C           1.3868    3.0577   27.9155 C.ar    1  UNL1        0.0010
     20 C           0.3522    2.2670   28.6600 C.ar    1  UNL1        0.0114
     21 C          -0.4481    1.2186   27.9456 C.ar    1  UNL1        0.0578
     22 CL         -1.4827    0.4279   28.6901 Cl      1  UNL1       -0.0822
     23 C          -0.2138    0.9610   26.4865 C.ar    1  UNL1        0.0159
     24 C           5.8961   -3.5414   22.9255 C.3     1  UNL1        0.1474
     25 O           7.3430   -2.2995   24.6902 O.co2   1  UNL1       -0.5472
     26 C           7.2367   -3.0759   23.4111 C.2     1  UNL1        0.0732
     27 O           8.4712   -3.3868   22.6178 O.co2   1  UNL1       -0.5472
@<TRIPOS>UNITY_ATOM_ATTR
25 1
charge -1
@<TRIPOS>BOND
     1    25    26   ar
     2    26    27   ar
     3    26    24    1
     4    24     1    1
     5     1     2   ar
     6     2     3   ar
     7     3     4   ar
     8     4     5   ar
     9     5     6   ar
    10     6     7    1
    11     6     8   ar
    12     8     9   ar
    13     9    10   ar
    14     3    11    1
    15    11    12    1
    16    12    13   am
    17    13    14    2
    18    13    17    1
    19    17    18   ar
    20    18    19   ar
    21    19    20   ar
    22    20    21   ar
    23    21    22    1
    24    21    23   ar
    25    12    15    1
    26    15    16    1
    27    10     1   ar
    28    23    17   ar
    29    16     2    1
    30    10     4   ar
