@<TRIPOS>MOLECULE
*****
 32 35 0 0 0
SMALL
GASTEIGER

@<TRIPOS>ATOM
      1 O          -8.8298  -18.9208   18.8375 O.2     1  UNL1       -0.2747
      2 C          -9.5945  -19.2698   20.0798 C.2     1  UNL1        0.2275
      3 N          -8.8608  -19.6855   21.3203 N.am    1  UNL1       -0.2839
      4 H          -9.3627  -19.9146   22.1357 H       1  UNL1        0.1549
      5 C          -7.3623  -19.7521   21.3184 C.ar    1  UNL1        0.0503
      6 C          -6.5753  -18.9653   22.3243 C.ar    1  UNL1        0.0144
      7 C          -5.0768  -19.0319   22.3225 C.ar    1  UNL1       -0.0016
      8 C          -4.3652  -19.8852   21.3148 C.ar    1  UNL1       -0.0061
      9 C          -5.1521  -20.6720   20.3089 C.ar    1  UNL1       -0.0016
     10 C          -6.6507  -20.6054   20.3108 C.ar    1  UNL1        0.0144
     11 C          -2.8667  -19.9518   21.3129 C.3     1  UNL1        0.0991
     12 N          -2.0615  -18.7183   21.0298 N.3     1  UNL1       -0.2690
     13 C          -0.9236  -18.7731   20.0539 C.3     1  UNL1        0.0724
     14 C          -0.1184  -17.5397   19.7707 C.3     1  UNL1        0.0174
     15 C          -0.4510  -16.2514   20.4634 C.3     1  UNL1        0.0029
     16 C          -1.5888  -16.1966   21.4392 C.3     1  UNL1        0.0174
     17 C          -2.3941  -17.4301   21.7224 C.3     1  UNL1        0.0724
     18 C         -11.0931  -19.2032   20.0816 C.3     1  UNL1        0.1026
     19 C         -11.8160  -18.6086   21.2537 C.3     1  UNL1        0.0817
     20 N         -11.0393  -18.0152   22.3915 N.3     1  UNL1       -0.2722
     21 C         -10.7787  -18.8269   23.6257 C.3     1  UNL1        0.0721
     22 C         -10.0020  -18.2335   24.7635 C.3     1  UNL1        0.0178
     23 C          -9.4859  -16.8284   24.6671 C.3     1  UNL1        0.0087
     24 C          -9.7465  -16.0167   23.4330 C.3     1  UNL1        0.0178
     25 C         -10.5232  -16.6100   22.2952 C.3     1  UNL1        0.0721
     26 C          -8.7092  -16.2350   25.8050 C.3     1  UNL1        0.0453
     27 C          -7.3152  -15.7296   25.5786 C.ar    1  UNL1        0.0541
     28 C          -6.5867  -15.7097   24.2676 C.ar    1  UNL1        0.1131
     29 N          -5.2262  -15.1231   24.5022 N.ar    1  UNL1       -0.2229
     30 C          -5.1139  -14.7805   25.9583 C.ar    1  UNL1        0.1748
     31 N          -6.4050  -15.1553   26.6235 N.ar    1  UNL1       -0.3382
     32 H          -6.6176  -15.0440   27.5783 H       1  UNL1        0.1672
@<TRIPOS>BOND
     1     1     2    2
     2     2    18    1
     3    18    19    1
     4    19    20    1
     5    20    21    1
     6    21    22    1
     7    22    23    1
     8    23    26    1
     9    26    27    1
    10    27    28   ar
    11    28    29   ar
    12    29    30   ar
    13    30    31   ar
    14    23    24    1
    15    24    25    1
    16     2     3   am
    17     3     5    1
    18     5     6   ar
    19     6     7   ar
    20     7     8   ar
    21     8    11    1
    22    11    12    1
    23    12    13    1
    24    13    14    1
    25    14    15    1
    26    15    16    1
    27    16    17    1
    28     8     9   ar
    29     9    10   ar
    30    25    20    1
    31    10     5   ar
    32    31    27   ar
    33    17    12    1
    34    31    32    1
    35     3     4    1
@<TRIPOS>MOLECULE
*****
 32 35 0 0 0
SMALL
GASTEIGER

@<TRIPOS>ATOM
      1 O          -5.6539  -21.6248   20.5130 O.2     1  UNL1       -0.2747
      2 C          -4.8479  -20.4044   20.1801 C.2     1  UNL1        0.2275
      3 N          -5.5259  -19.0742   20.0354 N.am    1  UNL1       -0.2839
      4 H          -4.9969  -18.2732   19.8168 H       1  UNL1        0.1549
      5 C          -7.0100  -18.9646   20.2237 C.ar    1  UNL1        0.0503
      6 C          -7.9406  -19.6077   19.2386 C.ar    1  UNL1        0.0144
      7 C          -9.4247  -19.4980   19.4269 C.ar    1  UNL1       -0.0016
      8 C          -9.9782  -18.7452   20.6003 C.ar    1  UNL1       -0.0061
      9 C          -9.0477  -18.1021   21.5854 C.ar    1  UNL1       -0.0016
     10 C          -7.5635  -18.2118   21.3971 C.ar    1  UNL1        0.0144
     11 C         -11.4622  -18.6356   20.7886 C.3     1  UNL1        0.0991
     12 N         -12.0406  -18.5775   22.1715 N.3     1  UNL1       -0.2690
     13 C         -11.3042  -19.2026   23.3192 C.3     1  UNL1        0.0724
     14 C         -11.8825  -19.1446   24.7020 C.3     1  UNL1        0.0174
     15 C         -13.1971  -18.4615   24.9372 C.3     1  UNL1        0.0029
     16 C         -13.9334  -17.8365   23.7895 C.3     1  UNL1        0.0174
     17 C         -13.3551  -17.8945   22.4066 C.3     1  UNL1        0.0724
     18 C          -3.3637  -20.5141   19.9917 C.3     1  UNL1        0.1026
     19 C          -2.4370  -19.7056   20.8504 C.3     1  UNL1        0.0817
     20 N          -2.9828  -18.6118   21.7198 N.3     1  UNL1       -0.2722
     21 C          -3.9944  -18.9309   22.7803 C.3     1  UNL1        0.0721
     22 C          -4.5402  -17.8371   23.6496 C.3     1  UNL1        0.0178
     23 C          -4.0743  -16.4242   23.4584 C.3     1  UNL1        0.0087
     24 C          -3.0626  -16.1050   22.3979 C.3     1  UNL1        0.0178
     25 C          -2.5169  -17.1988   21.5286 C.3     1  UNL1        0.0721
     26 C          -4.6201  -15.3304   24.3278 C.3     1  UNL1        0.0453
     27 C          -6.0403  -15.3911   24.8067 C.ar    1  UNL1        0.0541
     28 C          -7.2654  -15.2535   23.9523 C.ar    1  UNL1        0.1131
     29 N          -8.4670  -15.3774   24.8416 N.ar    1  UNL1       -0.2229
     30 C          -7.9844  -15.5917   26.2456 C.ar    1  UNL1        0.1748
     31 N          -6.4846  -15.6002   26.2240 N.ar    1  UNL1       -0.3382
     32 H          -5.8953  -15.7216   27.0033 H       1  UNL1        0.1672
@<TRIPOS>BOND
     1     1     2    2
     2     2    18    1
     3    18    19    1
     4    19    20    1
     5    20    21    1
     6    21    22    1
     7    22    23    1
     8    23    26    1
     9    26    27    1
    10    27    28   ar
    11    28    29   ar
    12    29    30   ar
    13    30    31   ar
    14    23    24    1
    15    24    25    1
    16     2     3   am
    17     3     5    1
    18     5     6   ar
    19     6     7   ar
    20     7     8   ar
    21     8    11    1
    22    11    12    1
    23    12    13    1
    24    13    14    1
    25    14    15    1
    26    15    16    1
    27    16    17    1
    28     8     9   ar
    29     9    10   ar
    30    25    20    1
    31    10     5   ar
    32    31    27   ar
    33    17    12    1
    34    31    32    1
    35     3     4    1
@<TRIPOS>MOLECULE
*****
 32 35 0 0 0
SMALL
GASTEIGER

@<TRIPOS>ATOM
      1 O           8.0799   -6.5879   23.3349 O.2     1  UNL1       -0.2747
      2 C           8.4549   -5.4291   24.2105 C.2     1  UNL1        0.2275
      3 N           7.8225   -4.0869   23.9900 N.am    1  UNL1       -0.2839
      4 H           8.0686   -3.3264   24.5647 H       1  UNL1        0.1549
      5 C           6.8152   -3.9036   22.8939 C.ar    1  UNL1        0.0503
      6 C           7.2600   -3.8877   21.4614 C.ar    1  UNL1        0.0144
      7 C           6.2526   -3.7043   20.3652 C.ar    1  UNL1       -0.0016
      8 C           4.8004   -3.5368   20.7015 C.ar    1  UNL1       -0.0061
      9 C           4.3556   -3.5526   22.1339 C.ar    1  UNL1       -0.0016
     10 C           5.3630   -3.7360   23.2301 C.ar    1  UNL1        0.0144
     11 C           3.7930   -3.3534   19.6054 C.3     1  UNL1        0.0991
     12 N           3.3444   -1.9742   19.2221 N.3     1  UNL1       -0.2690
     13 C           2.2786   -1.2834   20.0201 C.3     1  UNL1        0.0724
     14 C           1.8299    0.0956   19.6369 C.3     1  UNL1        0.0174
     15 C           2.4470    0.7839   18.4556 C.3     1  UNL1        0.0029
     16 C           3.5128    0.0931   17.6575 C.3     1  UNL1        0.0174
     17 C           3.9615   -1.2860   18.0408 C.3     1  UNL1        0.0724
     18 C           9.4623   -5.6126   25.3067 C.3     1  UNL1        0.1026
     19 C           9.2712   -6.6947   26.3276 C.3     1  UNL1        0.0817
     20 N           8.7046   -6.3621   27.6761 N.3     1  UNL1       -0.2722
     21 C           7.3067   -5.8308   27.7920 C.3     1  UNL1        0.0721
     22 C           6.7401   -5.4982   29.1404 C.3     1  UNL1        0.0178
     23 C           7.5716   -5.6969   30.3730 C.3     1  UNL1        0.0087
     24 C           8.9695   -6.2282   30.2571 C.3     1  UNL1        0.0178
     25 C           9.5360   -6.5608   28.9087 C.3     1  UNL1        0.0721
     26 C           7.0050   -5.3643   31.7215 C.3     1  UNL1        0.0453
     27 C           6.7592   -3.9337   32.0997 C.ar    1  UNL1        0.0541
     28 C           7.8095   -2.8813   32.2978 C.ar    1  UNL1        0.1131
     29 N           7.1194   -1.6015   32.6667 N.ar    1  UNL1       -0.2229
     30 C           5.6427   -1.8630   32.6965 C.ar    1  UNL1        0.1748
     31 N           5.4201   -3.3044   32.3461 N.ar    1  UNL1       -0.3382
     32 H           4.5481   -3.7578   32.2880 H       1  UNL1        0.1672
@<TRIPOS>BOND
     1     1     2    2
     2     2    18    1
     3    18    19    1
     4    19    20    1
     5    20    21    1
     6    21    22    1
     7    22    23    1
     8    23    26    1
     9    26    27    1
    10    27    28   ar
    11    28    29   ar
    12    29    30   ar
    13    30    31   ar
    14    23    24    1
    15    24    25    1
    16     2     3   am
    17     3     5    1
    18     5     6   ar
    19     6     7   ar
    20     7     8   ar
    21     8    11    1
    22    11    12    1
    23    12    13    1
    24    13    14    1
    25    14    15    1
    26    15    16    1
    27    16    17    1
    28     8     9   ar
    29     9    10   ar
    30    25    20    1
    31    10     5   ar
    32    31    27   ar
    33    17    12    1
    34    31    32    1
    35     3     4    1
@<TRIPOS>MOLECULE
*****
 32 35 0 0 0
SMALL
GASTEIGER

@<TRIPOS>ATOM
      1 O         -10.8578   -1.0145   18.1362 O.2     1  UNL1       -0.2747
      2 C         -11.1075   -2.3580   17.5176 C.2     1  UNL1        0.2275
      3 N         -12.4963   -2.9238   17.4885 N.am    1  UNL1       -0.2839
      4 H         -12.6602   -3.8056   17.0825 H       1  UNL1        0.1549
      5 C         -13.6355   -2.1462   18.0779 C.ar    1  UNL1        0.0503
      6 C         -14.1009   -2.4391   19.4735 C.ar    1  UNL1        0.0144
      7 C         -15.2401   -1.6614   20.0629 C.ar    1  UNL1       -0.0016
      8 C         -15.9139   -0.5908   19.2568 C.ar    1  UNL1       -0.0061
      9 C         -15.4485   -0.2978   17.8613 C.ar    1  UNL1       -0.0016
     10 C         -14.3093   -1.0755   17.2718 C.ar    1  UNL1        0.0144
     11 C         -17.0531    0.1869   19.8462 C.3     1  UNL1        0.0991
     12 N         -16.7882    1.4762   20.5657 N.3     1  UNL1       -0.2690
     13 C         -17.3906    1.7178   21.9180 C.3     1  UNL1        0.0724
     14 C         -17.1258    3.0070   22.6376 C.3     1  UNL1        0.0174
     15 C         -16.2585    4.0547   22.0048 C.3     1  UNL1        0.0029
     16 C         -15.6560    3.8130   20.6526 C.3     1  UNL1        0.0174
     17 C         -15.9209    2.5238   19.9330 C.3     1  UNL1        0.0724
     18 C          -9.9682   -3.1357   16.9282 C.3     1  UNL1        0.1026
     19 C          -9.6692   -4.5196   17.4234 C.3     1  UNL1        0.0817
     20 N         -10.7664   -5.5389   17.5093 N.3     1  UNL1       -0.2722
     21 C         -11.3290   -5.9245   18.8452 C.3     1  UNL1        0.0721
     22 C         -12.4262   -6.9437   18.9310 C.3     1  UNL1        0.0178
     23 C         -12.9608   -7.5773   17.6809 C.3     1  UNL1        0.0087
     24 C         -12.3982   -7.1916   16.3449 C.3     1  UNL1        0.0178
     25 C         -11.3010   -6.1724   16.2591 C.3     1  UNL1        0.0721
     26 C         -14.0580   -8.5965   17.7667 C.3     1  UNL1        0.0453
     27 C         -15.2666   -8.3279   18.6135 C.ar    1  UNL1        0.0541
     28 C         -16.1523   -7.1203   18.5280 C.ar    1  UNL1        0.1131
     29 N         -17.2348   -7.2657   19.5560 N.ar    1  UNL1       -0.2229
     30 C         -17.0183   -8.5633   20.2769 C.ar    1  UNL1        0.1748
     31 N         -15.8018   -9.2197   19.6943 N.ar    1  UNL1       -0.3382
     32 H         -15.4215  -10.0841   19.9726 H       1  UNL1        0.1672
@<TRIPOS>BOND
     1     1     2    2
     2     2    18    1
     3    18    19    1
     4    19    20    1
     5    20    21    1
     6    21    22    1
     7    22    23    1
     8    23    26    1
     9    26    27    1
    10    27    28   ar
    11    28    29   ar
    12    29    30   ar
    13    30    31   ar
    14    23    24    1
    15    24    25    1
    16     2     3   am
    17     3     5    1
    18     5     6   ar
    19     6     7   ar
    20     7     8   ar
    21     8    11    1
    22    11    12    1
    23    12    13    1
    24    13    14    1
    25    14    15    1
    26    15    16    1
    27    16    17    1
    28     8     9   ar
    29     9    10   ar
    30    25    20    1
    31    10     5   ar
    32    31    27   ar
    33    17    12    1
    34    31    32    1
    35     3     4    1
@<TRIPOS>MOLECULE
*****
 32 35 0 0 0
SMALL
GASTEIGER

@<TRIPOS>ATOM
      1 O           2.1418    2.0798   25.9462 O.2     1  UNL1       -0.2747
      2 C           0.8276    1.3704   25.8053 C.2     1  UNL1        0.2275
      3 N           0.2630    0.6007   26.9622 N.am    1  UNL1       -0.2839
      4 H          -0.5996    0.1352   26.8698 H       1  UNL1        0.1549
      5 C           1.0124    0.5404   28.2601 C.ar    1  UNL1        0.0503
      6 C           2.0563   -0.5153   28.4751 C.ar    1  UNL1        0.0144
      7 C           2.8058   -0.5757   29.7730 C.ar    1  UNL1       -0.0016
      8 C           2.5115    0.4196   30.8560 C.ar    1  UNL1       -0.0061
      9 C           1.4677    1.4751   30.6411 C.ar    1  UNL1       -0.0016
     10 C           0.7181    1.5356   29.3432 C.ar    1  UNL1        0.0144
     11 C           3.2610    0.3592   32.1539 C.3     1  UNL1        0.0991
     12 N           4.4679   -0.5222   32.2827 N.3     1  UNL1       -0.2690
     13 C           4.3028   -1.9771   32.6085 C.3     1  UNL1        0.0724
     14 C           5.5096   -2.8585   32.7374 C.3     1  UNL1        0.0174
     15 C           6.8816   -2.2850   32.5405 C.3     1  UNL1        0.0029
     16 C           7.0468   -0.8302   32.2147 C.3     1  UNL1        0.0174
     17 C           5.8398    0.0512   32.0858 C.3     1  UNL1        0.0724
     18 C           0.0781    1.4309   24.5073 C.3     1  UNL1        0.1026
     19 C           0.7848    1.8487   23.2519 C.3     1  UNL1        0.0817
     20 N           1.3928    0.8129   22.3532 N.3     1  UNL1       -0.2722
     21 C           0.7821    0.5317   21.0123 C.3     1  UNL1        0.0721
     22 C           1.3901   -0.5040   20.1137 C.3     1  UNL1        0.0178
     23 C           2.6086   -1.2587   20.5560 C.3     1  UNL1        0.0087
     24 C           3.2193   -0.9776   21.8969 C.3     1  UNL1        0.0178
     25 C           2.6113    0.0582   22.7955 C.3     1  UNL1        0.0721
     26 C           3.2166   -2.2945   19.6573 C.3     1  UNL1        0.0453
     27 C           4.4325   -1.9618   18.8445 C.ar    1  UNL1        0.0541
     28 C           5.3973   -2.9486   18.2568 C.ar    1  UNL1        0.1131
     29 N           6.4583   -2.1805   17.5258 N.ar    1  UNL1       -0.2229
     30 C           6.1492   -0.7189   17.6617 C.ar    1  UNL1        0.1748
     31 N           4.8973   -0.5838   18.4767 N.ar    1  UNL1       -0.3382
     32 H           4.4577    0.2610   18.7264 H       1  UNL1        0.1672
@<TRIPOS>BOND
     1     1     2    2
     2     2    18    1
     3    18    19    1
     4    19    20    1
     5    20    21    1
     6    21    22    1
     7    22    23    1
     8    23    26    1
     9    26    27    1
    10    27    28   ar
    11    28    29   ar
    12    29    30   ar
    13    30    31   ar
    14    23    24    1
    15    24    25    1
    16     2     3   am
    17     3     5    1
    18     5     6   ar
    19     6     7   ar
    20     7     8   ar
    21     8    11    1
    22    11    12    1
    23    12    13    1
    24    13    14    1
    25    14    15    1
    26    15    16    1
    27    16    17    1
    28     8     9   ar
    29     9    10   ar
    30    25    20    1
    31    10     5   ar
    32    31    27   ar
    33    17    12    1
    34    31    32    1
    35     3     4    1
@<TRIPOS>MOLECULE
*****
 32 35 0 0 0
SMALL
GASTEIGER

@<TRIPOS>ATOM
      1 O           4.1521   -1.2103   16.5493 O.2     1  UNL1       -0.2747
      2 C           4.3805   -1.7426   17.9329 C.2     1  UNL1        0.2275
      3 N           3.8361   -1.0045   19.1198 N.am    1  UNL1       -0.2839
      4 H           3.9860   -1.3538   20.0279 H       1  UNL1        0.1549
      5 C           3.0633    0.2659   18.9230 C.ar    1  UNL1        0.0503
      6 C           3.7895    1.5694   18.7693 C.ar    1  UNL1        0.0144
      7 C           3.0167    2.8399   18.5726 C.ar    1  UNL1       -0.0016
      8 C           1.5177    2.8069   18.5295 C.ar    1  UNL1       -0.0061
      9 C           0.7915    1.5034   18.6832 C.ar    1  UNL1       -0.0016
     10 C           1.5643    0.2329   18.8799 C.ar    1  UNL1        0.0144
     11 C           0.7449    4.0773   18.3327 C.3     1  UNL1        0.0991
     12 N          -0.7264    4.0233   18.0453 N.3     1  UNL1       -0.2690
     13 C          -1.7124    4.0365   19.1756 C.3     1  UNL1        0.0724
     14 C          -3.1836    3.9826   18.8883 C.3     1  UNL1        0.0174
     15 C          -3.6689    3.9154   17.4705 C.3     1  UNL1        0.0029
     16 C          -2.6829    3.9023   16.3401 C.3     1  UNL1        0.0174
     17 C          -1.2116    3.9562   16.6275 C.3     1  UNL1        0.0724
     18 C           5.1534   -3.0131   18.1296 C.3     1  UNL1        0.1026
     19 C           4.7799   -3.9544   19.2361 C.3     1  UNL1        0.0817
     20 N           5.3380   -3.7518   20.6137 N.3     1  UNL1       -0.2722
     21 C           6.8217   -3.7766   20.8329 C.3     1  UNL1        0.0721
     22 C           7.3797   -3.5739   22.2104 C.3     1  UNL1        0.0178
     23 C           6.4541   -3.3465   23.3686 C.3     1  UNL1        0.0087
     24 C           4.9704   -3.3217   23.1494 C.3     1  UNL1        0.0178
     25 C           4.4124   -3.5244   21.7719 C.3     1  UNL1        0.0721
     26 C           7.0122   -3.1439   24.7461 C.3     1  UNL1        0.0453
     27 C           6.8217   -4.1989   25.7952 C.ar    1  UNL1        0.0541
     28 C           7.2437   -5.6343   25.6889 C.ar    1  UNL1        0.1131
     29 N           6.8586   -6.3263   26.9628 N.ar    1  UNL1       -0.2229
     30 C           6.1985   -5.3185   27.8565 C.ar    1  UNL1        0.1748
     31 N           6.1757   -4.0037   27.1349 N.ar    1  UNL1       -0.3382
     32 H           5.8024   -3.1606   27.4799 H       1  UNL1        0.1672
@<TRIPOS>BOND
     1     1     2    2
     2     2    18    1
     3    18    19    1
     4    19    20    1
     5    20    21    1
     6    21    22    1
     7    22    23    1
     8    23    26    1
     9    26    27    1
    10    27    28   ar
    11    28    29   ar
    12    29    30   ar
    13    30    31   ar
    14    23    24    1
    15    24    25    1
    16     2     3   am
    17     3     5    1
    18     5     6   ar
    19     6     7   ar
    20     7     8   ar
    21     8    11    1
    22    11    12    1
    23    12    13    1
    24    13    14    1
    25    14    15    1
    26    15    16    1
    27    16    17    1
    28     8     9   ar
    29     9    10   ar
    30    25    20    1
    31    10     5   ar
    32    31    27   ar
    33    17    12    1
    34    31    32    1
    35     3     4    1
@<TRIPOS>MOLECULE
*****
 32 35 0 0 0
SMALL
GASTEIGER

@<TRIPOS>ATOM
      1 O           7.7947   -5.3870   22.6526 O.2     1  UNL1       -0.2747
      2 C           7.3059   -4.9393   23.9982 C.2     1  UNL1        0.2275
      3 N           6.2491   -3.8795   24.0977 N.am    1  UNL1       -0.2839
      4 H           5.9283   -3.5856   24.9808 H       1  UNL1        0.1549
      5 C           5.6810   -3.2676   22.8516 C.ar    1  UNL1        0.0503
      6 C           4.6467   -4.0082   22.0566 C.ar    1  UNL1        0.0144
      7 C           4.0786   -3.3963   20.8105 C.ar    1  UNL1       -0.0016
      8 C           4.5447   -2.0438   20.3594 C.ar    1  UNL1       -0.0061
      9 C           5.5789   -1.3032   21.1543 C.ar    1  UNL1       -0.0016
     10 C           6.1470   -1.9151   22.4005 C.ar    1  UNL1        0.0144
     11 C           3.9766   -1.4318   19.1133 C.3     1  UNL1        0.0991
     12 N           2.8149   -0.4872   19.2040 N.3     1  UNL1       -0.2690
     13 C           2.7965    0.7610   18.3723 C.3     1  UNL1        0.0724
     14 C           1.6349    1.7056   18.4629 C.3     1  UNL1        0.0174
     15 C           0.4915    1.4020   19.3853 C.3     1  UNL1        0.0029
     16 C           0.5099    0.1538   20.2170 C.3     1  UNL1        0.0174
     17 C           1.6716   -0.7908   20.1263 C.3     1  UNL1        0.0724
     18 C           7.8741   -5.5512   25.2443 C.3     1  UNL1        0.1026
     19 C           6.9562   -6.0977   26.2972 C.3     1  UNL1        0.0817
     20 N           7.0379   -5.5832   27.7039 N.3     1  UNL1       -0.2722
     21 C           7.6802   -6.4182   28.7718 C.3     1  UNL1        0.0721
     22 C           7.7619   -5.9037   30.1784 C.3     1  UNL1        0.0178
     23 C           7.2013   -4.5542   30.5171 C.3     1  UNL1        0.0087
     24 C           6.5590   -3.7193   29.4493 C.3     1  UNL1        0.0178
     25 C           6.4773   -4.2338   28.0427 C.3     1  UNL1        0.0721
     26 C           7.2830   -4.0397   31.9238 C.3     1  UNL1        0.0453
     27 C           6.3349   -2.9746   32.3891 C.ar    1  UNL1        0.0541
     28 C           6.6349   -1.5082   32.4859 C.ar    1  UNL1        0.1131
     29 N           5.4057   -0.8162   32.9959 N.ar    1  UNL1       -0.2229
     30 C           4.3459   -1.8551   33.2144 C.ar    1  UNL1        0.1748
     31 N           4.9202   -3.1890   32.8394 N.ar    1  UNL1       -0.3382
     32 H           4.4510   -4.0535   32.8813 H       1  UNL1        0.1672
@<TRIPOS>BOND
     1     1     2    2
     2     2    18    1
     3    18    19    1
     4    19    20    1
     5    20    21    1
     6    21    22    1
     7    22    23    1
     8    23    26    1
     9    26    27    1
    10    27    28   ar
    11    28    29   ar
    12    29    30   ar
    13    30    31   ar
    14    23    24    1
    15    24    25    1
    16     2     3   am
    17     3     5    1
    18     5     6   ar
    19     6     7   ar
    20     7     8   ar
    21     8    11    1
    22    11    12    1
    23    12    13    1
    24    13    14    1
    25    14    15    1
    26    15    16    1
    27    16    17    1
    28     8     9   ar
    29     9    10   ar
    30    25    20    1
    31    10     5   ar
    32    31    27   ar
    33    17    12    1
    34    31    32    1
    35     3     4    1
@<TRIPOS>MOLECULE
*****
 32 35 0 0 0
SMALL
GASTEIGER

@<TRIPOS>ATOM
      1 O           3.6924    1.7672   24.0664 O.2     1  UNL1       -0.2747
      2 C           2.3937    1.0182   24.1165 C.2     1  UNL1        0.2275
      3 N           2.3942   -0.4754   24.2549 N.am    1  UNL1       -0.2839
      4 H           1.5419   -0.9670   24.2877 H       1  UNL1        0.1549
      5 C           3.6934   -1.2199   24.3433 C.ar    1  UNL1        0.0503
      6 C           4.5232   -1.1348   25.5900 C.ar    1  UNL1        0.0144
      7 C           5.8224   -1.8794   25.6785 C.ar    1  UNL1       -0.0016
      8 C           6.2917   -2.7090   24.5203 C.ar    1  UNL1       -0.0061
      9 C           5.4619   -2.7941   23.2736 C.ar    1  UNL1       -0.0016
     10 C           4.1627   -2.0496   23.1851 C.ar    1  UNL1        0.0144
     11 C           7.5909   -3.4535   24.6087 C.3     1  UNL1        0.0991
     12 N           7.5987   -4.9067   24.9807 N.3     1  UNL1       -0.2690
     13 C           8.1739   -5.9197   24.0356 C.3     1  UNL1        0.0724
     14 C           8.1817   -7.3728   24.4075 C.3     1  UNL1        0.0174
     15 C           7.6144   -7.8130   25.7246 C.3     1  UNL1        0.0029
     16 C           7.0393   -6.8001   26.6696 C.3     1  UNL1        0.0174
     17 C           7.0314   -5.3469   26.2976 C.3     1  UNL1        0.0724
     18 C           1.0945    1.7628   24.0280 C.3     1  UNL1        0.1026
     19 C           0.5526    2.1692   22.6897 C.3     1  UNL1        0.0817
     20 N           1.1623    1.6181   21.4348 N.3     1  UNL1       -0.2722
     21 C           0.6469    0.3361   20.8510 C.3     1  UNL1        0.0721
     22 C           1.2565   -0.2150   19.5962 C.3     1  UNL1        0.0178
     23 C           2.3815    0.5158   18.9252 C.3     1  UNL1        0.0087
     24 C           2.8968    1.7978   19.5090 C.3     1  UNL1        0.0178
     25 C           2.2872    2.3489   20.7638 C.3     1  UNL1        0.0721
     26 C           2.9911   -0.0354   17.6703 C.3     1  UNL1        0.0453
     27 C           4.1860   -0.9385   17.7510 C.ar    1  UNL1        0.0541
     28 C           5.5981   -0.5649   17.4098 C.ar    1  UNL1        0.1131
     29 N           6.4635   -1.7693   17.6349 N.ar    1  UNL1       -0.2229
     30 C           5.5861   -2.8872   18.1152 C.ar    1  UNL1        0.1748
     31 N           4.1786   -2.3737   18.1869 N.ar    1  UNL1       -0.3382
     32 H           3.3886   -2.8884   18.4703 H       1  UNL1        0.1672
@<TRIPOS>BOND
     1     1     2    2
     2     2    18    1
     3    18    19    1
     4    19    20    1
     5    20    21    1
     6    21    22    1
     7    22    23    1
     8    23    26    1
     9    26    27    1
    10    27    28   ar
    11    28    29   ar
    12    29    30   ar
    13    30    31   ar
    14    23    24    1
    15    24    25    1
    16     2     3   am
    17     3     5    1
    18     5     6   ar
    19     6     7   ar
    20     7     8   ar
    21     8    11    1
    22    11    12    1
    23    12    13    1
    24    13    14    1
    25    14    15    1
    26    15    16    1
    27    16    17    1
    28     8     9   ar
    29     9    10   ar
    30    25    20    1
    31    10     5   ar
    32    31    27   ar
    33    17    12    1
    34    31    32    1
    35     3     4    1
@<TRIPOS>MOLECULE
*****
 32 35 0 0 0
SMALL
GASTEIGER

@<TRIPOS>ATOM
      1 O           9.0325   -4.8407   26.0387 O.2     1  UNL1       -0.2747
      2 C           7.6871   -5.0130   25.3983 C.2     1  UNL1        0.2275
      3 N           6.4426   -4.9160   26.2301 N.am    1  UNL1       -0.2839
      4 H           5.5596   -5.0291   25.8097 H       1  UNL1        0.1549
      5 C           6.5436   -4.6467   27.7022 C.ar    1  UNL1        0.0503
      6 C           6.7843   -5.7784   28.6569 C.ar    1  UNL1        0.0144
      7 C           6.8853   -5.5092   30.1290 C.ar    1  UNL1       -0.0016
      8 C           6.7456   -4.1082   30.6466 C.ar    1  UNL1       -0.0061
      9 C           6.5049   -2.9766   29.6920 C.ar    1  UNL1       -0.0016
     10 C           6.4039   -3.2458   28.2197 C.ar    1  UNL1        0.0144
     11 C           6.8466   -3.8390   32.1187 C.3     1  UNL1        0.0991
     12 N           6.2500   -2.5893   32.6953 N.3     1  UNL1       -0.2690
     13 C           7.1186   -1.3943   32.9553 C.3     1  UNL1        0.0724
     14 C           6.5221   -0.1446   33.5318 C.3     1  UNL1        0.0174
     15 C           5.0568   -0.0899   33.8483 C.3     1  UNL1        0.0029
     16 C           4.1882   -1.2848   33.5884 C.3     1  UNL1        0.0174
     17 C           4.7848   -2.5345   33.0118 C.3     1  UNL1        0.0724
     18 C           7.5862   -5.2822   23.9261 C.3     1  UNL1        0.1026
     19 C           7.7625   -4.1615   22.9448 C.3     1  UNL1        0.0817
     20 N           6.5906   -3.6723   22.1464 N.3     1  UNL1       -0.2722
     21 C           5.2607   -3.4739   22.8111 C.3     1  UNL1        0.0721
     22 C           4.0889   -2.9846   22.0127 C.3     1  UNL1        0.0178
     23 C           4.2470   -2.6938   20.5497 C.3     1  UNL1        0.0087
     24 C           5.5770   -2.8922   19.8850 C.3     1  UNL1        0.0178
     25 C           6.7488   -3.3815   20.6834 C.3     1  UNL1        0.0721
     26 C           3.0751   -2.2045   19.7513 C.3     1  UNL1        0.0453
     27 C           2.3096   -0.9973   20.2056 C.ar    1  UNL1        0.0541
     28 C           2.9000    0.2564   20.7797 C.ar    1  UNL1        0.1131
     29 N           1.7746    1.1968   21.0946 N.ar    1  UNL1       -0.2229
     30 C           0.4886    0.5243   20.7150 C.ar    1  UNL1        0.1748
     31 N           0.8193   -0.8317   20.1656 N.ar    1  UNL1       -0.3382
     32 H           0.1719   -1.4964   19.8366 H       1  UNL1        0.1672
@<TRIPOS>BOND
     1     1     2    2
     2     2    18    1
     3    18    19    1
     4    19    20    1
     5    20    21    1
     6    21    22    1
     7    22    23    1
     8    23    26    1
     9    26    27    1
    10    27    28   ar
    11    28    29   ar
    12    29    30   ar
    13    30    31   ar
    14    23    24    1
    15    24    25    1
    16     2     3   am
    17     3     5    1
    18     5     6   ar
    19     6     7   ar
    20     7     8   ar
    21     8    11    1
    22    11    12    1
    23    12    13    1
    24    13    14    1
    25    14    15    1
    26    15    16    1
    27    16    17    1
    28     8     9   ar
    29     9    10   ar
    30    25    20    1
    31    10     5   ar
    32    31    27   ar
    33    17    12    1
    34    31    32    1
    35     3     4    1
