@<TRIPOS>MOLECULE
*****
 27 27 0 0 0
SMALL
GASTEIGER

@<TRIPOS>ATOM
      1 C          -9.8133  -17.7984   21.4162 C.3     0  UNK0        0.1513
      2 N          -8.4616  -16.9883   23.4817 N.am    1  LEU1       -0.2982
      3 C          -8.9922  -16.7456   22.0999 C.2     0  UNK0        0.2386
      4 O          -8.7017  -15.4501   21.4018 O.2     0  UNK0       -0.2736
      5 H          -8.6522  -17.8386   23.9400 H       1  LEU1        0.1498
      6 CA         -7.6404  -15.9355   24.1655 C.3     1  LEU1        0.1368
      7 C          -6.2810  -15.5844   23.6376 C.2     1  LEU1        0.2266
      8 O          -5.3166  -14.8221   24.4971 O.2     1  LEU1       -0.2865
      9 CB         -8.1787  -15.2339   25.3770 C.3     1  LEU1        0.0276
     10 CD1        -8.6744  -16.9229   27.2880 C.3     1  LEU1        0.0001
     11 CG         -7.8832  -15.7691   26.7468 C.3     1  LEU1        0.0021
     12 CD2        -6.7965  -15.1505   27.5753 C.3     1  LEU1        0.0001
     13 C         -11.2188  -17.4939   20.9898 C.3     0  UNK0        0.0249
     14 C         -12.3752  -18.0233   21.7852 C.3     0  UNK0        0.0019
     15 C         -11.4680  -16.6599   19.7682 C.3     0  UNK0        0.0019
     16 N          -9.2289  -19.1557   21.1588 N.3     0  UNK0       -0.1720
     17 H          -9.5624  -19.4506   20.2411 H       0  UNK0        0.1493
     18 S          -7.7408  -19.3440   21.1599 S.O2    0  UNK0        0.0606
     19 O          -7.6800  -18.8716   19.7375 O.2     0  UNK0       -0.1530
     20 O          -7.8016  -19.8164   22.5822 O.2     0  UNK0       -0.1530
     21 C          -6.2527  -19.5323   21.1609 C.ar    0  UNK0        0.1221
     22 C          -5.5986  -20.3438   20.0822 C.ar    0  UNK0        0.0222
     23 C          -4.1105  -20.5321   20.0833 C.ar    0  UNK0        0.0310
     24 C          -3.2764  -19.9090   21.1630 C.ar    0  UNK0        0.1402
     25 F          -1.7883  -20.0973   21.1641 F       0  UNK0       -0.2042
     26 C          -3.9304  -19.0975   22.2417 C.ar    0  UNK0        0.0310
     27 C          -5.4186  -18.9092   22.2407 C.ar    0  UNK0        0.0222
@<TRIPOS>BOND
     1    10    11    1
     2    11    12    1
     3    11     9    1
     4     6     9    1
     5     6     7    1
     6     7     8    2
     7     6     2    1
     8     2     3   am
     9     3     4    2
    10     3     1    1
    11     1    16    1
    12    16    18    1
    13    18    19    2
    14    18    20    2
    15    18    21    1
    16    21    22   ar
    17    22    23   ar
    18    23    24   ar
    19    24    25    1
    20    24    26   ar
    21    26    27   ar
    22     1    13    1
    23    13    14    1
    24    13    15    1
    25    27    21   ar
    26     2     5    1
    27    16    17    1
@<TRIPOS>MOLECULE
*****
 27 27 0 0 0
SMALL
GASTEIGER

@<TRIPOS>ATOM
      1 C          -8.5177  -18.6924   20.7931 C.3     0  UNK0        0.1513
      2 N          -5.9348  -18.4870   20.6007 N.am    1  LEU1       -0.2982
      3 C          -7.1455  -19.1901   21.1392 C.2     0  UNK0        0.2386
      4 O          -6.9842  -20.3908   22.0236 O.2     0  UNK0       -0.2736
      5 H          -6.0408  -17.6990   20.0202 H       1  LEU1        0.1498
      6 CA         -4.5627  -18.9847   20.9468 C.3     1  LEU1        0.1368
      7 C          -4.1509  -19.1107   22.3836 C.2     1  LEU1        0.2266
      8 O          -3.3478  -18.0222   23.0319 O.2     1  LEU1       -0.2865
      9 CB         -3.6025  -19.3564   19.8560 C.3     1  LEU1        0.0276
     10 CD1        -1.1396  -18.5509   20.0442 C.3     1  LEU1        0.0001
     11 CG         -2.5132  -18.4046   19.4594 C.3     1  LEU1        0.0021
     12 CD2        -2.7973  -17.3064   18.4778 C.3     1  LEU1        0.0001
     13 C          -9.4215  -19.5231   19.9312 C.3     0  UNK0        0.0249
     14 C          -8.8644  -20.2521   18.7444 C.3     0  UNK0        0.0019
     15 C         -10.8823  -19.6249   20.2559 C.3     0  UNK0        0.0019
     16 N          -8.9859  -17.3640   21.3090 N.3     0  UNK0       -0.1720
     17 H          -9.9994  -17.4264   21.4060 H       0  UNK0        0.1493
     18 S          -8.4581  -16.8364   22.6102 S.O2    0  UNK0        0.0606
     19 O          -9.3266  -17.8060   23.3556 O.2     0  UNK0       -0.1530
     20 O          -7.5896  -15.8669   21.8647 O.2     0  UNK0       -0.1530
     21 C          -7.9303  -16.3088   23.9113 C.ar    0  UNK0        0.1221
     22 C          -8.8585  -16.1137   25.0733 C.ar    0  UNK0        0.0222
     23 C          -8.3307  -15.5861   26.3745 C.ar    0  UNK0        0.0310
     24 C          -6.8747  -15.2535   26.5137 C.ar    0  UNK0        0.1402
     25 F          -6.3469  -14.7259   27.8148 F       0  UNK0       -0.2042
     26 C          -5.9465  -15.4486   25.3517 C.ar    0  UNK0        0.0310
     27 C          -6.4743  -15.9762   24.0505 C.ar    0  UNK0        0.0222
@<TRIPOS>BOND
     1    10    11    1
     2    11    12    1
     3    11     9    1
     4     6     9    1
     5     6     7    1
     6     7     8    2
     7     6     2    1
     8     2     3   am
     9     3     4    2
    10     3     1    1
    11     1    16    1
    12    16    18    1
    13    18    19    2
    14    18    20    2
    15    18    21    1
    16    21    22   ar
    17    22    23   ar
    18    23    24   ar
    19    24    25    1
    20    24    26   ar
    21    26    27   ar
    22     1    13    1
    23    13    14    1
    24    13    15    1
    25    27    21   ar
    26     2     5    1
    27    16    17    1
@<TRIPOS>MOLECULE
*****
 27 27 0 0 0
SMALL
GASTEIGER

@<TRIPOS>ATOM
      1 C          -8.8413  -18.6024   20.9948 C.3     0  UNK0        0.1513
      2 N          -6.2632  -18.7309   20.6998 N.am    1  LEU1       -0.2982
      3 C          -7.5224  -19.2223   21.3501 C.2     0  UNK0        0.2386
      4 O          -7.4627  -20.3337   22.3557 O.2     0  UNK0       -0.2736
      5 H          -6.3024  -18.0014   20.0398 H       1  LEU1        0.1498
      6 CA         -4.9443  -19.3508   21.0551 C.3     1  LEU1        0.1368
      7 C          -4.2762  -20.2927   20.0977 C.2     1  LEU1        0.2266
      8 O          -3.3016  -19.7672   19.0859 O.2     1  LEU1       -0.2865
      9 CB         -4.2936  -19.0289   22.3677 C.3     1  LEU1        0.0276
     10 CD1        -1.7421  -18.6424   22.0662 C.3     1  LEU1        0.0001
     11 CG         -3.1039  -18.1163   22.4111 C.3     1  LEU1        0.0021
     12 CD2        -3.2760  -16.6777   22.7994 C.3     1  LEU1        0.0001
     13 C          -9.8414  -19.3773   20.1890 C.3     0  UNK0        0.0249
     14 C          -9.4315  -20.0090   18.8917 C.3     0  UNK0        0.0019
     15 C         -11.2514  -19.5204   20.6804 C.3     0  UNK0        0.0019
     16 N          -9.1601  -17.2077   21.4454 N.3     0  UNK0       -0.1720
     17 H         -10.1754  -17.1484   21.5240 H       0  UNK0        0.1493
     18 S          -8.5950  -16.6882   22.7341 S.O2    0  UNK0        0.0606
     19 O          -7.5255  -15.9627   21.9727 O.2     0  UNK0       -0.1530
     20 O          -9.6646  -17.4138   23.4955 O.2     0  UNK0       -0.1530
     21 C          -8.0300  -16.1688   24.0229 C.ar    0  UNK0        0.1221
     22 C          -6.5879  -15.7633   24.1001 C.ar    0  UNK0        0.0222
     23 C          -6.0228  -15.2439   25.3888 C.ar    0  UNK0        0.0310
     24 C          -6.8998  -15.1299   26.6004 C.ar    0  UNK0        0.1402
     25 F          -6.3347  -14.6105   27.8891 F       0  UNK0       -0.2042
     26 C          -8.3419  -15.5354   26.5232 C.ar    0  UNK0        0.0310
     27 C          -8.9069  -16.0548   25.2344 C.ar    0  UNK0        0.0222
@<TRIPOS>BOND
     1    10    11    1
     2    11    12    1
     3    11     9    1
     4     6     9    1
     5     6     7    1
     6     7     8    2
     7     6     2    1
     8     2     3   am
     9     3     4    2
    10     3     1    1
    11     1    16    1
    12    16    18    1
    13    18    19    2
    14    18    20    2
    15    18    21    1
    16    21    22   ar
    17    22    23   ar
    18    23    24   ar
    19    24    25    1
    20    24    26   ar
    21    26    27   ar
    22     1    13    1
    23    13    14    1
    24    13    15    1
    25    27    21   ar
    26     2     5    1
    27    16    17    1
@<TRIPOS>MOLECULE
*****
 27 27 0 0 0
SMALL
GASTEIGER

@<TRIPOS>ATOM
      1 C          -6.6721  -15.5664   24.6950 C.3     0  UNK0        0.1513
      2 N          -8.2023  -17.3181   23.5374 N.am    1  LEU1       -0.2982
      3 C          -7.4942  -15.9959   23.5161 C.2     0  UNK0        0.2386
      4 O          -7.6082  -15.1033   22.3161 O.2     0  UNK0       -0.2736
      5 H          -8.1275  -17.9040   24.3250 H       1  LEU1        0.1498
      6 CA         -9.0244  -17.7476   22.3585 C.3     1  LEU1        0.1368
      7 C          -8.3949  -18.5475   21.2566 C.2     1  LEU1        0.2266
      8 O          -7.0647  -18.1374   20.6979 O.2     1  LEU1       -0.2865
      9 CB        -10.4759  -17.3774   22.2815 C.3     1  LEU1        0.0276
     10 CD1       -12.9306  -17.7236   23.0590 C.3     1  LEU1        0.0001
     11 CG        -11.4790  -18.0938   23.1362 C.3     1  LEU1        0.0021
     12 CD2       -11.0305  -19.1803   24.0680 C.3     1  LEU1        0.0001
     13 C          -7.2815  -15.5421   26.0654 C.3     0  UNK0        0.0249
     14 C          -6.4019  -15.6103   27.2786 C.3     0  UNK0        0.0019
     15 C          -8.7703  -15.4497   26.2227 C.3     0  UNK0        0.0019
     16 N          -5.2407  -15.1611   24.5034 N.3     0  UNK0       -0.1720
     17 H          -4.8040  -15.1779   25.4251 H       0  UNK0        0.1493
     18 S          -4.3530  -15.9525   23.5892 S.O2    0  UNK0        0.0606
     19 O          -4.2572  -14.7759   22.6637 O.2     0  UNK0       -0.1530
     20 O          -4.4489  -17.1290   24.5147 O.2     0  UNK0       -0.1530
     21 C          -3.4654  -16.7439   22.6750 C.ar    0  UNK0        0.1221
     22 C          -2.3961  -16.0514   21.8831 C.ar    0  UNK0        0.0222
     23 C          -1.5085  -16.8428   20.9689 C.ar    0  UNK0        0.0310
     24 C          -1.6901  -18.3267   20.8466 C.ar    0  UNK0        0.1402
     25 F          -0.8024  -19.1180   19.9324 F       0  UNK0       -0.2042
     26 C          -2.7593  -19.0192   21.6385 C.ar    0  UNK0        0.0310
     27 C          -3.6470  -18.2278   22.5527 C.ar    0  UNK0        0.0222
@<TRIPOS>BOND
     1    10    11    1
     2    11    12    1
     3    11     9    1
     4     6     9    1
     5     6     7    1
     6     7     8    2
     7     6     2    1
     8     2     3   am
     9     3     4    2
    10     3     1    1
    11     1    16    1
    12    16    18    1
    13    18    19    2
    14    18    20    2
    15    18    21    1
    16    21    22   ar
    17    22    23   ar
    18    23    24   ar
    19    24    25    1
    20    24    26   ar
    21    26    27   ar
    22     1    13    1
    23    13    14    1
    24    13    15    1
    25    27    21   ar
    26     2     5    1
    27    16    17    1
@<TRIPOS>MOLECULE
*****
 27 27 0 0 0
SMALL
GASTEIGER

@<TRIPOS>ATOM
      1 C          -6.7883  -18.6749   21.0376 C.3     0  UNK0        0.1513
      2 N          -7.2843  -16.7002   22.6513 N.am    1  LEU1       -0.2982
      3 C          -6.4472  -17.8834   22.2653 C.2     0  UNK0        0.2386
      4 O          -5.2690  -18.2753   23.1069 O.2     0  UNK0       -0.2736
      5 H          -8.0576  -16.4430   22.0990 H       1  LEU1        0.1498
      6 CA         -6.9432  -15.9086   23.8791 C.3     1  LEU1        0.1368
      7 C          -5.5215  -15.5103   24.1436 C.2     1  LEU1        0.2266
      8 O          -4.7447  -14.7649   23.0991 O.2     1  LEU1       -0.2865
      9 CB         -8.0238  -15.5155   24.8422 C.3     1  LEU1        0.0276
     10 CD1        -8.8720  -17.2216   26.6086 C.3     1  LEU1        0.0001
     11 CG         -8.0098  -16.0495   26.2438 C.3     1  LEU1        0.0021
     12 CD2        -7.1336  -15.4116   27.2808 C.3     1  LEU1        0.0001
     13 C          -5.7720  -19.5988   20.4345 C.3     0  UNK0        0.0249
     14 C          -4.5231  -19.0407   19.8190 C.3     0  UNK0        0.0019
     15 C          -6.0047  -21.0805   20.4468 C.3     0  UNK0        0.0019
     16 N          -8.1456  -18.5426   20.4130 N.3     0  UNK0       -0.1720
     17 H          -8.2756  -19.3589   19.8153 H       0  UNK0        0.1493
     18 S          -9.3645  -18.4436   21.2816 S.O2    0  UNK0        0.0606
     19 O          -9.1353  -19.8456   21.7631 O.2     0  UNK0       -0.1530
     20 O          -9.5937  -17.0416   20.8002 O.2     0  UNK0       -0.1530
     21 C         -10.5834  -18.3446   22.1503 C.ar    0  UNK0        0.1221
     22 C         -11.8703  -17.8259   21.5805 C.ar    0  UNK0        0.0222
     23 C         -13.0892  -17.7268   22.4491 C.ar    0  UNK0        0.0310
     24 C         -13.0212  -18.1465   23.8875 C.ar    0  UNK0        0.1402
     25 F         -14.2400  -18.0475   24.7562 F       0  UNK0       -0.2042
     26 C         -11.7342  -18.6652   24.4574 C.ar    0  UNK0        0.0310
     27 C         -10.5154  -18.7642   23.5887 C.ar    0  UNK0        0.0222
@<TRIPOS>BOND
     1    10    11    1
     2    11    12    1
     3    11     9    1
     4     6     9    1
     5     6     7    1
     6     7     8    2
     7     6     2    1
     8     2     3   am
     9     3     4    2
    10     3     1    1
    11     1    16    1
    12    16    18    1
    13    18    19    2
    14    18    20    2
    15    18    21    1
    16    21    22   ar
    17    22    23   ar
    18    23    24   ar
    19    24    25    1
    20    24    26   ar
    21    26    27   ar
    22     1    13    1
    23    13    14    1
    24    13    15    1
    25    27    21   ar
    26     2     5    1
    27    16    17    1
@<TRIPOS>MOLECULE
*****
 27 27 0 0 0
SMALL
GASTEIGER

@<TRIPOS>ATOM
      1 C          -4.3054  -18.0901   22.0787 C.3     0  UNK0        0.1513
      2 N          -6.7876  -17.9771   21.3197 N.am    1  LEU1       -0.2982
      3 C          -5.6620  -18.7217   21.9743 C.2     0  UNK0        0.2386
      4 O          -5.8929  -20.0980   22.5244 O.2     0  UNK0       -0.2736
      5 H          -6.6361  -17.0738   20.9587 H       1  LEU1        0.1498
      6 CA         -8.1442  -18.6087   21.2153 C.3     1  LEU1        0.1368
      7 C          -8.5268  -19.3633   19.9767 C.2     1  LEU1        0.2266
      8 O          -9.7045  -18.9185   19.1612 O.2     1  LEU1       -0.2865
      9 CB         -9.1181  -18.4856   22.3495 C.3     1  LEU1        0.0276
     10 CD1        -9.2357  -20.5302   23.9483 C.3     1  LEU1        0.0001
     11 CG         -9.8391  -19.7004   22.8540 C.3     1  LEU1        0.0021
     12 CD2       -11.1635  -20.0853   22.2643 C.3     1  LEU1        0.0001
     13 C          -3.1141  -18.7667   21.4680 C.3     0  UNK0        0.0249
     14 C          -1.7585  -18.6031   22.0890 C.3     0  UNK0        0.0019
     15 C          -3.2783  -19.6070   20.2363 C.3     0  UNK0        0.0019
     16 N          -4.1402  -16.7819   22.7937 N.3     0  UNK0       -0.1720
     17 H          -4.1633  -16.0521   22.0815 H       0  UNK0        0.1493
     18 S          -5.1183  -16.3799   23.8576 S.O2    0  UNK0        0.0606
     19 O          -5.8352  -15.5087   22.8692 O.2     0  UNK0       -0.1530
     20 O          -4.4013  -17.2512   24.8460 O.2     0  UNK0       -0.1530
     21 C          -6.0964  -15.9779   24.9214 C.ar    0  UNK0        0.1221
     22 C          -5.6091  -15.6403   26.2992 C.ar    0  UNK0        0.0222
     23 C          -6.5872  -15.2382   27.3631 C.ar    0  UNK0        0.0310
     24 C          -8.0525  -15.1739   27.0491 C.ar    0  UNK0        0.1402
     25 F          -9.0306  -14.7719   28.1129 F       0  UNK0       -0.2042
     26 C          -8.5398  -15.5116   25.6712 C.ar    0  UNK0        0.0310
     27 C          -7.5617  -15.9136   24.6074 C.ar    0  UNK0        0.0222
@<TRIPOS>BOND
     1    10    11    1
     2    11    12    1
     3    11     9    1
     4     6     9    1
     5     6     7    1
     6     7     8    2
     7     6     2    1
     8     2     3   am
     9     3     4    2
    10     3     1    1
    11     1    16    1
    12    16    18    1
    13    18    19    2
    14    18    20    2
    15    18    21    1
    16    21    22   ar
    17    22    23   ar
    18    23    24   ar
    19    24    25    1
    20    24    26   ar
    21    26    27   ar
    22     1    13    1
    23    13    14    1
    24    13    15    1
    25    27    21   ar
    26     2     5    1
    27    16    17    1
@<TRIPOS>MOLECULE
*****
 27 27 0 0 0
SMALL
GASTEIGER

@<TRIPOS>ATOM
      1 C          -5.1026  -19.0530   21.7533 C.3     0  UNK0        0.1513
      2 N          -6.2683  -16.9669   22.7730 N.am    1  LEU1       -0.2982
      3 C          -5.1769  -17.9951   22.8142 C.2     0  UNK0        0.2386
      4 O          -4.1598  -17.9654   23.9163 O.2     0  UNK0       -0.2736
      5 H          -6.9359  -16.9864   22.0497 H       1  LEU1        0.1498
      6 CA         -6.3426  -15.9090   23.8339 C.3     1  LEU1        0.1368
      7 C          -5.0831  -15.3668   24.4418 C.2     1  LEU1        0.2266
      8 O          -5.1435  -14.5864   25.7214 O.2     1  LEU1       -0.2865
      9 CB         -7.6764  -15.3934   24.2868 C.3     1  LEU1        0.0276
     10 CD1        -8.2541  -15.5308   26.8161 C.3     1  LEU1        0.0001
     11 CG         -8.3938  -16.0636   25.4208 C.3     1  LEU1        0.0021
     12 CD2        -9.2509  -17.2666   25.1597 C.3     1  LEU1        0.0001
     13 C          -3.8683  -19.1853   20.9113 C.3     0  UNK0        0.0249
     14 C          -3.8959  -18.7717   19.4697 C.3     0  UNK0        0.0019
     15 C          -2.6065  -19.7313   21.5109 C.3     0  UNK0        0.0019
     16 N          -6.2626  -19.9784   21.5345 N.3     0  UNK0       -0.1720
     17 H          -6.1327  -20.7681   22.1669 H       0  UNK0        0.1493
     18 S          -7.6644  -19.4855   21.7395 S.O2    0  UNK0        0.0606
     19 O          -7.5222  -18.5854   20.5480 O.2     0  UNK0       -0.1530
     20 O          -7.8066  -20.3855   22.9310 O.2     0  UNK0       -0.1530
     21 C          -9.0662  -18.9926   21.9446 C.ar    0  UNK0        0.1221
     22 C          -9.4716  -17.6460   21.4229 C.ar    0  UNK0        0.0222
     23 C         -10.8733  -17.1531   21.6279 C.ar    0  UNK0        0.0310
     24 C         -11.8697  -18.0068   22.3548 C.ar    0  UNK0        0.1402
     25 F         -13.2715  -17.5139   22.5598 F       0  UNK0       -0.2042
     26 C         -11.4644  -19.3534   22.8765 C.ar    0  UNK0        0.0310
     27 C         -10.0626  -19.8463   22.6714 C.ar    0  UNK0        0.0222
@<TRIPOS>BOND
     1    10    11    1
     2    11    12    1
     3    11     9    1
     4     6     9    1
     5     6     7    1
     6     7     8    2
     7     6     2    1
     8     2     3   am
     9     3     4    2
    10     3     1    1
    11     1    16    1
    12    16    18    1
    13    18    19    2
    14    18    20    2
    15    18    21    1
    16    21    22   ar
    17    22    23   ar
    18    23    24   ar
    19    24    25    1
    20    24    26   ar
    21    26    27   ar
    22     1    13    1
    23    13    14    1
    24    13    15    1
    25    27    21   ar
    26     2     5    1
    27    16    17    1
@<TRIPOS>MOLECULE
*****
 27 27 0 0 0
SMALL
GASTEIGER

@<TRIPOS>ATOM
      1 C          -9.4523  -18.0780   21.1601 C.3     0  UNK0        0.1513
      2 N          -7.0290  -19.0147   21.1325 N.am    1  LEU1       -0.2982
      3 C          -8.3461  -18.7988   20.4480 C.2     0  UNK0        0.2386
      4 O          -8.5571  -19.3035   19.0513 O.2     0  UNK0       -0.2736
      5 H          -6.8906  -18.6834   22.0492 H       1  LEU1        0.1498
      6 CA         -5.9229  -19.7354   20.4204 C.3     1  LEU1        0.1368
      7 C          -5.9140  -21.2346   20.3717 C.2     1  LEU1        0.2266
      8 O          -6.6887  -21.9551   19.3084 O.2     1  LEU1       -0.2865
      9 CB         -4.8257  -18.9569   19.7570 C.3     1  LEU1        0.0276
     10 CD1        -3.2673  -19.2453   21.8157 C.3     1  LEU1        0.0001
     11 CG         -3.4526  -18.9331   20.3602 C.3     1  LEU1        0.0021
     12 CD2        -2.2648  -18.5970   19.5081 C.3     1  LEU1        0.0001
     13 C         -10.7266  -18.7978   21.4889 C.3     0  UNK0        0.0249
     14 C         -10.6817  -20.1039   22.2252 C.3     0  UNK0        0.0019
     15 C         -12.0457  -18.2115   21.0814 C.3     0  UNK0        0.0019
     16 N          -9.2841  -16.6377   21.5434 N.3     0  UNK0       -0.1720
     17 H         -10.2121  -16.2153   21.5156 H       0  UNK0        0.1493
     18 S          -8.6851  -16.2799   22.8712 S.O2    0  UNK0        0.0606
     19 O         -10.0470  -16.3263   23.4981 O.2     0  UNK0       -0.1530
     20 O          -7.3231  -16.2335   22.2443 O.2     0  UNK0       -0.1530
     21 C          -8.0860  -15.9222   24.1991 C.ar    0  UNK0        0.1221
     22 C          -6.6276  -15.5855   24.2977 C.ar    0  UNK0        0.0222
     23 C          -6.0286  -15.2277   25.6255 C.ar    0  UNK0        0.0310
     24 C          -6.8879  -15.2067   26.8547 C.ar    0  UNK0        0.1402
     25 F          -6.2889  -14.8489   28.1826 F       0  UNK0       -0.2042
     26 C          -8.3463  -15.5433   26.7561 C.ar    0  UNK0        0.0310
     27 C          -8.9453  -15.9011   25.4283 C.ar    0  UNK0        0.0222
@<TRIPOS>BOND
     1    10    11    1
     2    11    12    1
     3    11     9    1
     4     6     9    1
     5     6     7    1
     6     7     8    2
     7     6     2    1
     8     2     3   am
     9     3     4    2
    10     3     1    1
    11     1    16    1
    12    16    18    1
    13    18    19    2
    14    18    20    2
    15    18    21    1
    16    21    22   ar
    17    22    23   ar
    18    23    24   ar
    19    24    25    1
    20    24    26   ar
    21    26    27   ar
    22     1    13    1
    23    13    14    1
    24    13    15    1
    25    27    21   ar
    26     2     5    1
    27    16    17    1
@<TRIPOS>MOLECULE
*****
 27 27 0 0 0
SMALL
GASTEIGER

@<TRIPOS>ATOM
      1 C          -7.8014  -15.8664   25.4022 C.3     0  UNK0        0.1513
      2 N          -9.6639  -16.2082   23.6233 N.am    1  LEU1       -0.2982
      3 C          -9.0025  -16.6159   24.9064 C.2     0  UNK0        0.2386
      4 O          -9.5420  -17.7731   25.6937 O.2     0  UNK0       -0.2736
      5 H          -9.3098  -15.4487   23.1066 H       1  LEU1        0.1498
      6 CA        -10.8650  -16.9577   23.1275 C.3     1  LEU1        0.1368
      7 C         -11.9458  -16.2331   22.3814 C.2     1  LEU1        0.2266
      8 O         -12.8944  -16.9971   21.5059 O.2     1  LEU1       -0.2865
      9 CB        -10.9851  -18.4318   23.3778 C.3     1  LEU1        0.0276
     10 CD1        -8.8976  -19.8895   22.8608 C.3     1  LEU1        0.0001
     11 CG        -10.2675  -19.4043   22.4894 C.3     1  LEU1        0.0021
     12 CD2       -10.9198  -19.8916   21.2297 C.3     1  LEU1        0.0001
     13 C          -7.6314  -15.6089   26.8701 C.3     0  UNK0        0.0249
     14 C          -8.6899  -14.8640   27.6284 C.3     0  UNK0        0.0019
     15 C          -6.4031  -16.0962   27.5798 C.3     0  UNK0        0.0019
     16 N          -6.7704  -15.3744   24.4301 N.3     0  UNK0       -0.1720
     17 H          -6.1899  -14.7022   24.9317 H       0  UNK0        0.1493
     18 S          -5.8368  -16.3461   23.7713 S.O2    0  UNK0        0.0606
     19 O          -6.8519  -16.5912   22.6944 O.2     0  UNK0       -0.1530
     20 O          -4.8218  -16.1010   24.8481 O.2     0  UNK0       -0.1530
     21 C          -4.9032  -17.3178   23.1124 C.ar    0  UNK0        0.1221
     22 C          -5.4476  -18.5446   22.4427 C.ar    0  UNK0        0.0222
     23 C          -4.5140  -19.5163   21.7838 C.ar    0  UNK0        0.0310
     24 C          -3.0359  -19.2612   21.7946 C.ar    0  UNK0        0.1402
     25 F          -2.1023  -20.2329   21.1357 F       0  UNK0       -0.2042
     26 C          -2.4915  -18.0343   22.4642 C.ar    0  UNK0        0.0310
     27 C          -3.4251  -17.0626   23.1231 C.ar    0  UNK0        0.0222
@<TRIPOS>BOND
     1    10    11    1
     2    11    12    1
     3    11     9    1
     4     6     9    1
     5     6     7    1
     6     7     8    2
     7     6     2    1
     8     2     3   am
     9     3     4    2
    10     3     1    1
    11     1    16    1
    12    16    18    1
    13    18    19    2
    14    18    20    2
    15    18    21    1
    16    21    22   ar
    17    22    23   ar
    18    23    24   ar
    19    24    25    1
    20    24    26   ar
    21    26    27   ar
    22     1    13    1
    23    13    14    1
    24    13    15    1
    25    27    21   ar
    26     2     5    1
    27    16    17    1
