@<TRIPOS>MOLECULE
*****
 36 39 0 0 0
SMALL
GASTEIGER

@<TRIPOS>ATOM
      1 C           4.6795   -3.7379   21.1504 C.2     1  UNL1        0.2015
      2 O           4.0366   -5.0742   20.9250 O.2     1  UNL1       -0.2864
      3 C           4.9174   -3.2460   22.5473 C.ar    1  UNL1        0.0611
      4 C           5.8897   -3.8246   23.5322 C.ar    1  UNL1        0.1037
      5 N           5.7979   -3.0254   24.7982 N.ar    1  UNL1       -0.2269
      6 C           4.7690   -1.9529   24.5958 C.ar    1  UNL1        0.1407
      7 N           4.2573   -0.8698   25.4985 N.ar    1  UNL1       -0.3374
      8 C           3.2014    0.0770   25.0101 C.ar    1  UNL1        0.0735
      9 C           2.6571   -0.0593   23.6190 C.ar    1  UNL1        0.0186
     10 C           3.1688   -1.1425   22.7163 C.ar    1  UNL1        0.0047
     11 C           4.2247   -2.0893   23.2047 C.ar    1  UNL1        0.0386
     12 H           4.6145   -0.7803   26.4116 H       1  UNL1        0.1674
     13 C           1.6012    0.8875   23.1306 C.ar    1  UNL1        0.0206
     14 C           1.0114    0.7123   21.7626 C.ar    1  UNL1        0.0037
     15 C          -0.0446    1.6592   21.2742 C.ar    1  UNL1        0.0255
     16 C          -0.5107    2.7812   22.1539 C.ar    1  UNL1        0.1067
     17 N           0.0791    2.9564   23.5219 N.ar    1  UNL1       -0.2376
     18 C           1.1350    2.0095   24.0103 C.ar    1  UNL1        0.0994
     19 S          -1.5667    3.7280   21.6656 S.3     1  UNL1       -0.0940
     20 C          -2.4815    3.3200   20.5491 C.3     1  UNL1        0.0757
     21 C           4.4792   -1.1695   18.1314 C.ar    1  UNL1        0.0920
     22 C           5.8944   -1.2041   17.6355 C.ar    1  UNL1        0.0204
     23 C           6.9046   -2.0833   18.3111 C.ar    1  UNL1        0.0312
     24 C           6.4997   -2.9279   19.4827 C.ar    1  UNL1        0.1454
     25 F           7.5099   -3.8070   20.1584 F       1  UNL1       -0.2040
     26 C           5.0845   -2.8933   19.9787 C.ar    1  UNL1        0.0951
     27 C           4.0743   -2.0141   19.3030 C.ar    1  UNL1        0.1598
     28 F           2.6590   -1.9796   19.7990 F       1  UNL1       -0.2026
     29 N           3.4690   -0.2904   17.4558 N.pl3   1  UNL1       -0.2166
     30 H           3.1073   -0.5426   16.5755 H       1  UNL1        0.1734
     31 S           3.0098    0.9731   18.1212 S.O2    1  UNL1        0.0540
     32 O           4.4029    1.5231   18.0380 O.2     1  UNL1       -0.1545
     33 O           1.6168    0.4231   18.2044 O.2     1  UNL1       -0.1545
     34 C           2.5506    2.2365   18.7867 C.3     1  UNL1        0.1724
     35 C           2.8259    3.9288   20.7387 C.3     1  UNL1        0.0019
     36 C           3.4109    2.8922   19.8259 C.3     1  UNL1        0.0273
@<TRIPOS>BOND
     1    35    36    1
     2    36    34    1
     3    34    31    1
     4    31    32    2
     5    31    33    2
     6    31    29    1
     7    29    21    1
     8    21    22   ar
     9    22    23   ar
    10    23    24   ar
    11    24    25    1
    12    24    26   ar
    13    26     1    1
    14     1     2    2
    15     1     3    1
    16     3     4   ar
    17     4     5   ar
    18     5     6   ar
    19     6     7   ar
    20     7     8   ar
    21     8     9   ar
    22     9    13    1
    23    13    14   ar
    24    14    15   ar
    25    15    16   ar
    26    16    19    1
    27    19    20    1
    28    16    17   ar
    29    17    18   ar
    30     9    10   ar
    31    10    11   ar
    32    26    27   ar
    33    27    28    1
    34    27    21   ar
    35    11     3   ar
    36    11     6    1
    37    18    13   ar
    38    29    30    1
    39     7    12    1
@<TRIPOS>MOLECULE
*****
 36 39 0 0 0
SMALL
GASTEIGER

@<TRIPOS>ATOM
      1 C           6.5211   -1.8857   30.0570 C.2     1  UNL1        0.2015
      2 O           7.6989   -0.9795   29.8537 O.2     1  UNL1       -0.2864
      3 C           6.7064   -3.3740   30.0302 C.ar    1  UNL1        0.0611
      4 C           6.8085   -4.2714   31.2278 C.ar    1  UNL1        0.1037
      5 N           6.9873   -5.6782   30.7388 N.ar    1  UNL1       -0.2269
      6 C           6.9956   -5.6501   29.2390 C.ar    1  UNL1        0.1407
      7 N           7.1388   -6.7373   28.2156 N.ar    1  UNL1       -0.3374
      8 C           7.1085   -6.4004   26.7543 C.ar    1  UNL1        0.0735
      9 C           6.9348   -4.9763   26.3164 C.ar    1  UNL1        0.0186
     10 C           6.7916   -3.8891   27.3398 C.ar    1  UNL1        0.0047
     11 C           6.8220   -4.2260   28.8011 C.ar    1  UNL1        0.0386
     12 H           7.2528   -7.6720   28.5030 H       1  UNL1        0.1674
     13 C           6.9045   -4.6394   24.8550 C.ar    1  UNL1        0.0206
     14 C           6.0393   -3.5178   24.3617 C.ar    1  UNL1        0.0037
     15 C           6.0089   -3.1809   22.9003 C.ar    1  UNL1        0.0255
     16 C           6.8437   -3.9657   21.9322 C.ar    1  UNL1        0.1067
     17 N           7.7089   -5.0874   22.4256 N.ar    1  UNL1       -0.2376
     18 C           7.7393   -5.4242   23.8869 C.ar    1  UNL1        0.0994
     19 S           6.8134   -3.6289   20.4709 S.3     1  UNL1       -0.0940
     20 C           5.4997   -3.4912   19.7601 C.3     1  UNL1        0.0757
     21 C           2.8402   -0.5706   29.3701 C.ar    1  UNL1        0.0920
     22 C           2.4315   -0.1395   30.7474 C.ar    1  UNL1        0.0204
     23 C           3.3860   -0.2905   31.8946 C.ar    1  UNL1        0.0312
     24 C           4.7492   -0.8725   31.6646 C.ar    1  UNL1        0.1454
     25 F           5.7037   -1.0235   32.8118 F       1  UNL1       -0.2040
     26 C           5.1578   -1.3036   30.2872 C.ar    1  UNL1        0.0951
     27 C           4.2033   -1.1526   29.1400 C.ar    1  UNL1        0.1598
     28 F           4.6121   -1.5838   27.7626 F       1  UNL1       -0.2026
     29 N           1.8857   -0.4196   28.2228 N.pl3   1  UNL1       -0.2166
     30 H           1.8630   -1.0972   27.5089 H       1  UNL1        0.1734
     31 S           0.9657    0.7636   28.1634 S.O2    1  UNL1        0.0540
     32 O           2.1264    1.6487   27.8180 O.2     1  UNL1       -0.1545
     33 O          -0.1950   -0.1215   28.5088 O.2     1  UNL1       -0.1545
     34 C           0.0457    1.9468   28.1039 C.3     1  UNL1        0.1724
     35 C          -0.5869    1.8994   25.5844 C.3     1  UNL1        0.0019
     36 C          -0.9899    2.0380   27.0226 C.3     1  UNL1        0.0273
@<TRIPOS>BOND
     1    35    36    1
     2    36    34    1
     3    34    31    1
     4    31    32    2
     5    31    33    2
     6    31    29    1
     7    29    21    1
     8    21    22   ar
     9    22    23   ar
    10    23    24   ar
    11    24    25    1
    12    24    26   ar
    13    26     1    1
    14     1     2    2
    15     1     3    1
    16     3     4   ar
    17     4     5   ar
    18     5     6   ar
    19     6     7   ar
    20     7     8   ar
    21     8     9   ar
    22     9    13    1
    23    13    14   ar
    24    14    15   ar
    25    15    16   ar
    26    16    19    1
    27    19    20    1
    28    16    17   ar
    29    17    18   ar
    30     9    10   ar
    31    10    11   ar
    32    26    27   ar
    33    27    28    1
    34    27    21   ar
    35    11     3   ar
    36    11     6    1
    37    18    13   ar
    38    29    30    1
    39     7    12    1
@<TRIPOS>MOLECULE
*****
 36 39 0 0 0
SMALL
GASTEIGER

@<TRIPOS>ATOM
      1 C           1.1223    0.5759   21.0551 C.2     1  UNL1        0.2015
      2 O          -0.2143    0.2074   20.4830 O.2     1  UNL1       -0.2864
      3 C           1.2748    0.7812   22.5332 C.ar    1  UNL1        0.0611
      4 C           0.4709    1.7227   23.3801 C.ar    1  UNL1        0.1037
      5 N           0.9572    1.6043   24.7941 N.ar    1  UNL1       -0.2269
      6 C           2.0617    0.5897   24.8211 C.ar    1  UNL1        0.1407
      7 N           2.9139    0.0633   25.9376 N.ar    1  UNL1       -0.3374
      8 C           3.9625   -0.9719   25.6567 C.ar    1  UNL1        0.0735
      9 C           4.1587   -1.4806   24.2593 C.ar    1  UNL1        0.0186
     10 C           3.3065   -0.9543   23.1428 C.ar    1  UNL1        0.0047
     11 C           2.2579    0.0809   23.4238 C.ar    1  UNL1        0.0386
     12 H           2.7851    0.3972   26.8547 H       1  UNL1        0.1674
     13 C           5.2073   -2.5159   23.9784 C.ar    1  UNL1        0.0206
     14 C           6.4104   -2.6253   24.8675 C.ar    1  UNL1        0.0037
     15 C           7.4590   -3.6605   24.5866 C.ar    1  UNL1        0.0255
     16 C           7.3045   -4.5862   23.4166 C.ar    1  UNL1        0.1067
     17 N           6.1013   -4.4768   22.5274 N.ar    1  UNL1       -0.2376
     18 C           5.0528   -3.4416   22.8083 C.ar    1  UNL1        0.0994
     19 S           8.3530   -5.6214   23.1357 S.3     1  UNL1       -0.0940
     20 C           8.3722   -6.9010   23.9181 C.3     1  UNL1        0.0757
     21 C           4.0831   -0.2946   18.5599 C.ar    1  UNL1        0.0920
     22 C           4.6753    1.0655   18.3372 C.ar    1  UNL1        0.0204
     23 C           4.0832    2.2623   19.0206 C.ar    1  UNL1        0.0312
     24 C           2.8989    2.0992   19.9265 C.ar    1  UNL1        0.1454
     25 F           2.3068    3.2960   20.6099 F       1  UNL1       -0.2040
     26 C           2.3067    0.7391   20.1491 C.ar    1  UNL1        0.0951
     27 C           2.8988   -0.4577   19.4658 C.ar    1  UNL1        0.1598
     28 F           2.3066   -1.8178   19.6885 F       1  UNL1       -0.2026
     29 N           4.6753   -1.4915   17.8765 N.pl3   1  UNL1       -0.2166
     30 H           4.2099   -1.9024   17.1124 H       1  UNL1        0.1734
     31 S           5.9764   -2.0622   18.3574 S.O2    1  UNL1        0.0540
     32 O           6.7126   -1.2395   17.3419 O.2     1  UNL1       -0.1545
     33 O           5.2402   -2.8849   19.3729 O.2     1  UNL1       -0.1545
     34 C           7.2775   -2.6330   18.8383 C.3     1  UNL1        0.1724
     35 C           7.5210   -0.9755   20.8242 C.3     1  UNL1        0.0019
     36 C           7.7632   -2.3289   20.2246 C.3     1  UNL1        0.0273
@<TRIPOS>BOND
     1    35    36    1
     2    36    34    1
     3    34    31    1
     4    31    32    2
     5    31    33    2
     6    31    29    1
     7    29    21    1
     8    21    22   ar
     9    22    23   ar
    10    23    24   ar
    11    24    25    1
    12    24    26   ar
    13    26     1    1
    14     1     2    2
    15     1     3    1
    16     3     4   ar
    17     4     5   ar
    18     5     6   ar
    19     6     7   ar
    20     7     8   ar
    21     8     9   ar
    22     9    13    1
    23    13    14   ar
    24    14    15   ar
    25    15    16   ar
    26    16    19    1
    27    19    20    1
    28    16    17   ar
    29    17    18   ar
    30     9    10   ar
    31    10    11   ar
    32    26    27   ar
    33    27    28    1
    34    27    21   ar
    35    11     3   ar
    36    11     6    1
    37    18    13   ar
    38    29    30    1
    39     7    12    1
@<TRIPOS>MOLECULE
*****
 36 39 0 0 0
SMALL
GASTEIGER

@<TRIPOS>ATOM
      1 C           3.9806   -0.7497   17.7397 C.2     1  UNL1        0.2015
      2 O           3.8554   -0.9944   16.2652 O.2     1  UNL1       -0.2864
      3 C           4.5001   -1.8326   18.6383 C.ar    1  UNL1        0.0611
      4 C           5.2959   -3.0291   18.2082 C.ar    1  UNL1        0.1037
      5 N           5.6024   -3.8451   19.4289 N.ar    1  UNL1       -0.2269
      6 C           4.9961   -3.1529   20.6135 C.ar    1  UNL1        0.1407
      7 N           4.9764   -3.4945   22.0739 N.ar    1  UNL1       -0.3374
      8 C           4.2754   -2.5923   23.0457 C.ar    1  UNL1        0.0735
      9 C           3.5940   -1.3485   22.5571 C.ar    1  UNL1        0.0186
     10 C           3.6138   -1.0069   21.0967 C.ar    1  UNL1        0.0047
     11 C           4.3148   -1.9091   20.1249 C.ar    1  UNL1        0.0386
     12 H           5.4236   -4.3109   22.3946 H       1  UNL1        0.1674
     13 C           2.8930   -0.4462   23.5291 C.ar    1  UNL1        0.0206
     14 C           1.8073    0.4718   23.0512 C.ar    1  UNL1        0.0037
     15 C           1.1062    1.3741   24.0231 C.ar    1  UNL1        0.0255
     16 C           1.4909    1.3582   25.4729 C.ar    1  UNL1        0.1067
     17 N           2.5766    0.4400   25.9507 N.ar    1  UNL1       -0.2376
     18 C           3.2776   -0.4621   24.9788 C.ar    1  UNL1        0.0994
     19 S           0.7899    2.2603   26.4448 S.3     1  UNL1       -0.0940
     20 C          -0.4354    1.7799   27.1644 C.3     1  UNL1        0.0757
     21 C           1.7469    2.3039   18.9381 C.ar    1  UNL1        0.0920
     22 C           2.7982    3.2336   19.4676 C.ar    1  UNL1        0.0204
     23 C           4.2437    2.8355   19.4212 C.ar    1  UNL1        0.0312
     24 C           4.6379    1.5078   18.8453 C.ar    1  UNL1        0.1454
     25 F           6.0833    1.1097   18.7988 F       1  UNL1       -0.2040
     26 C           3.5865    0.5781   18.3157 C.ar    1  UNL1        0.0951
     27 C           2.1410    0.9762   18.3622 C.ar    1  UNL1        0.1598
     28 F           1.0897    0.0465   17.8326 F       1  UNL1       -0.2026
     29 N           0.3014    2.7020   18.9845 N.pl3   1  UNL1       -0.2166
     30 H          -0.2017    2.8276   18.1477 H       1  UNL1        0.1734
     31 S          -0.3775    2.9088   20.3060 S.O2    1  UNL1        0.0540
     32 O          -0.2893    4.3944   20.1189 O.2     1  UNL1       -0.1545
     33 O          -0.4657    1.4231   20.4932 O.2     1  UNL1       -0.1545
     34 C          -1.0563    3.1155   21.6275 C.3     1  UNL1        0.1724
     35 C          -3.5535    3.2954   20.9331 C.3     1  UNL1        0.0019
     36 C          -2.3740    3.8297   21.6902 C.3     1  UNL1        0.0273
@<TRIPOS>BOND
     1    35    36    1
     2    36    34    1
     3    34    31    1
     4    31    32    2
     5    31    33    2
     6    31    29    1
     7    29    21    1
     8    21    22   ar
     9    22    23   ar
    10    23    24   ar
    11    24    25    1
    12    24    26   ar
    13    26     1    1
    14     1     2    2
    15     1     3    1
    16     3     4   ar
    17     4     5   ar
    18     5     6   ar
    19     6     7   ar
    20     7     8   ar
    21     8     9   ar
    22     9    13    1
    23    13    14   ar
    24    14    15   ar
    25    15    16   ar
    26    16    19    1
    27    19    20    1
    28    16    17   ar
    29    17    18   ar
    30     9    10   ar
    31    10    11   ar
    32    26    27   ar
    33    27    28    1
    34    27    21   ar
    35    11     3   ar
    36    11     6    1
    37    18    13   ar
    38    29    30    1
    39     7    12    1
@<TRIPOS>MOLECULE
*****
 36 39 0 0 0
SMALL
GASTEIGER

@<TRIPOS>ATOM
      1 C           3.6128   -2.4137   20.1893 C.2     1  UNL1        0.2015
      2 O           3.1515   -3.5353   19.3068 O.2     1  UNL1       -0.2864
      3 C           4.2327   -2.7141   21.5218 C.ar    1  UNL1        0.0611
      4 C           5.2268   -3.8006   21.8070 C.ar    1  UNL1        0.1037
      5 N           5.5757   -3.7387   23.2645 N.ar    1  UNL1       -0.2269
      6 C           4.7972   -2.6140   23.8802 C.ar    1  UNL1        0.1407
      7 N           4.7369   -2.0847   25.2824 N.ar    1  UNL1       -0.3374
      8 C           3.8466   -0.9222   25.6075 C.ar    1  UNL1        0.0735
      9 C           3.0165   -0.2889   24.5304 C.ar    1  UNL1        0.0186
     10 C           3.0768   -0.8182   23.1283 C.ar    1  UNL1        0.0047
     11 C           3.9671   -1.9808   22.8031 C.ar    1  UNL1        0.0386
     12 H           5.2817   -2.5003   25.9893 H       1  UNL1        0.1674
     13 C           2.1262    0.8737   24.8556 C.ar    1  UNL1        0.0206
     14 C           0.6941    0.8695   24.4093 C.ar    1  UNL1        0.0037
     15 C          -0.1962    2.0321   24.7345 C.ar    1  UNL1        0.0255
     16 C           0.3455    3.1988   25.5060 C.ar    1  UNL1        0.1067
     17 N           1.7776    3.2030   25.9523 N.ar    1  UNL1       -0.2376
     18 C           2.6679    2.0404   25.6271 C.ar    1  UNL1        0.0994
     19 S          -0.5447    4.3614   25.8312 S.3     1  UNL1       -0.0940
     20 C          -1.9850    4.1286   26.1795 C.3     1  UNL1        0.0757
     21 C           1.9269    1.0331   19.1757 C.ar    1  UNL1        0.0920
     22 C           3.1374    1.8527   18.8395 C.ar    1  UNL1        0.0204
     23 C           4.5063    1.2502   18.9533 C.ar    1  UNL1        0.0312
     24 C           4.6649   -0.1719   19.4033 C.ar    1  UNL1        0.1454
     25 F           6.0338   -0.7744   19.5170 F       1  UNL1       -0.2040
     26 C           3.4544   -0.9915   19.7394 C.ar    1  UNL1        0.0951
     27 C           2.0854   -0.3890   19.6256 C.ar    1  UNL1        0.1598
     28 F           0.8750   -1.2087   19.9617 F       1  UNL1       -0.2026
     29 N           0.5579    1.6356   19.0619 N.pl3   1  UNL1       -0.2166
     30 H          -0.0372    1.3695   18.3242 H       1  UNL1        0.1734
     31 S           0.0958    2.6436   20.0720 S.O2    1  UNL1        0.0540
     32 O           0.4952    3.7543   19.1464 O.2     1  UNL1       -0.1545
     33 O          -0.3035    1.5329   20.9977 O.2     1  UNL1       -0.1545
     34 C          -0.3663    3.6515   21.0822 C.3     1  UNL1        0.1724
     35 C           1.9941    3.7298   22.1651 C.3     1  UNL1        0.0019
     36 C           0.6293    4.3240   21.9804 C.3     1  UNL1        0.0273
@<TRIPOS>BOND
     1    35    36    1
     2    36    34    1
     3    34    31    1
     4    31    32    2
     5    31    33    2
     6    31    29    1
     7    29    21    1
     8    21    22   ar
     9    22    23   ar
    10    23    24   ar
    11    24    25    1
    12    24    26   ar
    13    26     1    1
    14     1     2    2
    15     1     3    1
    16     3     4   ar
    17     4     5   ar
    18     5     6   ar
    19     6     7   ar
    20     7     8   ar
    21     8     9   ar
    22     9    13    1
    23    13    14   ar
    24    14    15   ar
    25    15    16   ar
    26    16    19    1
    27    19    20    1
    28    16    17   ar
    29    17    18   ar
    30     9    10   ar
    31    10    11   ar
    32    26    27   ar
    33    27    28    1
    34    27    21   ar
    35    11     3   ar
    36    11     6    1
    37    18    13   ar
    38    29    30    1
    39     7    12    1
@<TRIPOS>MOLECULE
*****
 36 39 0 0 0
SMALL
GASTEIGER

@<TRIPOS>ATOM
      1 C           4.2717   -3.1776   19.5288 C.2     1  UNL1        0.2015
      2 O           3.4396   -4.4075   19.3175 O.2     1  UNL1       -0.2864
      3 C           3.8049   -1.8555   18.9958 C.ar    1  UNL1        0.0611
      4 C           3.8737   -1.4073   17.5659 C.ar    1  UNL1        0.1037
      5 N           3.2987   -0.0243   17.4855 N.ar    1  UNL1       -0.2269
      6 C           2.8745    0.3824   18.8656 C.ar    1  UNL1        0.1407
      7 N           2.2438    1.6369   19.3930 N.ar    1  UNL1       -0.3374
      8 C           1.9259    1.7598   20.8537 C.ar    1  UNL1        0.0735
      9 C           2.2388    0.6280   21.7871 C.ar    1  UNL1        0.0186
     10 C           2.8695   -0.6266   21.2598 C.ar    1  UNL1        0.0047
     11 C           3.1874   -0.7494   19.7990 C.ar    1  UNL1        0.0386
     12 H           2.0384    2.3798   18.7804 H       1  UNL1        0.1674
     13 C           1.9209    0.7509   23.2479 C.ar    1  UNL1        0.0206
     14 C           0.5847    1.2755   23.6832 C.ar    1  UNL1        0.0037
     15 C           0.2668    1.3984   25.1440 C.ar    1  UNL1        0.0255
     16 C           1.2851    0.9966   26.1695 C.ar    1  UNL1        0.1067
     17 N           2.6213    0.4719   25.7342 N.ar    1  UNL1       -0.2376
     18 C           2.9391    0.3491   24.2735 C.ar    1  UNL1        0.0994
     19 S           0.9673    1.1194   27.6303 S.3     1  UNL1       -0.0940
     20 C          -0.4606    1.1186   28.0897 C.3     1  UNL1        0.0757
     21 C           6.8804   -3.7777   22.4588 C.ar    1  UNL1        0.0920
     22 C           8.1687   -3.4541   21.7620 C.ar    1  UNL1        0.0204
     23 C           8.1580   -3.0383   20.3208 C.ar    1  UNL1        0.0312
     24 C           6.8591   -2.9462   19.5764 C.ar    1  UNL1        0.1454
     25 F           6.8484   -2.5304   18.1352 F       1  UNL1       -0.2040
     26 C           5.5708   -3.2698   20.2732 C.ar    1  UNL1        0.0951
     27 C           5.5815   -3.6855   21.7144 C.ar    1  UNL1        0.1598
     28 F           4.2931   -4.0091   22.4111 F       1  UNL1       -0.2026
     29 N           6.8911   -4.1935   23.9000 N.pl3   1  UNL1       -0.2166
     30 H           6.1974   -3.8598   24.5138 H       1  UNL1        0.1734
     31 S           7.9586   -5.1177   24.4060 S.O2    1  UNL1        0.0540
     32 O           8.3638   -4.0927   25.4234 O.2     1  UNL1       -0.1545
     33 O           7.5535   -6.1427   23.3886 O.2     1  UNL1       -0.1545
     34 C           9.0262   -6.0420   24.9120 C.3     1  UNL1        0.1724
     35 C           8.1546   -8.0922   26.2489 C.3     1  UNL1        0.0019
     36 C           8.7606   -7.5155   25.0039 C.3     1  UNL1        0.0273
@<TRIPOS>BOND
     1    35    36    1
     2    36    34    1
     3    34    31    1
     4    31    32    2
     5    31    33    2
     6    31    29    1
     7    29    21    1
     8    21    22   ar
     9    22    23   ar
    10    23    24   ar
    11    24    25    1
    12    24    26   ar
    13    26     1    1
    14     1     2    2
    15     1     3    1
    16     3     4   ar
    17     4     5   ar
    18     5     6   ar
    19     6     7   ar
    20     7     8   ar
    21     8     9   ar
    22     9    13    1
    23    13    14   ar
    24    14    15   ar
    25    15    16   ar
    26    16    19    1
    27    19    20    1
    28    16    17   ar
    29    17    18   ar
    30     9    10   ar
    31    10    11   ar
    32    26    27   ar
    33    27    28    1
    34    27    21   ar
    35    11     3   ar
    36    11     6    1
    37    18    13   ar
    38    29    30    1
    39     7    12    1
@<TRIPOS>MOLECULE
*****
 36 39 0 0 0
SMALL
GASTEIGER

@<TRIPOS>ATOM
      1 C           7.4590   -2.7893   26.9627 C.2     1  UNL1        0.2015
      2 O           8.4556   -1.6999   27.2271 O.2     1  UNL1       -0.2864
      3 C           7.4618   -4.0294   27.8065 C.ar    1  UNL1        0.0611
      4 C           7.8360   -5.4074   27.3474 C.ar    1  UNL1        0.1037
      5 N           7.6963   -6.3389   28.5148 N.ar    1  UNL1       -0.2269
      6 C           7.2358   -5.5364   29.6955 C.ar    1  UNL1        0.1407
      7 N           6.9297   -5.9211   31.1126 N.ar    1  UNL1       -0.3374
      8 C           6.4787   -4.8784   32.0920 C.ar    1  UNL1        0.0735
      9 C           6.3337   -3.4510   31.6543 C.ar    1  UNL1        0.0186
     10 C           6.6398   -3.0663   30.2372 C.ar    1  UNL1        0.0047
     11 C           7.0908   -4.1091   29.2578 C.ar    1  UNL1        0.0386
     12 H           7.0248   -6.8579   31.3999 H       1  UNL1        0.1674
     13 C           5.8827   -2.4082   32.6338 C.ar    1  UNL1        0.0206
     14 C           6.8041   -1.2871   33.0131 C.ar    1  UNL1        0.0037
     15 C           6.3531   -0.2444   33.9926 C.ar    1  UNL1        0.0255
     16 C           4.9806   -0.3228   34.5927 C.ar    1  UNL1        0.1067
     17 N           4.0591   -1.4440   34.2133 N.ar    1  UNL1       -0.2376
     18 C           4.5102   -2.4867   33.2339 C.ar    1  UNL1        0.0994
     19 S           4.5295    0.7198   35.5721 S.3     1  UNL1       -0.0940
     20 C           4.5669    0.4324   37.0438 C.3     1  UNL1        0.0757
     21 C           5.6781   -3.1906   23.4388 C.ar    1  UNL1        0.0920
     22 C           4.4607   -2.3371   23.6376 C.ar    1  UNL1        0.0204
     23 C           4.2428   -1.6343   24.9447 C.ar    1  UNL1        0.0312
     24 C           5.2422   -1.7850   26.0531 C.ar    1  UNL1        0.1454
     25 F           5.0242   -1.0822   27.3602 F       1  UNL1       -0.2040
     26 C           6.4595   -2.6385   25.8543 C.ar    1  UNL1        0.0951
     27 C           6.6775   -3.3413   24.5472 C.ar    1  UNL1        0.1598
     28 F           7.8949   -4.1948   24.3484 F       1  UNL1       -0.2026
     29 N           5.8960   -3.8934   22.1317 N.pl3   1  UNL1       -0.2166
     30 H           6.5475   -4.6290   22.0709 H       1  UNL1        0.1734
     31 S           5.1213   -3.4754   20.9171 S.O2    1  UNL1        0.0540
     32 O           4.1985   -4.6431   21.1039 O.2     1  UNL1       -0.1545
     33 O           6.0441   -2.3077   20.7304 O.2     1  UNL1       -0.1545
     34 C           4.3467   -3.0573   19.7026 C.3     1  UNL1        0.1724
     35 C           2.6250   -1.3011   20.5403 C.3     1  UNL1        0.0019
     36 C           3.7534   -1.6816   19.6283 C.3     1  UNL1        0.0273
@<TRIPOS>BOND
     1    35    36    1
     2    36    34    1
     3    34    31    1
     4    31    32    2
     5    31    33    2
     6    31    29    1
     7    29    21    1
     8    21    22   ar
     9    22    23   ar
    10    23    24   ar
    11    24    25    1
    12    24    26   ar
    13    26     1    1
    14     1     2    2
    15     1     3    1
    16     3     4   ar
    17     4     5   ar
    18     5     6   ar
    19     6     7   ar
    20     7     8   ar
    21     8     9   ar
    22     9    13    1
    23    13    14   ar
    24    14    15   ar
    25    15    16   ar
    26    16    19    1
    27    19    20    1
    28    16    17   ar
    29    17    18   ar
    30     9    10   ar
    31    10    11   ar
    32    26    27   ar
    33    27    28    1
    34    27    21   ar
    35    11     3   ar
    36    11     6    1
    37    18    13   ar
    38    29    30    1
    39     7    12    1
@<TRIPOS>MOLECULE
*****
 36 39 0 0 0
SMALL
GASTEIGER

@<TRIPOS>ATOM
      1 C           2.4793    2.2174   22.6545 C.2     1  UNL1        0.2015
      2 O           2.6372    3.6575   22.2660 O.2     1  UNL1       -0.2864
      3 C           2.3480    1.8406   24.1005 C.ar    1  UNL1        0.0611
      4 C           3.4085    1.1969   24.9437 C.ar    1  UNL1        0.1037
      5 N           2.8490    0.9999   26.3214 N.ar    1  UNL1       -0.2269
      6 C           1.4427    1.5218   26.3297 C.ar    1  UNL1        0.1407
      7 N           0.4041    1.5910   27.4097 N.ar    1  UNL1       -0.3374
      8 C          -0.9441    2.1798   27.1171 C.ar    1  UNL1        0.0735
      9 C          -1.2537    2.6993   25.7445 C.ar    1  UNL1        0.0186
     10 C          -0.2152    2.6301   24.6644 C.ar    1  UNL1        0.0047
     11 C           1.1330    2.0414   24.9570 C.ar    1  UNL1        0.0386
     12 H           0.6073    1.2499   28.3106 H       1  UNL1        0.1674
     13 C          -2.6020    3.2882   25.4519 C.ar    1  UNL1        0.0206
     14 C          -3.0871    3.3845   24.0358 C.ar    1  UNL1        0.0037
     15 C          -4.4354    3.9733   23.7433 C.ar    1  UNL1        0.0255
     16 C          -5.2985    4.4658   24.8669 C.ar    1  UNL1        0.1067
     17 N          -4.8133    4.3694   26.2830 N.ar    1  UNL1       -0.2376
     18 C          -3.4651    3.7806   26.5755 C.ar    1  UNL1        0.0994
     19 S          -6.6467    5.0545   24.5744 S.3     1  UNL1       -0.0940
     20 C          -7.3519    4.7148   23.2949 C.3     1  UNL1        0.0757
     21 C           3.6988   -0.3280   19.8644 C.ar    1  UNL1        0.0920
     22 C           2.3997   -0.9730   19.4819 C.ar    1  UNL1        0.0204
     23 C           1.1271   -0.5545   20.1568 C.ar    1  UNL1        0.0312
     24 C           1.1536    0.5089   21.2143 C.ar    1  UNL1        0.1454
     25 F          -0.1189    0.9273   21.8893 F       1  UNL1       -0.2040
     26 C           2.4527    1.1539   21.5969 C.ar    1  UNL1        0.0951
     27 C           3.7252    0.7354   20.9219 C.ar    1  UNL1        0.1598
     28 F           5.0243    1.3805   21.3046 F       1  UNL1       -0.2026
     29 N           4.9713   -0.7464   19.1895 N.pl3   1  UNL1       -0.2166
     30 H           5.5649   -0.0679   18.7940 H       1  UNL1        0.1734
     31 S           5.3393   -2.1987   19.1170 S.O2    1  UNL1        0.0540
     32 O           5.2296   -2.1520   17.6218 O.2     1  UNL1       -0.1545
     33 O           5.4491   -2.2455   20.6123 O.2     1  UNL1       -0.1545
     34 C           5.7074   -3.6511   19.0447 C.3     1  UNL1        0.1724
     35 C           3.2158   -4.3785   19.1586 C.3     1  UNL1        0.0019
     36 C           4.6438   -4.6838   18.8160 C.3     1  UNL1        0.0273
@<TRIPOS>BOND
     1    35    36    1
     2    36    34    1
     3    34    31    1
     4    31    32    2
     5    31    33    2
     6    31    29    1
     7    29    21    1
     8    21    22   ar
     9    22    23   ar
    10    23    24   ar
    11    24    25    1
    12    24    26   ar
    13    26     1    1
    14     1     2    2
    15     1     3    1
    16     3     4   ar
    17     4     5   ar
    18     5     6   ar
    19     6     7   ar
    20     7     8   ar
    21     8     9   ar
    22     9    13    1
    23    13    14   ar
    24    14    15   ar
    25    15    16   ar
    26    16    19    1
    27    19    20    1
    28    16    17   ar
    29    17    18   ar
    30     9    10   ar
    31    10    11   ar
    32    26    27   ar
    33    27    28    1
    34    27    21   ar
    35    11     3   ar
    36    11     6    1
    37    18    13   ar
    38    29    30    1
    39     7    12    1
@<TRIPOS>MOLECULE
*****
 36 39 0 0 0
SMALL
GASTEIGER

@<TRIPOS>ATOM
      1 C           0.5767    3.3125   25.8255 C.2     1  UNL1        0.2015
      2 O           1.5860    4.3664   26.1724 O.2     1  UNL1       -0.2864
      3 C          -0.1737    3.3904   24.5290 C.ar    1  UNL1        0.0611
      4 C          -1.2969    4.3339   24.2156 C.ar    1  UNL1        0.1037
      5 N          -1.7499    4.0650   22.8112 N.ar    1  UNL1       -0.2269
      6 C          -0.9067    2.9552   22.2566 C.ar    1  UNL1        0.1407
      7 N          -0.9002    2.2705   20.9221 N.ar    1  UNL1       -0.3374
      8 C           0.0806    1.1689   20.6492 C.ar    1  UNL1        0.0735
      9 C           1.0547    0.7519   21.7109 C.ar    1  UNL1        0.0186
     10 C           1.0482    1.4366   23.0454 C.ar    1  UNL1        0.0047
     11 C           0.0674    2.5383   23.3183 C.ar    1  UNL1        0.0386
     12 H          -1.5395    2.5442   20.2252 H       1  UNL1        0.1674
     13 C           2.0355   -0.3498   21.4379 C.ar    1  UNL1        0.0206
     14 C           2.9923   -0.7844   22.5083 C.ar    1  UNL1        0.0037
     15 C           3.9730   -1.8861   22.2354 C.ar    1  UNL1        0.0255
     16 C           3.9970   -2.5531   20.8921 C.ar    1  UNL1        0.1067
     17 N           3.0401   -2.1185   19.8217 N.ar    1  UNL1       -0.2376
     18 C           2.0594   -1.0168   20.0946 C.ar    1  UNL1        0.0994
     19 S           4.9777   -3.6548   20.6191 S.3     1  UNL1       -0.0940
     20 C           5.0620   -4.2616   19.2499 C.3     1  UNL1        0.0757
     21 C           1.1721    0.1174   28.1030 C.ar    1  UNL1        0.0920
     22 C          -0.2003   -0.0831   28.6745 C.ar    1  UNL1        0.0204
     23 C          -1.3136    0.8483   28.2963 C.ar    1  UNL1        0.0312
     24 C          -1.0547    1.9801   27.3467 C.ar    1  UNL1        0.1454
     25 F          -2.1680    2.9115   26.9685 F       1  UNL1       -0.2040
     26 C           0.3177    2.1806   26.7752 C.ar    1  UNL1        0.0951
     27 C           1.4310    1.2492   27.1534 C.ar    1  UNL1        0.1598
     28 F           2.8033    1.4498   26.5819 F       1  UNL1       -0.2026
     29 N           2.2854   -0.8140   28.4812 N.pl3   1  UNL1       -0.2166
     30 H           2.4382   -1.6355   27.9607 H       1  UNL1        0.1734
     31 S           3.1659   -0.4937   29.6526 S.O2    1  UNL1        0.0540
     32 O           4.3089   -0.2238   28.7196 O.2     1  UNL1       -0.1545
     33 O           2.0228   -0.7636   30.5856 O.2     1  UNL1       -0.1545
     34 C           4.0463   -0.1734   30.8240 C.3     1  UNL1        0.1724
     35 C           4.2865   -0.7027   33.3563 C.3     1  UNL1        0.0019
     36 C           3.4766   -0.1700   32.2117 C.3     1  UNL1        0.0273
@<TRIPOS>BOND
     1    35    36    1
     2    36    34    1
     3    34    31    1
     4    31    32    2
     5    31    33    2
     6    31    29    1
     7    29    21    1
     8    21    22   ar
     9    22    23   ar
    10    23    24   ar
    11    24    25    1
    12    24    26   ar
    13    26     1    1
    14     1     2    2
    15     1     3    1
    16     3     4   ar
    17     4     5   ar
    18     5     6   ar
    19     6     7   ar
    20     7     8   ar
    21     8     9   ar
    22     9    13    1
    23    13    14   ar
    24    14    15   ar
    25    15    16   ar
    26    16    19    1
    27    19    20    1
    28    16    17   ar
    29    17    18   ar
    30     9    10   ar
    31    10    11   ar
    32    26    27   ar
    33    27    28    1
    34    27    21   ar
    35    11     3   ar
    36    11     6    1
    37    18    13   ar
    38    29    30    1
    39     7    12    1
