@<TRIPOS>MOLECULE
*****
 32 36 0 0 0
SMALL
GASTEIGER

@<TRIPOS>ATOM
      1 C          -9.9811  -19.5456   22.9248 C.2     1  UNL1        0.2257
      2 O         -10.3382  -20.8309   23.6107 O.2     1  UNL1       -0.2749
      3 N          -8.5861  -19.3282   22.4182 N.am    1  UNL1       -0.2760
      4 C          -7.5481  -20.3961   22.5976 C.3     1  UNL1        0.1149
      5 C          -6.1530  -20.1787   22.0911 C.3     1  UNL1        0.1141
      6 N          -5.7960  -18.8934   21.4051 N.pl3   1  UNL1       -0.2846
      7 C          -6.8339  -17.8256   21.2257 C.3     1  UNL1        0.1141
      8 C          -8.2290  -18.0430   21.7323 C.3     1  UNL1        0.1149
      9 C          -4.4009  -18.6760   20.8986 C.ar    1  UNL1        0.1645
     10 N          -4.0187  -18.3232   19.4916 N.ar    1  UNL1       -0.2225
     11 C          -2.5247  -18.2024   19.4335 C.ar    1  UNL1        0.1070
     12 C          -1.5872  -17.8751   18.3093 C.ar    1  UNL1        0.0228
     13 C          -0.1085  -17.8259   18.5562 C.ar    1  UNL1        0.0223
     14 C           0.4327  -18.1041   19.9272 C.ar    1  UNL1        0.0995
     15 N          -0.5049  -18.4314   21.0514 N.ar    1  UNL1       -0.2357
     16 C          -1.9836  -18.4806   20.8046 C.ar    1  UNL1        0.1308
     17 S          -3.1431  -18.7733   21.7100 S.2     1  UNL1       -0.0325
     18 C         -10.9317  -17.2064   23.5367 C.3     1  UNL1        0.0851
     19 C         -11.9698  -16.1385   23.3572 C.3     1  UNL1        0.0096
     20 C         -13.0951  -16.3420   22.3866 C.3     1  UNL1        0.0005
     21 C         -13.1824  -17.6133   21.5953 C.3     1  UNL1        0.0005
     22 C         -12.1445  -18.6812   21.7747 C.3     1  UNL1        0.0096
     23 C         -11.0191  -18.4777   22.7454 C.3     1  UNL1        0.0853
     24 N          -8.9710  -15.7591   24.4371 N.am    1  UNL1       -0.2959
     25 C          -9.8064  -17.0030   24.5073 C.2     1  UNL1        0.2231
     26 O          -9.5165  -18.0433   25.5482 O.2     1  UNL1       -0.2751
     27 H          -9.1613  -15.0763   23.7539 H       1  UNL1        0.1502
     28 C          -7.8457  -15.5557   25.4078 C.3     1  UNL1        0.1364
     29 C          -7.1247  -15.3489   26.7068 C.3     1  UNL1        0.0353
     30 C          -8.6193  -15.4756   26.6903 C.3     1  UNL1        0.0353
     31 N          -5.5168  -15.5744   23.5167 N.1     1  UNL1       -0.1943
     32 C          -6.6812  -15.5651   24.4622 C.1     1  UNL1        0.0896
@<TRIPOS>BOND
     1    31    32    3
     2    32    28    1
     3    28    24    1
     4    24    25   am
     5    25    26    2
     6    18    25    1
     7    18    19    1
     8    19    20    1
     9    20    21    1
    10    21    22    1
    11    22    23    1
    12    23     1    1
    13     1     2    2
    14     1     3   am
    15     3     4    1
    16     4     5    1
    17     5     6    1
    18     6     9    1
    19     9    10   ar
    20    10    11   ar
    21    11    12   ar
    22    12    13   ar
    23    13    14   ar
    24    14    15   ar
    25    15    16   ar
    26    16    17   ar
    27     6     7    1
    28     7     8    1
    29    28    29    1
    30    29    30    1
    31    30    28    1
    32    23    18    1
    33     8     3    1
    34    17     9   ar
    35    16    11   ar
    36    24    27    1
@<TRIPOS>MOLECULE
*****
 32 36 0 0 0
SMALL
GASTEIGER

@<TRIPOS>ATOM
      1 C           5.0271   -0.6902   17.3444 C.2     1  UNL1        0.2257
      2 O           3.9501   -1.1916   16.4286 O.2     1  UNL1       -0.2749
      3 N           5.5713   -1.5817   18.4209 N.am    1  UNL1       -0.2760
      4 C           5.0386   -2.9747   18.5817 C.3     1  UNL1        0.1149
      5 C           5.5828   -3.8663   19.6582 C.3     1  UNL1        0.1141
      6 N           6.6598   -3.3649   20.5740 N.pl3   1  UNL1       -0.2846
      7 C           7.1925   -1.9719   20.4133 C.3     1  UNL1        0.1141
      8 C           6.6482   -1.0804   19.3368 C.3     1  UNL1        0.1149
      9 C           7.2040   -4.2564   21.6505 C.ar    1  UNL1        0.1645
     10 N           8.0896   -5.4492   21.4435 N.ar    1  UNL1       -0.2225
     11 C           8.3912   -6.0417   22.7881 C.ar    1  UNL1        0.1070
     12 C           9.2121   -7.2271   23.2013 C.ar    1  UNL1        0.0228
     13 C           9.3338   -7.5859   24.6527 C.ar    1  UNL1        0.0223
     14 C           8.6345   -6.7593   25.6908 C.ar    1  UNL1        0.0995
     15 N           7.8135   -5.5739   25.2776 N.ar    1  UNL1       -0.2357
     16 C           7.6919   -5.2151   23.8262 C.ar    1  UNL1        0.1308
     17 S           6.9582   -4.1118   23.1232 S.2     1  UNL1       -0.0325
     18 C           4.9423    1.8349   17.9498 C.3     1  UNL1        0.0851
     19 C           5.4751    3.2279   17.7891 C.3     1  UNL1        0.0096
     20 C           6.6253    3.4887   16.8622 C.3     1  UNL1        0.0005
     21 C           7.2427    2.3565   16.0961 C.3     1  UNL1        0.0005
     22 C           6.7100    0.9636   16.2568 C.3     1  UNL1        0.0096
     23 C           5.5598    0.7028   17.1837 C.3     1  UNL1        0.0853
     24 N           2.5313    0.9542   18.3514 N.am    1  UNL1       -0.2959
     25 C           3.7922    1.5742   18.8767 C.2     1  UNL1        0.2231
     26 O           3.9029    1.9334   20.3288 O.2     1  UNL1       -0.2751
     27 H           2.4587    0.7184   17.3983 H       1  UNL1        0.1502
     28 C           1.3812    0.6934   19.2782 C.3     1  UNL1        0.1364
     29 C           0.5061   -0.0038   20.2774 C.3     1  UNL1        0.0353
     30 C           1.7740   -0.6537   19.8083 C.3     1  UNL1        0.0353
     31 N          -0.2034    3.2066   18.8619 N.1     1  UNL1       -0.1943
     32 C           0.5889    1.9500   19.0701 C.1     1  UNL1        0.0896
@<TRIPOS>BOND
     1    31    32    3
     2    32    28    1
     3    28    24    1
     4    24    25   am
     5    25    26    2
     6    18    25    1
     7    18    19    1
     8    19    20    1
     9    20    21    1
    10    21    22    1
    11    22    23    1
    12    23     1    1
    13     1     2    2
    14     1     3   am
    15     3     4    1
    16     4     5    1
    17     5     6    1
    18     6     9    1
    19     9    10   ar
    20    10    11   ar
    21    11    12   ar
    22    12    13   ar
    23    13    14   ar
    24    14    15   ar
    25    15    16   ar
    26    16    17   ar
    27     6     7    1
    28     7     8    1
    29    28    29    1
    30    29    30    1
    31    30    28    1
    32    23    18    1
    33     8     3    1
    34    17     9   ar
    35    16    11   ar
    36    24    27    1
@<TRIPOS>MOLECULE
*****
 32 36 0 0 0
SMALL
GASTEIGER

@<TRIPOS>ATOM
      1 C           4.6966    0.2173   22.1992 C.2     1  UNL1        0.2257
      2 O           5.8144    0.7049   21.3259 O.2     1  UNL1       -0.2749
      3 N           5.0014   -0.4118   23.5264 N.am    1  UNL1       -0.2760
      4 C           6.4240   -0.5532   23.9803 C.3     1  UNL1        0.1149
      5 C           6.7289   -1.1822   25.3075 C.3     1  UNL1        0.1141
      6 N           5.6110   -1.6699   26.1807 N.pl3   1  UNL1       -0.2846
      7 C           4.1884   -1.5285   25.7268 C.3     1  UNL1        0.1141
      8 C           3.8836   -0.8994   24.3996 C.3     1  UNL1        0.1149
      9 C           5.9159   -2.2989   27.5079 C.ar    1  UNL1        0.1645
     10 N           6.3110   -3.7277   27.7364 N.ar    1  UNL1       -0.2225
     11 C           6.5184   -3.9215   29.2094 C.ar    1  UNL1        0.1070
     12 C           6.9159   -5.1208   30.0178 C.ar    1  UNL1        0.0228
     13 C           7.0464   -5.0110   31.5080 C.ar    1  UNL1        0.0223
     14 C           6.7793   -3.7018   32.1898 C.ar    1  UNL1        0.0995
     15 N           6.3819   -2.5025   31.3814 N.ar    1  UNL1       -0.2357
     16 C           6.2514   -2.6123   29.8912 C.ar    1  UNL1        0.1308
     17 S           5.8790   -1.6096   28.8396 S.2     1  UNL1       -0.0325
     18 C           2.6346   -0.7277   20.9322 C.3     1  UNL1        0.0851
     19 C           1.2119   -0.5863   20.4783 C.3     1  UNL1        0.0096
     20 C           0.4286    0.6415   20.8374 C.3     1  UNL1        0.0005
     21 C           1.0680    1.7278   21.6505 C.3     1  UNL1        0.0005
     22 C           2.4906    1.5865   22.1044 C.3     1  UNL1        0.0096
     23 C           3.2740    0.3586   21.7453 C.3     1  UNL1        0.0853
     24 N           3.5980   -2.3357   19.1333 N.am    1  UNL1       -0.2959
     25 C           3.4179   -1.9555   20.5731 C.2     1  UNL1        0.2231
     26 O           4.0211   -2.8030   21.6538 O.2     1  UNL1       -0.2751
     27 H           3.2021   -1.7795   18.4241 H       1  UNL1        0.1502
     28 C           4.3813   -3.5635   18.7742 C.3     1  UNL1        0.1364
     29 C           4.7383   -5.0120   18.6173 C.3     1  UNL1        0.0353
     30 C           3.4258   -4.6252   19.2319 C.3     1  UNL1        0.0353
     31 N           6.8366   -2.2927   17.6093 N.1     1  UNL1       -0.1943
     32 C           5.6090   -2.9281   18.1917 C.1     1  UNL1        0.0896
@<TRIPOS>BOND
     1    31    32    3
     2    32    28    1
     3    28    24    1
     4    24    25   am
     5    25    26    2
     6    18    25    1
     7    18    19    1
     8    19    20    1
     9    20    21    1
    10    21    22    1
    11    22    23    1
    12    23     1    1
    13     1     2    2
    14     1     3   am
    15     3     4    1
    16     4     5    1
    17     5     6    1
    18     6     9    1
    19     9    10   ar
    20    10    11   ar
    21    11    12   ar
    22    12    13   ar
    23    13    14   ar
    24    14    15   ar
    25    15    16   ar
    26    16    17   ar
    27     6     7    1
    28     7     8    1
    29    28    29    1
    30    29    30    1
    31    30    28    1
    32    23    18    1
    33     8     3    1
    34    17     9   ar
    35    16    11   ar
    36    24    27    1
@<TRIPOS>MOLECULE
*****
 32 36 0 0 0
SMALL
GASTEIGER

@<TRIPOS>ATOM
      1 C           4.5771    0.3656   21.4421 C.2     1  UNL1        0.2257
      2 O           5.6102    1.0442   20.5924 O.2     1  UNL1       -0.2749
      3 N           5.0013   -0.4838   22.6034 N.am    1  UNL1       -0.2760
      4 C           6.4585   -0.6546   22.9149 C.3     1  UNL1        0.1149
      5 C           6.8827   -1.5040   24.0762 C.3     1  UNL1        0.1141
      6 N           5.8497   -2.1826   24.9259 N.pl3   1  UNL1       -0.2846
      7 C           4.3924   -2.0119   24.6144 C.3     1  UNL1        0.1141
      8 C           3.9682   -1.1624   23.4531 C.3     1  UNL1        0.1149
      9 C           6.2739   -3.0321   26.0872 C.ar    1  UNL1        0.1645
     10 N           6.0744   -2.7058   27.5376 N.ar    1  UNL1       -0.2225
     11 C           6.6492   -3.8289   28.3488 C.ar    1  UNL1        0.1070
     12 C           6.7392   -4.0543   29.8290 C.ar    1  UNL1        0.0228
     13 C           7.3840   -5.3001   30.3601 C.ar    1  UNL1        0.0223
     14 C           7.9387   -6.3206   29.4110 C.ar    1  UNL1        0.0995
     15 N           7.8488   -6.0953   27.9308 N.ar    1  UNL1       -0.2357
     16 C           7.2040   -4.8494   27.3997 C.ar    1  UNL1        0.1308
     17 S           6.9720   -4.3569   26.0020 S.2     1  UNL1       -0.0325
     18 C           2.4487   -0.3836   20.1543 C.3     1  UNL1        0.0851
     19 C           0.9913   -0.2128   19.8428 C.3     1  UNL1        0.0096
     20 C           0.2051    0.8780   20.5076 C.3     1  UNL1        0.0005
     21 C           0.8762    1.7981   21.4839 C.3     1  UNL1        0.0005
     22 C           2.3335    1.6273   21.7954 C.3     1  UNL1        0.0096
     23 C           3.1198    0.5364   21.1306 C.3     1  UNL1        0.0853
     24 N           3.5763   -2.7223   20.2486 N.am    1  UNL1       -0.2959
     25 C           3.2349   -1.4744   19.4895 C.2     1  UNL1        0.2231
     26 O           3.6796   -1.3174   18.0657 O.2     1  UNL1       -0.2751
     27 H           3.2843   -2.8254   21.1832 H       1  UNL1        0.1502
     28 C           4.3624   -3.8132   19.5838 C.3     1  UNL1        0.1364
     29 C           4.6644   -5.0706   18.8236 C.3     1  UNL1        0.0353
     30 C           3.2410   -4.6715   19.0783 C.3     1  UNL1        0.0353
     31 N           7.1514   -2.8541   20.1332 N.1     1  UNL1       -0.1943
     32 C           5.7570   -3.3336   19.8585 C.1     1  UNL1        0.0896
@<TRIPOS>BOND
     1    31    32    3
     2    32    28    1
     3    28    24    1
     4    24    25   am
     5    25    26    2
     6    18    25    1
     7    18    19    1
     8    19    20    1
     9    20    21    1
    10    21    22    1
    11    22    23    1
    12    23     1    1
    13     1     2    2
    14     1     3   am
    15     3     4    1
    16     4     5    1
    17     5     6    1
    18     6     9    1
    19     9    10   ar
    20    10    11   ar
    21    11    12   ar
    22    12    13   ar
    23    13    14   ar
    24    14    15   ar
    25    15    16   ar
    26    16    17   ar
    27     6     7    1
    28     7     8    1
    29    28    29    1
    30    29    30    1
    31    30    28    1
    32    23    18    1
    33     8     3    1
    34    17     9   ar
    35    16    11   ar
    36    24    27    1
@<TRIPOS>MOLECULE
*****
 32 36 0 0 0
SMALL
GASTEIGER

@<TRIPOS>ATOM
      1 C           4.2458   -0.3888   19.5110 C.2     1  UNL1        0.2257
      2 O           5.5384    0.2907   19.1683 O.2     1  UNL1       -0.2749
      3 N           2.9801    0.4106   19.6049 N.am    1  UNL1       -0.2760
      4 C           3.0069    1.8895   19.3560 C.3     1  UNL1        0.1149
      5 C           1.7412    2.6890   19.4499 C.3     1  UNL1        0.1141
      6 N           0.4486    2.0095   19.7926 N.pl3   1  UNL1       -0.2846
      7 C           0.4218    0.5305   20.0415 C.3     1  UNL1        0.1141
      8 C           1.6875   -0.2689   19.9476 C.3     1  UNL1        0.1149
      9 C          -0.8171    2.8089   19.8865 C.ar    1  UNL1        0.1645
     10 N          -1.9405    2.5713   20.8516 N.ar    1  UNL1       -0.2225
     11 C          -2.9994    3.6019   20.5933 C.ar    1  UNL1        0.1070
     12 C          -4.3300    3.8569   21.2370 C.ar    1  UNL1        0.0228
     13 C          -5.1917    4.9865   20.7559 C.ar    1  UNL1        0.0223
     14 C          -4.7227    5.8611   19.6311 C.ar    1  UNL1        0.0995
     15 N          -3.3921    5.6060   18.9874 N.ar    1  UNL1       -0.2357
     16 C          -2.5304    4.4764   19.4685 C.ar    1  UNL1        0.1308
     17 S          -1.1817    3.9864   19.0317 S.2     1  UNL1       -0.0325
     18 C           4.3047   -2.3941   21.1619 C.3     1  UNL1        0.0851
     19 C           4.2778   -3.8731   21.4107 C.3     1  UNL1        0.0096
     20 C           4.1653   -4.8257   20.2575 C.3     1  UNL1        0.0005
     21 C           4.0796   -4.2994   18.8555 C.3     1  UNL1        0.0005
     22 C           4.1065   -2.8205   18.6067 C.3     1  UNL1        0.0096
     23 C           4.2190   -1.8678   19.7599 C.3     1  UNL1        0.0853
     24 N           3.2147   -1.1412   23.1599 N.am    1  UNL1       -0.2959
     25 C           4.4172   -1.4415   22.3150 C.2     1  UNL1        0.2231
     26 O           5.7322   -0.7892   22.6234 O.2     1  UNL1       -0.2751
     27 H           2.3515   -1.5693   22.9575 H       1  UNL1        0.1502
     28 C           3.3272   -0.1886   24.3130 C.3     1  UNL1        0.1364
     29 C           3.5750    0.3199   25.7023 C.3     1  UNL1        0.0353
     30 C           3.7558   -1.1368   25.3933 C.3     1  UNL1        0.0353
     31 N           2.5479    2.3696   22.9534 N.1     1  UNL1       -0.1943
     32 C           2.9376    1.0905   23.6332 C.1     1  UNL1        0.0896
@<TRIPOS>BOND
     1    31    32    3
     2    32    28    1
     3    28    24    1
     4    24    25   am
     5    25    26    2
     6    18    25    1
     7    18    19    1
     8    19    20    1
     9    20    21    1
    10    21    22    1
    11    22    23    1
    12    23     1    1
    13     1     2    2
    14     1     3   am
    15     3     4    1
    16     4     5    1
    17     5     6    1
    18     6     9    1
    19     9    10   ar
    20    10    11   ar
    21    11    12   ar
    22    12    13   ar
    23    13    14   ar
    24    14    15   ar
    25    15    16   ar
    26    16    17   ar
    27     6     7    1
    28     7     8    1
    29    28    29    1
    30    29    30    1
    31    30    28    1
    32    23    18    1
    33     8     3    1
    34    17     9   ar
    35    16    11   ar
    36    24    27    1
@<TRIPOS>MOLECULE
*****
 32 36 0 0 0
SMALL
GASTEIGER

@<TRIPOS>ATOM
      1 C           8.3869   -3.9516   26.1024 C.2     1  UNL1        0.2257
      2 O           9.1240   -3.0620   27.0590 O.2     1  UNL1       -0.2749
      3 N           7.4684   -3.3539   25.0781 N.am    1  UNL1       -0.2760
      4 C           7.2871   -1.8664   25.0104 C.3     1  UNL1        0.1149
      5 C           6.3686   -1.2687   23.9862 C.3     1  UNL1        0.1141
      6 N           5.6315   -2.1583   23.0296 N.pl3   1  UNL1       -0.2846
      7 C           5.8129   -3.6458   23.0972 C.3     1  UNL1        0.1141
      8 C           6.7313   -4.2435   24.1215 C.3     1  UNL1        0.1149
      9 C           4.7131   -1.5606   22.0053 C.ar    1  UNL1        0.1645
     10 N           3.2163   -1.5063   22.0878 N.ar    1  UNL1       -0.2225
     11 C           2.7083   -0.8243   20.8522 C.ar    1  UNL1        0.1070
     12 C           1.3215   -0.4903   20.3883 C.ar    1  UNL1        0.0228
     13 C           1.1176    0.2110   19.0782 C.ar    1  UNL1        0.0223
     14 C           2.3003    0.5783   18.2319 C.ar    1  UNL1        0.0995
     15 N           3.6871    0.2443   18.6958 N.ar    1  UNL1       -0.2357
     16 C           3.8911   -0.4570   20.0060 C.ar    1  UNL1        0.1308
     17 S           5.1301   -0.9121   20.7186 S.2     1  UNL1       -0.0325
     18 C           8.0005   -6.2122   27.3233 C.3     1  UNL1        0.0851
     19 C           8.1819   -7.6997   27.3909 C.3     1  UNL1        0.0096
     20 C           8.9310   -8.4140   26.3053 C.3     1  UNL1        0.0005
     21 C           9.4987   -7.6409   25.1521 C.3     1  UNL1        0.0005
     22 C           9.3174   -6.1535   25.0844 C.3     1  UNL1        0.0096
     23 C           8.5682   -5.4391   26.1700 C.3     1  UNL1        0.0853
     24 N           7.9989   -4.8677   29.5464 N.am    1  UNL1       -0.2959
     25 C           7.2514   -5.4979   28.4088 C.2     1  UNL1        0.2231
     26 O           5.7547   -5.4137   28.3569 O.2     1  UNL1       -0.2751
     27 H           8.9813   -4.9230   29.5805 H       1  UNL1        0.1502
     28 C           7.2498   -4.1534   30.6320 C.3     1  UNL1        0.1364
     29 C           6.5362   -3.9137   31.9294 C.3     1  UNL1        0.0353
     30 C           7.0919   -5.2719   31.6189 C.3     1  UNL1        0.0353
     31 N           7.0454   -1.4202   29.4121 N.1     1  UNL1       -0.1943
     32 C           7.1476   -2.7868   30.0220 C.1     1  UNL1        0.0896
@<TRIPOS>BOND
     1    31    32    3
     2    32    28    1
     3    28    24    1
     4    24    25   am
     5    25    26    2
     6    18    25    1
     7    18    19    1
     8    19    20    1
     9    20    21    1
    10    21    22    1
    11    22    23    1
    12    23     1    1
    13     1     2    2
    14     1     3   am
    15     3     4    1
    16     4     5    1
    17     5     6    1
    18     6     9    1
    19     9    10   ar
    20    10    11   ar
    21    11    12   ar
    22    12    13   ar
    23    13    14   ar
    24    14    15   ar
    25    15    16   ar
    26    16    17   ar
    27     6     7    1
    28     7     8    1
    29    28    29    1
    30    29    30    1
    31    30    28    1
    32    23    18    1
    33     8     3    1
    34    17     9   ar
    35    16    11   ar
    36    24    27    1
@<TRIPOS>MOLECULE
*****
 32 36 0 0 0
SMALL
GASTEIGER

@<TRIPOS>ATOM
      1 C          -0.7020    4.6160   22.9837 C.2     1  UNL1        0.2257
      2 O          -0.4694    6.0471   22.5994 O.2     1  UNL1       -0.2749
      3 N           0.1189    3.5282   22.3569 N.am    1  UNL1       -0.2760
      4 C           1.1723    3.8715   21.3457 C.3     1  UNL1        0.1149
      5 C           1.9931    2.7837   20.7189 C.3     1  UNL1        0.1141
      6 N           1.7606    1.3526   21.1032 N.pl3   1  UNL1       -0.2846
      7 C           0.7072    1.0093   22.1143 C.3     1  UNL1        0.1141
      8 C          -0.1137    2.0971   22.7412 C.3     1  UNL1        0.1149
      9 C           2.5814    0.2648   20.4764 C.ar    1  UNL1        0.1645
     10 N           2.2222   -1.1905   20.4217 N.ar    1  UNL1       -0.2225
     11 C           3.3244   -1.9134   19.7057 C.ar    1  UNL1        0.1070
     12 C           3.5151   -3.3598   19.3568 C.ar    1  UNL1        0.0228
     13 C           4.7461   -3.7975   18.6201 C.ar    1  UNL1        0.0223
     14 C           5.7864   -2.7889   18.2322 C.ar    1  UNL1        0.0995
     15 N           5.5958   -1.3426   18.5810 N.ar    1  UNL1       -0.2357
     16 C           4.3647   -0.9049   19.3178 C.ar    1  UNL1        0.1308
     17 S           3.9055    0.4413   19.7941 S.2     1  UNL1       -0.0325
     18 C          -3.1945    4.1898   23.5800 C.3     1  UNL1        0.0851
     19 C          -4.2479    3.8465   24.5913 C.3     1  UNL1        0.0096
     20 C          -3.8622    3.5860   26.0172 C.3     1  UNL1        0.0005
     21 C          -2.4231    3.6688   26.4320 C.3     1  UNL1        0.0005
     22 C          -1.3697    4.0121   25.4208 C.3     1  UNL1        0.0096
     23 C          -1.7554    4.2727   23.9948 C.3     1  UNL1        0.0853
     24 N          -3.5886    3.3254   21.1619 N.am    1  UNL1       -0.2959
     25 C          -3.5802    4.4503   22.1541 C.2     1  UNL1        0.2231
     26 O          -3.9576    5.8358   21.7204 O.2     1  UNL1       -0.2751
     27 H          -3.3409    2.4161   21.4466 H       1  UNL1        0.1502
     28 C          -3.9743    3.5859   19.7360 C.3     1  UNL1        0.1364
     29 C          -4.8283    3.7414   18.5126 C.3     1  UNL1        0.0353
     30 C          -5.4566    3.3739   19.8242 C.3     1  UNL1        0.0353
     31 N          -1.2776    4.1908   18.5690 N.1     1  UNL1       -0.1943
     32 C          -2.6259    3.8884   19.1525 C.1     1  UNL1        0.0896
@<TRIPOS>BOND
     1    31    32    3
     2    32    28    1
     3    28    24    1
     4    24    25   am
     5    25    26    2
     6    18    25    1
     7    18    19    1
     8    19    20    1
     9    20    21    1
    10    21    22    1
    11    22    23    1
    12    23     1    1
    13     1     2    2
    14     1     3   am
    15     3     4    1
    16     4     5    1
    17     5     6    1
    18     6     9    1
    19     9    10   ar
    20    10    11   ar
    21    11    12   ar
    22    12    13   ar
    23    13    14   ar
    24    14    15   ar
    25    15    16   ar
    26    16    17   ar
    27     6     7    1
    28     7     8    1
    29    28    29    1
    30    29    30    1
    31    30    28    1
    32    23    18    1
    33     8     3    1
    34    17     9   ar
    35    16    11   ar
    36    24    27    1
@<TRIPOS>MOLECULE
*****
 32 36 0 0 0
SMALL
GASTEIGER

@<TRIPOS>ATOM
      1 C           4.4502    1.8356   20.1411 C.2     1  UNL1        0.2257
      2 O           5.1225    1.7719   21.4805 O.2     1  UNL1       -0.2749
      3 N           2.9968    2.1943   20.0478 N.am    1  UNL1       -0.2760
      4 C           2.2155    2.4893   21.2938 C.3     1  UNL1        0.1149
      5 C           0.7620    2.8480   21.2005 C.3     1  UNL1        0.1141
      6 N           0.0898    2.9118   19.8611 N.pl3   1  UNL1       -0.2846
      7 C           0.8710    2.6168   18.6151 C.3     1  UNL1        0.1141
      8 C           2.3245    2.2581   18.7084 C.3     1  UNL1        0.1149
      9 C          -1.3637    3.2705   19.7678 C.ar    1  UNL1        0.1645
     10 N          -2.4323    2.8818   20.7460 N.ar    1  UNL1       -0.2225
     11 C          -3.7329    3.4520   20.2627 C.ar    1  UNL1        0.1070
     12 C          -5.1240    3.3921   20.8203 C.ar    1  UNL1        0.0228
     13 C          -6.2503    4.0733   20.1010 C.ar    1  UNL1        0.0223
     14 C          -5.9854    4.8143   18.8240 C.ar    1  UNL1        0.0995
     15 N          -4.5942    4.8741   18.2663 N.ar    1  UNL1       -0.2357
     16 C          -3.4680    4.1930   18.9857 C.ar    1  UNL1        0.1308
     17 S          -2.0038    4.0808   18.6798 S.2     1  UNL1       -0.0325
     18 C           5.3863    0.1249   18.4244 C.3     1  UNL1        0.0851
     19 C           6.1676   -0.1700   17.1783 C.3     1  UNL1        0.0096
     20 C           6.7940    0.9508   16.4030 C.3     1  UNL1        0.0005
     21 C           6.6391    2.3666   16.8736 C.3     1  UNL1        0.0005
     22 C           5.8579    2.6616   18.1196 C.3     1  UNL1        0.0096
     23 C           5.2315    1.5407   18.8951 C.3     1  UNL1        0.0853
     24 N           5.6126   -1.8820   20.0588 N.am    1  UNL1       -0.2959
     25 C           4.7599   -0.9960   19.1998 C.2     1  UNL1        0.2231
     26 O           3.2808   -1.2308   19.1162 O.2     1  UNL1       -0.2751
     27 H           6.5834   -1.7279   20.1136 H       1  UNL1        0.1502
     28 C           4.9862   -3.0029   20.8342 C.3     1  UNL1        0.1364
     29 C           4.4049   -3.7671   21.9866 C.3     1  UNL1        0.0353
     30 C           4.8985   -2.3652   22.1890 C.3     1  UNL1        0.0353
     31 N           4.7266   -5.0568   18.6629 N.1     1  UNL1       -0.1943
     32 C           4.8564   -4.0299   19.7485 C.1     1  UNL1        0.0896
@<TRIPOS>BOND
     1    31    32    3
     2    32    28    1
     3    28    24    1
     4    24    25   am
     5    25    26    2
     6    18    25    1
     7    18    19    1
     8    19    20    1
     9    20    21    1
    10    21    22    1
    11    22    23    1
    12    23     1    1
    13     1     2    2
    14     1     3   am
    15     3     4    1
    16     4     5    1
    17     5     6    1
    18     6     9    1
    19     9    10   ar
    20    10    11   ar
    21    11    12   ar
    22    12    13   ar
    23    13    14   ar
    24    14    15   ar
    25    15    16   ar
    26    16    17   ar
    27     6     7    1
    28     7     8    1
    29    28    29    1
    30    29    30    1
    31    30    28    1
    32    23    18    1
    33     8     3    1
    34    17     9   ar
    35    16    11   ar
    36    24    27    1
@<TRIPOS>MOLECULE
*****
 32 36 0 0 0
SMALL
GASTEIGER

@<TRIPOS>ATOM
      1 C           7.9076   -2.0324   28.2012 C.2     1  UNL1        0.2257
      2 O           9.3423   -1.6272   28.0359 O.2     1  UNL1       -0.2749
      3 N           6.9081   -1.7064   27.1314 N.am    1  UNL1       -0.2760
      4 C           7.3432   -0.9752   25.8961 C.3     1  UNL1        0.1149
      5 C           6.3437   -0.6492   24.8262 C.3     1  UNL1        0.1141
      6 N           4.9090   -1.0544   24.9916 N.pl3   1  UNL1       -0.2846
      7 C           4.4738   -1.7856   26.2269 C.3     1  UNL1        0.1141
      8 C           5.4734   -2.1116   27.2967 C.3     1  UNL1        0.1149
      9 C           3.9095   -0.7284   23.9217 C.ar    1  UNL1        0.1645
     10 N           3.8660   -1.3226   22.5451 N.ar    1  UNL1       -0.2225
     11 C           2.7076   -0.7124   21.8132 C.ar    1  UNL1        0.1070
     12 C           2.1782   -0.9158   20.4245 C.ar    1  UNL1        0.0228
     13 C           0.9764   -0.1478   19.9601 C.ar    1  UNL1        0.0223
     14 C           0.3039    0.8235   20.8844 C.ar    1  UNL1        0.0995
     15 N           0.8332    1.0269   22.2730 N.ar    1  UNL1       -0.2357
     16 C           2.0351    0.2589   22.7374 C.ar    1  UNL1        0.1308
     17 S           2.7779    0.2490   24.0405 S.2     1  UNL1       -0.0325
     18 C           7.4918   -4.2632   29.4664 C.3     1  UNL1        0.0851
     19 C           7.0566   -4.9944   30.7018 C.3     1  UNL1        0.0096
     20 C           6.6021   -4.2260   31.9071 C.3     1  UNL1        0.0005
     21 C           6.5827   -2.7264   31.8772 C.3     1  UNL1        0.0005
     22 C           7.0179   -1.9952   30.6420 C.3     1  UNL1        0.0096
     23 C           7.4724   -2.7636   29.4365 C.3     1  UNL1        0.0853
     24 N           6.9360   -5.6035   27.3113 N.am    1  UNL1       -0.2959
     25 C           7.9463   -5.0316   28.2611 C.2     1  UNL1        0.2231
     26 O           9.4113   -5.2280   28.0054 O.2     1  UNL1       -0.2751
     27 H           5.9745   -5.4746   27.4791 H       1  UNL1        0.1502
     28 C           7.3905   -6.3719   26.1060 C.3     1  UNL1        0.1364
     29 C           7.8503   -7.5200   25.2571 C.3     1  UNL1        0.0353
     30 C           7.5634   -7.7321   26.7141 C.3     1  UNL1        0.0353
     31 N           7.3605   -4.1851   24.0524 N.1     1  UNL1       -0.1943
     32 C           7.3755   -5.2785   25.0792 C.1     1  UNL1        0.0896
@<TRIPOS>BOND
     1    31    32    3
     2    32    28    1
     3    28    24    1
     4    24    25   am
     5    25    26    2
     6    18    25    1
     7    18    19    1
     8    19    20    1
     9    20    21    1
    10    21    22    1
    11    22    23    1
    12    23     1    1
    13     1     2    2
    14     1     3   am
    15     3     4    1
    16     4     5    1
    17     5     6    1
    18     6     9    1
    19     9    10   ar
    20    10    11   ar
    21    11    12   ar
    22    12    13   ar
    23    13    14   ar
    24    14    15   ar
    25    15    16   ar
    26    16    17   ar
    27     6     7    1
    28     7     8    1
    29    28    29    1
    30    29    30    1
    31    30    28    1
    32    23    18    1
    33     8     3    1
    34    17     9   ar
    35    16    11   ar
    36    24    27    1
