@<TRIPOS>MOLECULE
*****
 28 31 0 0 0
SMALL
GASTEIGER

@<TRIPOS>ATOM
      1 N         -14.1371   -3.8324   18.9889 N.ar    1  UNL1       -0.2064
      2 C         -15.1557   -4.9334   18.9761 C.ar    1  UNL1        0.1144
      3 C         -14.4233   -6.2420   18.9430 C.ar    1  UNL1        0.0686
      4 C         -12.9521   -5.9498   18.9355 C.ar    1  UNL1        0.0324
      5 C         -11.7506   -6.8473   18.9064 C.ar    1  UNL1        0.0028
      6 C         -10.3723   -6.2556   18.9057 C.ar    1  UNL1        0.0001
      7 C         -10.1954   -4.7663   18.9341 C.ar    1  UNL1        0.0015
      8 C         -11.3969   -3.8688   18.9631 C.ar    1  UNL1        0.0190
      9 C         -12.7752   -4.4605   18.9638 C.ar    1  UNL1        0.0838
     10 N         -15.0518   -7.6038   18.9214 N.pl3   1  UNL1       -0.3034
     11 C         -14.5331   -8.6545   17.9847 C.3     1  UNL1        0.1082
     12 C         -15.1615  -10.0163   17.9630 C.3     1  UNL1        0.0938
     13 N         -16.3087  -10.3276   18.8780 N.3     1  UNL1       -0.2686
     14 C         -16.9371  -11.6894   18.8563 C.3     1  UNL1        0.0897
     15 C         -16.8273   -9.2770   19.8146 C.3     1  UNL1        0.0938
     16 C         -16.1989   -7.9152   19.8363 C.3     1  UNL1        0.1082
     17 S         -14.4292   -2.3614   19.0212 S.O2    1  UNL1        0.0860
     18 O         -14.4441   -2.3973   20.5206 O.2     1  UNL1       -0.1476
     19 O         -14.4142   -2.3256   17.5217 O.2     1  UNL1       -0.1476
     20 C         -15.3054    2.0514   19.1178 C.ar    1  UNL1       -0.0224
     21 C         -16.1831    1.0958   19.8704 C.ar    1  UNL1       -0.0029
     22 C         -15.8910   -0.3751   19.8382 C.ar    1  UNL1        0.0201
     23 C         -14.7212   -0.8904   19.0533 C.ar    1  UNL1        0.1277
     24 C         -13.8435    0.0652   18.3007 C.ar    1  UNL1        0.0201
     25 C         -14.1356    1.5360   18.3329 C.ar    1  UNL1       -0.0029
     26 C         -15.9533    4.1882   20.4462 C.3     1  UNL1        0.0047
     27 C         -15.5974    3.5223   19.1499 C.3     1  UNL1        0.0224
     28 C         -15.5336    4.3275   17.8860 C.3     1  UNL1        0.0047
@<TRIPOS>BOND
     1    26    27    1
     2    27    28    1
     3    27    20    1
     4    20    21   ar
     5    21    22   ar
     6    22    23   ar
     7    23    17    1
     8    17    18    2
     9    17    19    2
    10    17     1    1
    11     1     2   ar
    12     2     3   ar
    13     3    10    1
    14    10    11    1
    15    11    12    1
    16    12    13    1
    17    13    14    1
    18    13    15    1
    19    15    16    1
    20     3     4   ar
    21     4     5   ar
    22     5     6   ar
    23     6     7   ar
    24     7     8   ar
    25     8     9   ar
    26    23    24   ar
    27    24    25   ar
    28    25    20   ar
    29     9     1   ar
    30    16    10    1
    31     9     4   ar
@<TRIPOS>MOLECULE
*****
 28 31 0 0 0
SMALL
GASTEIGER

@<TRIPOS>ATOM
      1 N           6.9315   -3.9900   23.7875 N.ar    1  UNL1       -0.2064
      2 C           6.5700   -3.5230   25.1664 C.ar    1  UNL1        0.1144
      3 C           7.1351   -4.5037   26.1508 C.ar    1  UNL1        0.0686
      4 C           7.8458   -5.5766   25.3803 C.ar    1  UNL1        0.0324
      5 C           8.5913   -6.8017   25.8200 C.ar    1  UNL1        0.0028
      6 C           9.2109   -7.7093   24.7991 C.ar    1  UNL1        0.0001
      7 C           9.0851   -7.3919   23.3385 C.ar    1  UNL1        0.0015
      8 C           8.3396   -6.1668   22.8988 C.ar    1  UNL1        0.0190
      9 C           7.7200   -5.2592   23.9197 C.ar    1  UNL1        0.0838
     10 N           7.0112   -4.4251   27.6436 N.pl3   1  UNL1       -0.3034
     11 C           6.9194   -3.0890   28.3193 C.3     1  UNL1        0.1082
     12 C           6.7956   -3.0105   29.8121 C.3     1  UNL1        0.0938
     13 N           6.7635   -4.2680   30.6293 N.3     1  UNL1       -0.2686
     14 C           6.6396   -4.1894   32.1221 C.3     1  UNL1        0.0897
     15 C           6.8553   -5.6040   29.9535 C.3     1  UNL1        0.0938
     16 C           6.9792   -5.6825   28.4607 C.3     1  UNL1        0.1082
     17 S           6.5683   -3.3075   22.5021 S.O2    1  UNL1        0.0860
     18 O           5.4033   -4.2378   22.3373 O.2     1  UNL1       -0.1476
     19 O           7.7334   -2.3772   22.6668 O.2     1  UNL1       -0.1476
     20 C           5.4788   -1.2599   18.6458 C.ar    1  UNL1       -0.0224
     21 C           4.5769   -1.1418   19.8386 C.ar    1  UNL1       -0.0029
     22 C           4.9401   -1.8244   21.1240 C.ar    1  UNL1        0.0201
     23 C           6.2052   -2.6250   21.2166 C.ar    1  UNL1        0.1277
     24 C           7.1070   -2.7431   20.0238 C.ar    1  UNL1        0.0201
     25 C           6.7439   -2.0606   18.7385 C.ar    1  UNL1       -0.0029
     26 C           6.0818    0.3725   16.7167 C.3     1  UNL1        0.0047
     27 C           5.1157   -0.5775   17.3604 C.3     1  UNL1        0.0224
     28 C           3.7866   -0.8448   16.7186 C.3     1  UNL1        0.0047
@<TRIPOS>BOND
     1    26    27    1
     2    27    28    1
     3    27    20    1
     4    20    21   ar
     5    21    22   ar
     6    22    23   ar
     7    23    17    1
     8    17    18    2
     9    17    19    2
    10    17     1    1
    11     1     2   ar
    12     2     3   ar
    13     3    10    1
    14    10    11    1
    15    11    12    1
    16    12    13    1
    17    13    14    1
    18    13    15    1
    19    15    16    1
    20     3     4   ar
    21     4     5   ar
    22     5     6   ar
    23     6     7   ar
    24     7     8   ar
    25     8     9   ar
    26    23    24   ar
    27    24    25   ar
    28    25    20   ar
    29     9     1   ar
    30    16    10    1
    31     9     4   ar
@<TRIPOS>MOLECULE
*****
 28 31 0 0 0
SMALL
GASTEIGER

@<TRIPOS>ATOM
      1 N           0.1036    2.3733   19.7826 N.ar    1  UNL1       -0.2064
      2 C          -1.0043    2.3294   20.7928 C.ar    1  UNL1        0.1144
      3 C          -1.7666    3.6179   20.7010 C.ar    1  UNL1        0.0686
      4 C          -1.1299    4.4582   19.6340 C.ar    1  UNL1        0.0324
      5 C          -1.4533    5.8244   19.1059 C.ar    1  UNL1        0.0028
      6 C          -0.6208    6.4214   18.0103 C.ar    1  UNL1        0.0001
      7 C           0.5351    5.6522   17.4427 C.ar    1  UNL1        0.0015
      8 C           0.8585    4.2860   17.9707 C.ar    1  UNL1        0.0190
      9 C           0.0260    3.6890   19.0664 C.ar    1  UNL1        0.0838
     10 N          -2.9568    3.9992   21.5305 N.pl3   1  UNL1       -0.3034
     11 C          -4.2761    3.3217   21.3053 C.3     1  UNL1        0.1082
     12 C          -5.4663    3.7030   22.1348 C.3     1  UNL1        0.0938
     13 N          -5.3373    4.7619   23.1894 N.3     1  UNL1       -0.2686
     14 C          -6.5275    5.1432   24.0189 C.3     1  UNL1        0.0897
     15 C          -4.0181    5.4393   23.4146 C.3     1  UNL1        0.0938
     16 C          -2.8279    5.0580   22.5851 C.3     1  UNL1        0.1082
     17 S           1.1121    1.2915   19.5325 S.O2    1  UNL1        0.0860
     18 O           0.5002    1.0319   18.1879 O.2     1  UNL1       -0.1476
     19 O           1.7241    1.5511   20.8771 O.2     1  UNL1       -0.1476
     20 C           4.1378   -1.9540   18.7825 C.ar    1  UNL1       -0.0224
     21 C           3.3819   -1.9181   20.0775 C.ar    1  UNL1       -0.0029
     22 C           2.3734   -0.8362   20.3275 C.ar    1  UNL1        0.0201
     23 C           2.1207    0.2097   19.2824 C.ar    1  UNL1        0.1277
     24 C           2.8766    0.1737   17.9873 C.ar    1  UNL1        0.0201
     25 C           3.8851   -0.9081   17.7373 C.ar    1  UNL1       -0.0029
     26 C           4.7589   -4.4754   18.6986 C.3     1  UNL1        0.0047
     27 C           5.1463   -3.0358   18.5324 C.3     1  UNL1        0.0224
     28 C           6.5423   -2.6781   18.1161 C.3     1  UNL1        0.0047
@<TRIPOS>BOND
     1    26    27    1
     2    27    28    1
     3    27    20    1
     4    20    21   ar
     5    21    22   ar
     6    22    23   ar
     7    23    17    1
     8    17    18    2
     9    17    19    2
    10    17     1    1
    11     1     2   ar
    12     2     3   ar
    13     3    10    1
    14    10    11    1
    15    11    12    1
    16    12    13    1
    17    13    14    1
    18    13    15    1
    19    15    16    1
    20     3     4   ar
    21     4     5   ar
    22     5     6   ar
    23     6     7   ar
    24     7     8   ar
    25     8     9   ar
    26    23    24   ar
    27    24    25   ar
    28    25    20   ar
    29     9     1   ar
    30    16    10    1
    31     9     4   ar
@<TRIPOS>MOLECULE
*****
 28 31 0 0 0
SMALL
GASTEIGER

@<TRIPOS>ATOM
      1 N           6.0004   -3.3881   23.8005 N.ar    1  UNL1       -0.2064
      2 C           6.0280   -3.4915   25.2967 C.ar    1  UNL1        0.1144
      3 C           7.1838   -4.3676   25.6795 C.ar    1  UNL1        0.0686
      4 C           7.8705   -4.8057   24.4200 C.ar    1  UNL1        0.0324
      5 C           9.0673   -5.6777   24.1805 C.ar    1  UNL1        0.0028
      6 C           9.5327   -5.9443   22.7797 C.ar    1  UNL1        0.0001
      7 C           8.8013   -5.3389   21.6184 C.ar    1  UNL1        0.0015
      8 C           7.6046   -4.4670   21.8579 C.ar    1  UNL1        0.0190
      9 C           7.1391   -4.2004   23.2587 C.ar    1  UNL1        0.0838
     10 N           7.5828   -4.7402   27.0767 N.pl3   1  UNL1       -0.3034
     11 C           8.9683   -4.4391   27.5665 C.3     1  UNL1        0.1082
     12 C           9.3673   -4.8117   28.9637 C.3     1  UNL1        0.0938
     13 N           8.3809   -5.4854   29.8709 N.3     1  UNL1       -0.2686
     14 C           8.7800   -5.8580   31.2681 C.3     1  UNL1        0.0897
     15 C           6.9955   -5.7865   29.3811 C.3     1  UNL1        0.0938
     16 C           6.5965   -5.4139   27.9840 C.3     1  UNL1        0.1082
     17 S           5.0083   -2.6093   22.9887 S.O2    1  UNL1        0.0860
     18 O           4.2385   -3.8685   22.7213 O.2     1  UNL1       -0.1476
     19 O           5.7782   -1.3500   23.2560 O.2     1  UNL1       -0.1476
     20 C           2.0321   -0.2726   20.5530 C.ar    1  UNL1       -0.0224
     21 C           2.8488   -1.3515   19.9057 C.ar    1  UNL1       -0.0029
     22 C           3.8409   -2.1304   20.7176 C.ar    1  UNL1        0.0201
     23 C           4.0162   -1.8303   22.1768 C.ar    1  UNL1        0.1277
     24 C           3.1995   -0.7514   22.8241 C.ar    1  UNL1        0.0201
     25 C           2.2075    0.0274   22.0122 C.ar    1  UNL1       -0.0029
     26 C           1.2713    0.7159   18.2739 C.3     1  UNL1        0.0047
     27 C           1.0401    0.5063   19.7412 C.3     1  UNL1        0.0224
     28 C          -0.1832    1.0757   20.3964 C.3     1  UNL1        0.0047
@<TRIPOS>BOND
     1    26    27    1
     2    27    28    1
     3    27    20    1
     4    20    21   ar
     5    21    22   ar
     6    22    23   ar
     7    23    17    1
     8    17    18    2
     9    17    19    2
    10    17     1    1
    11     1     2   ar
    12     2     3   ar
    13     3    10    1
    14    10    11    1
    15    11    12    1
    16    12    13    1
    17    13    14    1
    18    13    15    1
    19    15    16    1
    20     3     4   ar
    21     4     5   ar
    22     5     6   ar
    23     6     7   ar
    24     7     8   ar
    25     8     9   ar
    26    23    24   ar
    27    24    25   ar
    28    25    20   ar
    29     9     1   ar
    30    16    10    1
    31     9     4   ar
@<TRIPOS>MOLECULE
*****
 28 31 0 0 0
SMALL
GASTEIGER

@<TRIPOS>ATOM
      1 N           2.3802    1.5749   32.2812 N.ar    1  UNL1       -0.2064
      2 C           2.4747    2.4560   33.4914 C.ar    1  UNL1        0.1144
      3 C           3.3566    1.7731   34.4942 C.ar    1  UNL1        0.0686
      4 C           3.8072    0.4699   33.9039 C.ar    1  UNL1        0.0324
      5 C           4.6891   -0.6211   34.4350 C.ar    1  UNL1        0.0028
      6 C           4.9674   -1.8345   33.5984 C.ar    1  UNL1        0.0001
      7 C           4.3640   -1.9571   32.2306 C.ar    1  UNL1        0.0015
      8 C           3.4821   -0.8661   31.6995 C.ar    1  UNL1        0.0190
      9 C           3.2038    0.3473   32.5361 C.ar    1  UNL1        0.0838
     10 N           3.7236    2.3007   35.8496 N.pl3   1  UNL1       -0.3034
     11 C           5.1243    2.7646   36.1198 C.3     1  UNL1        0.1082
     12 C           5.4913    3.2922   37.4752 C.3     1  UNL1        0.0938
     13 N           4.4576    3.3561   38.5603 N.3     1  UNL1       -0.2686
     14 C           4.8245    3.8837   39.9156 C.3     1  UNL1        0.0897
     15 C           3.0569    2.8922   38.2900 C.3     1  UNL1        0.0938
     16 C           2.6900    2.3646   36.9346 C.3     1  UNL1        0.1082
     17 S           1.5993    1.8694   31.0348 S.O2    1  UNL1        0.0860
     18 O           0.3284    1.5113   31.7464 O.2     1  UNL1       -0.1476
     19 O           2.8702    2.2276   30.3232 O.2     1  UNL1       -0.1476
     20 C          -0.7432    2.7535   27.2956 C.ar    1  UNL1       -0.0224
     21 C           0.0695    3.8343   27.9447 C.ar    1  UNL1       -0.0029
     22 C           0.8503    3.5396   29.1911 C.ar    1  UNL1        0.0201
     23 C           0.8184    2.1641   29.7884 C.ar    1  UNL1        0.1277
     24 C           0.0057    1.0832   29.1393 C.ar    1  UNL1        0.0201
     25 C          -0.7750    1.3779   27.8930 C.ar    1  UNL1       -0.0029
     26 C          -0.9346    2.7402   24.7046 C.3     1  UNL1        0.0047
     27 C          -1.5240    3.0480   26.0493 C.3     1  UNL1        0.0224
     28 C          -2.8943    3.6504   26.1473 C.3     1  UNL1        0.0047
@<TRIPOS>BOND
     1    26    27    1
     2    27    28    1
     3    27    20    1
     4    20    21   ar
     5    21    22   ar
     6    22    23   ar
     7    23    17    1
     8    17    18    2
     9    17    19    2
    10    17     1    1
    11     1     2   ar
    12     2     3   ar
    13     3    10    1
    14    10    11    1
    15    11    12    1
    16    12    13    1
    17    13    14    1
    18    13    15    1
    19    15    16    1
    20     3     4   ar
    21     4     5   ar
    22     5     6   ar
    23     6     7   ar
    24     7     8   ar
    25     8     9   ar
    26    23    24   ar
    27    24    25   ar
    28    25    20   ar
    29     9     1   ar
    30    16    10    1
    31     9     4   ar
@<TRIPOS>MOLECULE
*****
 28 31 0 0 0
SMALL
GASTEIGER

@<TRIPOS>ATOM
      1 N           4.7003   -0.6553   32.9772 N.ar    1  UNL1       -0.2064
      2 C           5.0536   -0.1760   34.3539 C.ar    1  UNL1        0.1144
      3 C           4.1196    0.9427   34.7090 C.ar    1  UNL1        0.0686
      4 C           3.1892    1.1549   33.5517 C.ar    1  UNL1        0.0324
      5 C           2.0615    2.1198   33.3343 C.ar    1  UNL1        0.0028
      6 C           1.2928    2.0970   32.0465 C.ar    1  UNL1        0.0001
      7 C           1.6517    1.1093   30.9762 C.ar    1  UNL1        0.0015
      8 C           2.7793    0.1444   31.1936 C.ar    1  UNL1        0.0190
      9 C           3.5481    0.1672   32.4814 C.ar    1  UNL1        0.0838
     10 N           4.1166    1.7140   35.9955 N.pl3   1  UNL1       -0.3034
     11 C           3.9158    0.9985   37.2985 C.3     1  UNL1        0.1082
     12 C           3.9128    1.7698   38.5850 C.3     1  UNL1        0.0938
     13 N           4.1107    3.2566   38.5686 N.3     1  UNL1       -0.2686
     14 C           4.1077    4.0278   39.8551 C.3     1  UNL1        0.0897
     15 C           4.3115    3.9721   37.2657 C.3     1  UNL1        0.0938
     16 C           4.3145    3.2008   35.9791 C.3     1  UNL1        0.1082
     17 S           5.3800   -1.7628   32.2277 S.O2    1  UNL1        0.0860
     18 O           4.6105   -2.7742   33.0244 O.2     1  UNL1       -0.1476
     19 O           6.1495   -0.7513   31.4310 O.2     1  UNL1       -0.1476
     20 C           7.4191   -5.0848   29.9791 C.ar    1  UNL1       -0.0224
     21 C           7.0081   -3.8343   29.2599 C.ar    1  UNL1       -0.0029
     22 C           6.3284   -2.7270   30.0095 C.ar    1  UNL1        0.0201
     23 C           6.0597   -2.8702   31.4782 C.ar    1  UNL1        0.1277
     24 C           6.4707   -4.1207   32.1974 C.ar    1  UNL1        0.0201
     25 C           7.1503   -5.2280   31.4479 C.ar    1  UNL1       -0.0029
     26 C           9.1832   -6.9901   29.8911 C.3     1  UNL1        0.0047
     27 C           8.0988   -6.1922   29.2296 C.3     1  UNL1        0.0224
     28 C           7.6941   -6.5018   27.8188 C.3     1  UNL1        0.0047
@<TRIPOS>BOND
     1    26    27    1
     2    27    28    1
     3    27    20    1
     4    20    21   ar
     5    21    22   ar
     6    22    23   ar
     7    23    17    1
     8    17    18    2
     9    17    19    2
    10    17     1    1
    11     1     2   ar
    12     2     3   ar
    13     3    10    1
    14    10    11    1
    15    11    12    1
    16    12    13    1
    17    13    14    1
    18    13    15    1
    19    15    16    1
    20     3     4   ar
    21     4     5   ar
    22     5     6   ar
    23     6     7   ar
    24     7     8   ar
    25     8     9   ar
    26    23    24   ar
    27    24    25   ar
    28    25    20   ar
    29     9     1   ar
    30    16    10    1
    31     9     4   ar
@<TRIPOS>MOLECULE
*****
 28 31 0 0 0
SMALL
GASTEIGER

@<TRIPOS>ATOM
      1 N           5.2656   -1.3017   31.3478 N.ar    1  UNL1       -0.2064
      2 C           4.9516   -0.7118   30.0049 C.ar    1  UNL1        0.1144
      3 C           5.4594   -1.6545   28.9544 C.ar    1  UNL1        0.0686
      4 C           6.0872   -2.8270   29.6481 C.ar    1  UNL1        0.0324
      5 C           6.7525   -4.0649   29.1238 C.ar    1  UNL1        0.0028
      6 C           7.2980   -5.0848   30.0789 C.ar    1  UNL1        0.0001
      7 C           7.1783   -4.8668   31.5581 C.ar    1  UNL1        0.0015
      8 C           6.5130   -3.6288   32.0823 C.ar    1  UNL1        0.0190
      9 C           5.9675   -2.6089   31.1273 C.ar    1  UNL1        0.0838
     10 N           5.3572   -1.4590   27.4707 N.pl3   1  UNL1       -0.3034
     11 C           6.6023   -1.3577   26.6401 C.3     1  UNL1        0.1082
     12 C           6.5001   -1.1623   25.1564 C.3     1  UNL1        0.0938
     13 N           5.1531   -1.0681   24.5033 N.3     1  UNL1       -0.2686
     14 C           5.0510   -0.8726   23.0195 C.3     1  UNL1        0.0897
     15 C           3.9082   -1.1694   25.3338 C.3     1  UNL1        0.0938
     16 C           4.0103   -1.3649   26.8175 C.3     1  UNL1        0.1082
     17 S           4.9357   -0.6916   32.6778 S.O2    1  UNL1        0.0860
     18 O           3.6236   -1.4183   32.6858 O.2     1  UNL1       -0.1476
     19 O           6.2478    0.0353   32.6698 O.2     1  UNL1       -0.1476
     20 C           3.9463    1.1390   36.6679 C.ar    1  UNL1       -0.0224
     21 C           4.8080   -0.0868   36.5980 C.ar    1  UNL1       -0.0029
     22 C           5.1378   -0.6970   35.2680 C.ar    1  UNL1        0.0201
     23 C           4.6059   -0.0813   34.0078 C.ar    1  UNL1        0.1277
     24 C           3.7442    1.1445   34.0777 C.ar    1  UNL1        0.0201
     25 C           3.4144    1.7546   35.4076 C.ar    1  UNL1       -0.0029
     26 C           2.2336    1.6134   38.5630 C.3     1  UNL1        0.0047
     27 C           3.6165    1.7492   37.9978 C.3     1  UNL1        0.0224
     28 C           4.6693    2.4952   38.7626 C.3     1  UNL1        0.0047
@<TRIPOS>BOND
     1    26    27    1
     2    27    28    1
     3    27    20    1
     4    20    21   ar
     5    21    22   ar
     6    22    23   ar
     7    23    17    1
     8    17    18    2
     9    17    19    2
    10    17     1    1
    11     1     2   ar
    12     2     3   ar
    13     3    10    1
    14    10    11    1
    15    11    12    1
    16    12    13    1
    17    13    14    1
    18    13    15    1
    19    15    16    1
    20     3     4   ar
    21     4     5   ar
    22     5     6   ar
    23     6     7   ar
    24     7     8   ar
    25     8     9   ar
    26    23    24   ar
    27    24    25   ar
    28    25    20   ar
    29     9     1   ar
    30    16    10    1
    31     9     4   ar
@<TRIPOS>MOLECULE
*****
 28 31 0 0 0
SMALL
GASTEIGER

@<TRIPOS>ATOM
      1 N           2.2440   -0.0382   21.5757 N.ar    1  UNL1       -0.2064
      2 C           2.6272    0.0781   23.0212 C.ar    1  UNL1        0.1144
      3 C           3.5230   -1.0770   23.3576 C.ar    1  UNL1        0.0686
      4 C           3.6934   -1.9073   22.1200 C.ar    1  UNL1        0.0324
      5 C           4.4662   -3.1649   21.8535 C.ar    1  UNL1        0.0028
      6 C           4.4485   -3.7805   20.4858 C.ar    1  UNL1        0.0001
      7 C           3.6580   -3.1384   19.3845 C.ar    1  UNL1        0.0015
      8 C           2.8852   -1.8808   19.6510 C.ar    1  UNL1        0.0190
      9 C           2.9029   -1.2652   21.0187 C.ar    1  UNL1        0.0838
     10 N           4.1401   -1.3535   24.6965 N.pl3   1  UNL1       -0.3034
     11 C           5.4610   -2.0593   24.7823 C.3     1  UNL1        0.1082
     12 C           6.0781   -2.3357   26.1212 C.3     1  UNL1        0.0938
     13 N           5.3744   -1.9064   27.3744 N.3     1  UNL1       -0.2686
     14 C           5.9915   -2.1829   28.7134 C.3     1  UNL1        0.0897
     15 C           4.0536   -1.2007   27.2887 C.3     1  UNL1        0.0938
     16 C           3.4365   -0.9242   25.9497 C.3     1  UNL1        0.1082
     17 S           1.3574    0.9066   20.8198 S.O2    1  UNL1        0.0860
     18 O           0.2305   -0.0792   20.9093 O.2     1  UNL1       -0.1476
     19 O           2.4844    1.8925   20.7304 O.2     1  UNL1       -0.1476
     20 C          -1.3022    3.7414   18.5524 C.ar    1  UNL1       -0.0224
     21 C          -1.5684    3.4601   20.0015 C.ar    1  UNL1       -0.0029
     22 C          -0.6818    2.5152   20.7573 C.ar    1  UNL1        0.0201
     23 C           0.4709    1.8515   20.0639 C.ar    1  UNL1        0.1277
     24 C           0.7371    2.1328   18.6148 C.ar    1  UNL1        0.0201
     25 C          -0.1494    3.0776   17.8590 C.ar    1  UNL1       -0.0029
     26 C          -3.2552    4.1497   16.8883 C.3     1  UNL1        0.0047
     27 C          -2.1886    4.6862   17.7965 C.3     1  UNL1        0.0224
     28 C          -2.0086    6.1676   17.9486 C.3     1  UNL1        0.0047
@<TRIPOS>BOND
     1    26    27    1
     2    27    28    1
     3    27    20    1
     4    20    21   ar
     5    21    22   ar
     6    22    23   ar
     7    23    17    1
     8    17    18    2
     9    17    19    2
    10    17     1    1
    11     1     2   ar
    12     2     3   ar
    13     3    10    1
    14    10    11    1
    15    11    12    1
    16    12    13    1
    17    13    14    1
    18    13    15    1
    19    15    16    1
    20     3     4   ar
    21     4     5   ar
    22     5     6   ar
    23     6     7   ar
    24     7     8   ar
    25     8     9   ar
    26    23    24   ar
    27    24    25   ar
    28    25    20   ar
    29     9     1   ar
    30    16    10    1
    31     9     4   ar
@<TRIPOS>MOLECULE
*****
 28 31 0 0 0
SMALL
GASTEIGER

@<TRIPOS>ATOM
      1 N         -15.1840   -3.0830   18.8192 N.ar    1  UNL1       -0.2064
      2 C         -15.5552   -1.6534   18.5575 C.ar    1  UNL1        0.1144
      3 C         -14.2881   -0.8715   18.3755 C.ar    1  UNL1        0.0686
      4 C         -13.1339   -1.8178   18.5247 C.ar    1  UNL1        0.0324
      5 C         -11.6502   -1.6115   18.4463 C.ar    1  UNL1        0.0028
      6 C         -10.7203   -2.7720   18.6421 C.ar    1  UNL1        0.0001
      7 C         -11.2740   -4.1388   18.9163 C.ar    1  UNL1        0.0015
      8 C         -12.7576   -4.3451   18.9947 C.ar    1  UNL1        0.0190
      9 C         -13.6876   -3.1846   18.7989 C.ar    1  UNL1        0.0838
     10 N         -14.1921    0.5987   18.0938 N.pl3   1  UNL1       -0.3034
     11 C         -13.2930    1.0957   17.0007 C.3     1  UNL1        0.1082
     12 C         -13.1970    2.5659   16.7189 C.3     1  UNL1        0.0938
     13 N         -14.0000    3.5391   17.5302 N.3     1  UNL1       -0.2686
     14 C         -13.9040    5.0092   17.2484 C.3     1  UNL1        0.0897
     15 C         -14.8990    3.0420   18.6232 C.3     1  UNL1        0.0938
     16 C         -14.9950    1.5719   18.9050 C.3     1  UNL1        0.1082
     17 S         -16.1412   -4.2127   19.0591 S.O2    1  UNL1        0.0860
     18 O         -15.7790   -4.2106   20.5146 O.2     1  UNL1       -0.1476
     19 O         -16.5034   -4.2149   17.6035 O.2     1  UNL1       -0.1476
     20 C         -19.0128   -7.6020   19.7785 C.ar    1  UNL1       -0.0224
     21 C         -17.5403   -7.8730   19.6872 C.ar    1  UNL1       -0.0029
     22 C         -16.5832   -6.7433   19.4474 C.ar    1  UNL1        0.0201
     23 C         -17.0985   -5.3424   19.2989 C.ar    1  UNL1        0.1277
     24 C         -18.5709   -5.0713   19.3902 C.ar    1  UNL1        0.0201
     25 C         -19.5280   -6.2010   19.6300 C.ar    1  UNL1       -0.0029
     26 C         -20.4451   -9.5690   18.8680 C.3     1  UNL1        0.0047
     27 C         -19.9700   -8.7316   20.0183 C.3     1  UNL1        0.0224
     28 C         -20.4522   -9.0239   21.4082 C.3     1  UNL1        0.0047
@<TRIPOS>BOND
     1    26    27    1
     2    27    28    1
     3    27    20    1
     4    20    21   ar
     5    21    22   ar
     6    22    23   ar
     7    23    17    1
     8    17    18    2
     9    17    19    2
    10    17     1    1
    11     1     2   ar
    12     2     3   ar
    13     3    10    1
    14    10    11    1
    15    11    12    1
    16    12    13    1
    17    13    14    1
    18    13    15    1
    19    15    16    1
    20     3     4   ar
    21     4     5   ar
    22     5     6   ar
    23     6     7   ar
    24     7     8   ar
    25     8     9   ar
    26    23    24   ar
    27    24    25   ar
    28    25    20   ar
    29     9     1   ar
    30    16    10    1
    31     9     4   ar
