@<TRIPOS>MOLECULE
*****
 20 21 0 0 0
SMALL
GASTEIGER

@<TRIPOS>ATOM
      1 C         -12.6077  -17.3211   22.9561 C.2     1  UNL1        0.4050
      2 O         -12.6456  -15.8584   22.6263 O.2     1  UNL1       -0.2262
      3 N         -11.3173  -18.0793   22.8563 N.am    1  UNL1       -0.2454
      4 C         -11.2794  -19.5421   23.1861 C.3     1  UNL1        0.1011
      5 C          -9.9889  -20.3002   23.0863 C.3     1  UNL1        0.0443
      6 C          -8.7364  -19.5956   22.6568 C.2     1  UNL1       -0.0326
      7 C          -7.4459  -20.3537   22.5570 C.2     1  UNL1        0.0412
      8 C          -8.7743  -18.1328   22.3270 C.3     1  UNL1        0.0443
      9 C         -10.0647  -17.3747   22.4268 C.3     1  UNL1        0.1011
     10 C         -14.1288  -18.2563   24.8433 C.3     1  UNL1        0.2573
     11 O         -13.8603  -18.0257   23.3857 O.3     1  UNL1       -0.4304
     12 C          -6.1934  -19.6491   22.1274 C.1     1  UNL1       -0.0583
     13 C          -4.9408  -18.9444   21.6977 C.1     1  UNL1       -0.0405
     14 C          -3.6882  -18.2398   21.2682 C.ar    1  UNL1        0.1224
     15 C          -2.8896  -17.4546   22.2660 C.ar    1  UNL1        0.0276
     16 C          -1.6370  -16.7500   21.8364 C.ar    1  UNL1        0.0034
     17 C          -1.1831  -16.8305   20.4090 C.ar    1  UNL1        0.0148
     18 C          -1.9817  -17.6157   19.4112 C.ar    1  UNL1        0.0600
     19 C          -1.5277  -17.6963   17.9838 C.3     1  UNL1        0.0521
     20 N          -3.2343  -18.3204   19.8408 N.ar    1  UNL1       -0.2414
@<TRIPOS>BOND
     1    10    11    1
     2    11     1    1
     3     1     2    2
     4     1     3   am
     5     3     4    1
     6     4     5    1
     7     5     6    1
     8     6     7    2
     9     7    12    1
    10    12    13    3
    11    13    14    1
    12    14    15   ar
    13    15    16   ar
    14    16    17   ar
    15    17    18   ar
    16    18    19    1
    17    18    20   ar
    18     6     8    1
    19     8     9    1
    20     9     3    1
    21    20    14   ar
@<TRIPOS>MOLECULE
*****
 20 21 0 0 0
SMALL
GASTEIGER

@<TRIPOS>ATOM
      1 C          -1.7598  -18.0665   18.9343 C.2     1  UNL1        0.4050
      2 O          -2.0754  -17.0494   17.8780 O.2     1  UNL1       -0.2262
      3 N          -2.8489  -18.5835   19.8268 N.am    1  UNL1       -0.2454
      4 C          -2.5334  -19.6006   20.8832 C.3     1  UNL1        0.1011
      5 C          -3.6224  -20.1177   21.7757 C.3     1  UNL1        0.0443
      6 C          -5.0271  -19.6176   21.6118 C.2     1  UNL1       -0.0326
      7 C          -6.1162  -20.1347   22.5044 C.2     1  UNL1        0.0412
      8 C          -5.3426  -18.6005   20.5555 C.3     1  UNL1        0.0443
      9 C          -4.2535  -18.0835   19.6630 C.3     1  UNL1        0.1011
     10 C           0.5884  -17.8615   20.0269 C.3     1  UNL1        0.2573
     11 O          -0.3552  -18.5666   19.0981 O.3     1  UNL1       -0.4304
     12 C          -7.5208  -19.6346   22.3405 C.1     1  UNL1       -0.0583
     13 C          -8.9255  -19.1345   22.1767 C.1     1  UNL1       -0.0405
     14 C         -10.3301  -18.6344   22.0128 C.ar    1  UNL1        0.1224
     15 C         -10.7931  -18.1212   20.6815 C.ar    1  UNL1        0.0276
     16 C         -12.1977  -17.6212   20.5177 C.ar    1  UNL1        0.0034
     17 C         -13.1395  -17.6343   21.6851 C.ar    1  UNL1        0.0148
     18 C         -12.6766  -18.1474   23.0164 C.ar    1  UNL1        0.0600
     19 C         -13.6183  -18.1605   24.1839 C.3     1  UNL1        0.0521
     20 N         -11.2719  -18.6475   23.1803 N.ar    1  UNL1       -0.2414
@<TRIPOS>BOND
     1    10    11    1
     2    11     1    1
     3     1     2    2
     4     1     3   am
     5     3     4    1
     6     4     5    1
     7     5     6    1
     8     6     7    2
     9     7    12    1
    10    12    13    3
    11    13    14    1
    12    14    15   ar
    13    15    16   ar
    14    16    17   ar
    15    17    18   ar
    16    18    19    1
    17    18    20   ar
    18     6     8    1
    19     8     9    1
    20     9     3    1
    21    20    14   ar
@<TRIPOS>MOLECULE
*****
 20 21 0 0 0
SMALL
GASTEIGER

@<TRIPOS>ATOM
      1 C          -1.3644  -17.6744   20.8422 C.2     1  UNL1        0.4050
      2 O          -1.3147  -16.3303   21.5060 O.2     1  UNL1       -0.2262
      3 N          -2.6496  -18.4472   20.8086 N.am    1  UNL1       -0.2454
      4 C          -2.6994  -19.7914   20.1448 C.3     1  UNL1        0.1011
      5 C          -3.9846  -20.5642   20.1112 C.3     1  UNL1        0.0443
      6 C          -5.2200  -19.9928   20.7414 C.2     1  UNL1       -0.0326
      7 C          -6.5052  -20.7655   20.7078 C.2     1  UNL1        0.0412
      8 C          -5.1702  -18.6486   21.4052 C.3     1  UNL1        0.0443
      9 C          -3.8850  -17.8758   21.4388 C.3     1  UNL1        0.1011
     10 C           1.1143  -17.4130   20.1091 C.3     1  UNL1        0.2573
     11 O          -0.1290  -18.2458   20.2120 O.3     1  UNL1       -0.4304
     12 C          -7.7406  -20.1942   21.3380 C.1     1  UNL1       -0.0583
     13 C          -8.9761  -19.6227   21.9682 C.1     1  UNL1       -0.0405
     14 C         -10.2115  -19.0513   22.5984 C.ar    1  UNL1        0.1224
     15 C         -10.6900  -19.5748   23.9202 C.ar    1  UNL1        0.0276
     16 C         -11.9254  -19.0034   24.5504 C.ar    1  UNL1        0.0034
     17 C         -12.6824  -17.9085   23.8589 C.ar    1  UNL1        0.0148
     18 C         -12.2039  -17.3850   22.5372 C.ar    1  UNL1        0.0600
     19 C         -12.9608  -16.2900   21.8457 C.3     1  UNL1        0.0521
     20 N         -10.9684  -17.9564   21.9069 N.ar    1  UNL1       -0.2414
@<TRIPOS>BOND
     1    10    11    1
     2    11     1    1
     3     1     2    2
     4     1     3   am
     5     3     4    1
     6     4     5    1
     7     5     6    1
     8     6     7    2
     9     7    12    1
    10    12    13    3
    11    13    14    1
    12    14    15   ar
    13    15    16   ar
    14    16    17   ar
    15    17    18   ar
    16    18    19    1
    17    18    20   ar
    18     6     8    1
    19     8     9    1
    20     9     3    1
    21    20    14   ar
@<TRIPOS>MOLECULE
*****
 20 21 0 0 0
SMALL
GASTEIGER

@<TRIPOS>ATOM
      1 C           0.8065    0.5193   19.3596 C.2     1  UNL1        0.4050
      2 O          -0.1476    0.4665   20.5158 O.2     1  UNL1       -0.2262
      3 N           2.1199   -0.2010   19.4374 N.am    1  UNL1       -0.2454
      4 C           3.0739   -0.1481   18.2811 C.3     1  UNL1        0.1011
      5 C           4.3874   -0.8685   18.3590 C.3     1  UNL1        0.0443
      6 C           4.7467   -1.6416   19.5930 C.2     1  UNL1       -0.0326
      7 C           6.0602   -2.3620   19.6709 C.2     1  UNL1        0.0412
      8 C           3.7927   -1.6945   20.7493 C.3     1  UNL1        0.0443
      9 C           2.4793   -0.9742   20.6715 C.3     1  UNL1        0.1011
     10 C           0.1968    2.7690   18.2118 C.3     1  UNL1        0.2573
     11 O           0.4471    1.2925   18.1255 O.3     1  UNL1       -0.4304
     12 C           6.4195   -3.1351   20.9050 C.1     1  UNL1       -0.0583
     13 C           6.7790   -3.9084   22.1391 C.1     1  UNL1       -0.0405
     14 C           7.1384   -4.6815   23.3732 C.ar    1  UNL1        0.1224
     15 C           6.5902   -4.2645   24.7057 C.ar    1  UNL1        0.0276
     16 C           6.9496   -5.0377   25.9398 C.ar    1  UNL1        0.0034
     17 C           7.8571   -6.2279   25.8414 C.ar    1  UNL1        0.0148
     18 C           8.4053   -6.6450   24.5090 C.ar    1  UNL1        0.0600
     19 C           9.3128   -7.8352   24.4106 C.3     1  UNL1        0.0521
     20 N           8.0459   -5.8718   23.2748 N.ar    1  UNL1       -0.2414
@<TRIPOS>BOND
     1    10    11    1
     2    11     1    1
     3     1     2    2
     4     1     3   am
     5     3     4    1
     6     4     5    1
     7     5     6    1
     8     6     7    2
     9     7    12    1
    10    12    13    3
    11    13    14    1
    12    14    15   ar
    13    15    16   ar
    14    16    17   ar
    15    17    18   ar
    16    18    19    1
    17    18    20   ar
    18     6     8    1
    19     8     9    1
    20     9     3    1
    21    20    14   ar
@<TRIPOS>MOLECULE
*****
 20 21 0 0 0
SMALL
GASTEIGER

@<TRIPOS>ATOM
      1 C           5.0255   -3.7471   19.9087 C.2     1  UNL1        0.4050
      2 O           4.7702   -4.0738   18.4672 O.2     1  UNL1       -0.2262
      3 N           4.2290   -2.6719   20.5866 N.am    1  UNL1       -0.2454
      4 C           4.4843   -2.3453   22.0281 C.3     1  UNL1        0.1011
      5 C           3.6878   -1.2701   22.7060 C.3     1  UNL1        0.0443
      6 C           2.6359   -0.5216   21.9424 C.2     1  UNL1       -0.0326
      7 C           1.8393    0.5535   22.6203 C.2     1  UNL1        0.0412
      8 C           2.3805   -0.8483   20.5009 C.3     1  UNL1        0.0443
      9 C           3.1771   -1.9234   19.8230 C.3     1  UNL1        0.1011
     10 C           7.4833   -3.9747   20.7196 C.3     1  UNL1        0.2573
     11 O           6.0775   -4.4956   20.6724 O.3     1  UNL1       -0.4304
     12 C           0.7874    1.3020   21.8567 C.1     1  UNL1       -0.0583
     13 C          -0.2646    2.0506   21.0930 C.1     1  UNL1       -0.0405
     14 C          -1.3165    2.7991   20.3293 C.ar    1  UNL1        0.1224
     15 C          -0.9464    3.5562   19.0884 C.ar    1  UNL1        0.0276
     16 C          -1.9983    4.3047   18.3247 C.ar    1  UNL1        0.0034
     17 C          -3.4203    4.2961   18.8020 C.ar    1  UNL1        0.0148
     18 C          -3.7904    3.5391   20.0429 C.ar    1  UNL1        0.0600
     19 C          -5.2125    3.5306   20.5202 C.3     1  UNL1        0.0521
     20 N          -2.7385    2.7905   20.8066 N.ar    1  UNL1       -0.2414
@<TRIPOS>BOND
     1    10    11    1
     2    11     1    1
     3     1     2    2
     4     1     3   am
     5     3     4    1
     6     4     5    1
     7     5     6    1
     8     6     7    2
     9     7    12    1
    10    12    13    3
    11    13    14    1
    12    14    15   ar
    13    15    16   ar
    14    16    17   ar
    15    17    18   ar
    16    18    19    1
    17    18    20   ar
    18     6     8    1
    19     8     9    1
    20     9     3    1
    21    20    14   ar
@<TRIPOS>MOLECULE
*****
 20 21 0 0 0
SMALL
GASTEIGER

@<TRIPOS>ATOM
      1 C           6.3123   -0.9389   17.5221 C.2     1  UNL1        0.4050
      2 O           6.7778    0.2354   16.7132 O.2     1  UNL1       -0.2262
      3 N           5.0113   -0.8693   18.2653 N.am    1  UNL1       -0.2454
      4 C           4.5458   -2.0436   19.0742 C.3     1  UNL1        0.1011
      5 C           3.2447   -1.9740   19.8174 C.3     1  UNL1        0.0443
      6 C           2.4091   -0.7301   19.7517 C.2     1  UNL1       -0.0326
      7 C           1.1080   -0.6605   20.4948 C.2     1  UNL1        0.0412
      8 C           2.8745    0.4442   18.9428 C.3     1  UNL1        0.0443
      9 C           4.1756    0.3746   18.1996 C.3     1  UNL1        0.1011
     10 C           8.1241   -2.3721   18.7109 C.3     1  UNL1        0.2573
     11 O           7.1480   -2.1828   17.5878 O.3     1  UNL1       -0.4304
     12 C           0.2724    0.5834   20.4291 C.1     1  UNL1       -0.0583
     13 C          -0.5633    1.8274   20.3635 C.1     1  UNL1       -0.0405
     14 C          -1.3990    3.0713   20.2978 C.ar    1  UNL1        0.1224
     15 C          -0.7847    4.3648   19.8511 C.ar    1  UNL1        0.0276
     16 C          -1.6203    5.6087   19.7854 C.ar    1  UNL1        0.0034
     17 C          -3.0703    5.5592   20.1663 C.ar    1  UNL1        0.0148
     18 C          -3.6846    4.2658   20.6130 C.ar    1  UNL1        0.0600
     19 C          -5.1346    4.2162   20.9940 C.3     1  UNL1        0.0521
     20 N          -2.8490    3.0218   20.6787 N.ar    1  UNL1       -0.2414
@<TRIPOS>BOND
     1    10    11    1
     2    11     1    1
     3     1     2    2
     4     1     3   am
     5     3     4    1
     6     4     5    1
     7     5     6    1
     8     6     7    2
     9     7    12    1
    10    12    13    3
    11    13    14    1
    12    14    15   ar
    13    15    16   ar
    14    16    17   ar
    15    17    18   ar
    16    18    19    1
    17    18    20   ar
    18     6     8    1
    19     8     9    1
    20     9     3    1
    21    20    14   ar
@<TRIPOS>MOLECULE
*****
 20 21 0 0 0
SMALL
GASTEIGER

@<TRIPOS>ATOM
      1 C         -10.7692   -5.5594   18.9933 C.2     1  UNL1        0.4050
      2 O          -9.5663   -4.7806   19.4367 O.2     1  UNL1       -0.2262
      3 N         -12.1309   -4.9328   19.0496 N.am    1  UNL1       -0.2454
      4 C         -13.3338   -5.7116   18.6063 C.3     1  UNL1        0.1011
      5 C         -14.6955   -5.0850   18.6626 C.3     1  UNL1        0.0443
      6 C         -14.8543   -3.6796   19.1623 C.2     1  UNL1       -0.0326
      7 C         -16.2160   -3.0530   19.2186 C.2     1  UNL1        0.0412
      8 C         -13.6514   -2.9009   19.6056 C.3     1  UNL1        0.0443
      9 C         -12.2897   -3.5275   19.5493 C.3     1  UNL1        0.1011
     10 C          -9.3686   -7.7407   18.8192 C.3     1  UNL1        0.2573
     11 O         -10.6104   -6.9647   18.4936 O.3     1  UNL1       -0.4304
     12 C         -16.3748   -1.6477   19.7183 C.1     1  UNL1       -0.0583
     13 C         -16.5336   -0.2423   20.2180 C.1     1  UNL1       -0.0405
     14 C         -16.6925    1.1631   20.7177 C.ar    1  UNL1        0.1224
     15 C         -16.1297    2.3078   19.9285 C.ar    1  UNL1        0.0276
     16 C         -16.2885    3.7132   20.4282 C.ar    1  UNL1        0.0034
     17 C         -17.0101    3.9738   21.7171 C.ar    1  UNL1        0.0148
     18 C         -17.5729    2.8292   22.5063 C.ar    1  UNL1        0.0600
     19 C         -18.2945    3.0898   23.7953 C.3     1  UNL1        0.0521
     20 N         -17.4141    1.4237   22.0067 N.ar    1  UNL1       -0.2414
@<TRIPOS>BOND
     1    10    11    1
     2    11     1    1
     3     1     2    2
     4     1     3   am
     5     3     4    1
     6     4     5    1
     7     5     6    1
     8     6     7    2
     9     7    12    1
    10    12    13    3
    11    13    14    1
    12    14    15   ar
    13    15    16   ar
    14    16    17   ar
    15    17    18   ar
    16    18    19    1
    17    18    20   ar
    18     6     8    1
    19     8     9    1
    20     9     3    1
    21    20    14   ar
@<TRIPOS>MOLECULE
*****
 20 21 0 0 0
SMALL
GASTEIGER

@<TRIPOS>ATOM
      1 C           4.1571    2.6799   38.7257 C.2     1  UNL1        0.4050
      2 O           3.2380    3.8651   38.7046 O.2     1  UNL1       -0.2262
      3 N           4.2977    1.8180   37.5060 N.am    1  UNL1       -0.2454
      4 C           5.2167    0.6328   37.5271 C.3     1  UNL1        0.1011
      5 C           5.3573   -0.2291   36.3075 C.3     1  UNL1        0.0443
      6 C           4.5788    0.0943   35.0668 C.2     1  UNL1       -0.0326
      7 C           4.7194   -0.7675   33.8472 C.2     1  UNL1        0.0412
      8 C           3.6597    1.2795   35.0458 C.3     1  UNL1        0.0443
      9 C           3.5191    2.1414   36.2654 C.3     1  UNL1        0.1011
     10 C           6.1509    3.1613   40.3203 C.3     1  UNL1        0.2573
     11 O           4.9356    2.3565   39.9663 O.3     1  UNL1       -0.4304
     12 C           3.9408   -0.4441   32.6065 C.1     1  UNL1       -0.0583
     13 C           3.1622   -0.1207   31.3658 C.1     1  UNL1       -0.0405
     14 C           2.3837    0.2026   30.1252 C.ar    1  UNL1        0.1224
     15 C           3.0403    0.9469   29.0004 C.ar    1  UNL1        0.0276
     16 C           2.2617    1.2703   27.7597 C.ar    1  UNL1        0.0034
     17 C           0.8267    0.8494   27.6438 C.ar    1  UNL1        0.0148
     18 C           0.1701    0.1052   28.7685 C.ar    1  UNL1        0.0600
     19 C          -1.2650   -0.3156   28.6525 C.3     1  UNL1        0.0521
     20 N           0.9486   -0.2182   30.0092 N.ar    1  UNL1       -0.2414
@<TRIPOS>BOND
     1    10    11    1
     2    11     1    1
     3     1     2    2
     4     1     3   am
     5     3     4    1
     6     4     5    1
     7     5     6    1
     8     6     7    2
     9     7    12    1
    10    12    13    3
    11    13    14    1
    12    14    15   ar
    13    15    16   ar
    14    16    17   ar
    15    17    18   ar
    16    18    19    1
    17    18    20   ar
    18     6     8    1
    19     8     9    1
    20     9     3    1
    21    20    14   ar
@<TRIPOS>MOLECULE
*****
 20 21 0 0 0
SMALL
GASTEIGER

@<TRIPOS>ATOM
      1 C         -10.4720   -5.8680   19.0912 C.2     1  UNL1        0.4050
      2 O          -9.2721   -4.9687   19.0530 O.2     1  UNL1       -0.2262
      3 N         -11.8429   -5.2827   19.2591 N.am    1  UNL1       -0.2454
      4 C         -13.0428   -6.1820   19.2972 C.3     1  UNL1        0.1011
      5 C         -14.4137   -5.5967   19.4651 C.3     1  UNL1        0.0443
      6 C         -14.5846   -4.1121   19.5949 C.2     1  UNL1       -0.0326
      7 C         -15.9555   -3.5269   19.7627 C.2     1  UNL1        0.0412
      8 C         -13.3847   -3.2129   19.5567 C.3     1  UNL1        0.0443
      9 C         -12.0139   -3.7982   19.3888 C.3     1  UNL1        0.1011
     10 C         -10.3556   -7.9984   17.6087 C.3     1  UNL1        0.2573
     11 O         -10.3011   -7.3525   18.9614 O.3     1  UNL1       -0.4304
     12 C         -16.1264   -2.0423   19.8925 C.1     1  UNL1       -0.0583
     13 C         -16.2974   -0.5577   20.0222 C.1     1  UNL1       -0.0405
     14 C         -16.4684    0.9268   20.1520 C.ar    1  UNL1        0.1224
     15 C         -17.2884    1.4922   21.2736 C.ar    1  UNL1        0.0276
     16 C         -17.4594    2.9768   21.4033 C.ar    1  UNL1        0.0034
     17 C         -16.8103    3.8960   20.4114 C.ar    1  UNL1        0.0148
     18 C         -15.9903    3.3307   19.2899 C.ar    1  UNL1        0.0600
     19 C         -15.3412    4.2499   18.2980 C.3     1  UNL1        0.0521
     20 N         -15.8193    1.8460   19.1601 N.ar    1  UNL1       -0.2414
@<TRIPOS>BOND
     1    10    11    1
     2    11     1    1
     3     1     2    2
     4     1     3   am
     5     3     4    1
     6     4     5    1
     7     5     6    1
     8     6     7    2
     9     7    12    1
    10    12    13    3
    11    13    14    1
    12    14    15   ar
    13    15    16   ar
    14    16    17   ar
    15    17    18   ar
    16    18    19    1
    17    18    20   ar
    18     6     8    1
    19     8     9    1
    20     9     3    1
    21    20    14   ar
