@<TRIPOS>MOLECULE
*****
 17 18 0 0 0
SMALL
GASTEIGER

@<TRIPOS>ATOM
      1 C         -10.0289  -18.1647   23.2290 C.ar    1  UNL1        0.1387
      2 C          -9.0512  -17.0958   22.8398 C.ar    1  UNL1        0.0384
      3 C          -7.6795  -17.4716   22.3630 C.ar    1  UNL1        0.0207
      4 C          -7.2856  -18.9163   22.2754 C.ar    1  UNL1        0.0657
      5 C          -8.2634  -19.9851   22.6645 C.ar    1  UNL1        0.0207
      6 C          -9.6350  -19.6093   23.1413 C.ar    1  UNL1        0.0384
      7 N          -5.9140  -19.2921   21.7986 N.ar    1  UNL1       -0.2864
      8 C          -4.6191  -18.9272   22.4621 C.ar    1  UNL1        0.1022
      9 C          -3.5012  -19.5084   21.6481 C.ar    1  UNL1        0.1196
     10 N          -4.1051  -20.2324   20.4815 N.ar    1  UNL1       -0.2220
     11 C          -5.5963  -20.0987   20.5745 C.ar    1  UNL1        0.1828
     12 O         -11.4006  -17.7889   23.7058 O.3     1  UNL1       -0.4740
     13 C         -12.3667  -17.1299   22.7665 C.3     1  UNL1        0.2226
     14 C         -12.6230  -17.7261   21.4142 C.3     1  UNL1        0.1201
     15 C         -10.8284  -18.4121   19.6652 C.3     1  UNL1        0.0898
     16 N         -11.7340  -17.3738   20.2585 N.3     1  UNL1       -0.2672
     17 C         -11.7506  -15.9834   19.6961 C.3     1  UNL1        0.0898
@<TRIPOS>BOND
     1    15    16    1
     2    16    17    1
     3    16    14    1
     4    14    13    1
     5    13    12    1
     6    12     1    1
     7     1     2   ar
     8     2     3   ar
     9     3     4   ar
    10     4     7    1
    11     7     8   ar
    12     8     9   ar
    13     9    10   ar
    14    10    11   ar
    15     4     5   ar
    16     5     6   ar
    17     6     1   ar
    18    11     7   ar
@<TRIPOS>MOLECULE
*****
 17 18 0 0 0
SMALL
GASTEIGER

@<TRIPOS>ATOM
      1 C          -6.6010  -19.9375   20.8675 C.ar    1  UNL1        0.1387
      2 C          -7.0618  -19.7063   22.2761 C.ar    1  UNL1        0.0384
      3 C          -8.4571  -19.2225   22.5390 C.ar    1  UNL1        0.0207
      4 C          -9.3916  -18.9700   21.3933 C.ar    1  UNL1        0.0657
      5 C          -8.9309  -19.2012   19.9847 C.ar    1  UNL1        0.0207
      6 C          -7.5356  -19.6849   19.7218 C.ar    1  UNL1        0.0384
      7 N         -10.7869  -18.4862   21.6561 N.ar    1  UNL1       -0.2864
      8 C         -11.4956  -18.5145   22.9778 C.ar    1  UNL1        0.1022
      9 C         -12.8652  -17.9350   22.7820 C.ar    1  UNL1        0.1196
     10 N         -13.0031  -17.5486   21.3392 N.ar    1  UNL1       -0.2220
     11 C         -11.7186  -17.8892   20.6434 C.ar    1  UNL1        0.1828
     12 O          -5.2057  -20.4212   20.6047 O.3     1  UNL1       -0.4740
     13 C          -4.1516  -19.4574   20.1466 C.3     1  UNL1        0.2226
     14 C          -3.4434  -18.5903   21.1449 C.3     1  UNL1        0.1201
     15 C          -2.1291  -16.3958   21.5995 C.3     1  UNL1        0.0898
     16 N          -2.5106  -17.5137   20.6750 N.3     1  UNL1       -0.2672
     17 C          -1.9593  -17.5551   19.2806 C.3     1  UNL1        0.0898
@<TRIPOS>BOND
     1    15    16    1
     2    16    17    1
     3    16    14    1
     4    14    13    1
     5    13    12    1
     6    12     1    1
     7     1     2   ar
     8     2     3   ar
     9     3     4   ar
    10     4     7    1
    11     7     8   ar
    12     8     9   ar
    13     9    10   ar
    14    10    11   ar
    15     4     5   ar
    16     5     6   ar
    17     6     1   ar
    18    11     7   ar
@<TRIPOS>MOLECULE
*****
 17 18 0 0 0
SMALL
GASTEIGER

@<TRIPOS>ATOM
      1 C          -6.4489  -19.5430   20.8245 C.ar    1  UNL1        0.1387
      2 C          -7.4790  -19.7267   19.7498 C.ar    1  UNL1        0.0384
      3 C          -8.8970  -19.3001   19.9893 C.ar    1  UNL1        0.0207
      4 C          -9.2848  -18.6898   21.3035 C.ar    1  UNL1        0.0657
      5 C          -8.2546  -18.5061   22.3781 C.ar    1  UNL1        0.0207
      6 C          -6.8367  -18.9327   22.1387 C.ar    1  UNL1        0.0384
      7 N         -10.7027  -18.2631   21.5429 N.ar    1  UNL1       -0.2864
      8 C         -11.4223  -18.2933   22.8587 C.ar    1  UNL1        0.1022
      9 C         -12.8144  -17.7802   22.6377 C.ar    1  UNL1        0.1196
     10 N         -12.9552  -17.4329   21.1853 N.ar    1  UNL1       -0.2220
     11 C         -11.6501  -17.7313   20.5087 C.ar    1  UNL1        0.1828
     12 O          -5.0309  -19.9697   20.5850 O.3     1  UNL1       -0.4740
     13 C          -4.0616  -19.0235   19.9408 C.3     1  UNL1        0.2226
     14 C          -2.7842  -18.6662   20.6412 C.3     1  UNL1        0.1201
     15 C          -3.5239  -17.8252   22.9854 C.3     1  UNL1        0.0898
     16 N          -2.7815  -17.6045   21.7009 N.3     1  UNL1       -0.2672
     17 C          -2.0364  -16.3223   21.4760 C.3     1  UNL1        0.0898
@<TRIPOS>BOND
     1    15    16    1
     2    16    17    1
     3    16    14    1
     4    14    13    1
     5    13    12    1
     6    12     1    1
     7     1     2   ar
     8     2     3   ar
     9     3     4   ar
    10     4     7    1
    11     7     8   ar
    12     8     9   ar
    13     9    10   ar
    14    10    11   ar
    15     4     5   ar
    16     5     6   ar
    17     6     1   ar
    18    11     7   ar
@<TRIPOS>MOLECULE
*****
 17 18 0 0 0
SMALL
GASTEIGER

@<TRIPOS>ATOM
      1 C          -8.8483  -18.9207   20.8695 C.ar    1  UNL1        0.1387
      2 C          -8.0194  -19.6175   19.8317 C.ar    1  UNL1        0.0384
      3 C          -6.5324  -19.7172   20.0022 C.ar    1  UNL1        0.0207
      4 C          -5.8744  -19.1200   21.2107 C.ar    1  UNL1        0.0657
      5 C          -6.7034  -18.4231   22.2485 C.ar    1  UNL1        0.0207
      6 C          -8.1903  -18.3234   22.0780 C.ar    1  UNL1        0.0384
      7 N          -4.3875  -19.2196   21.3812 N.ar    1  UNL1       -0.2864
      8 C          -3.5394  -18.3426   22.2539 C.ar    1  UNL1        0.1022
      9 C          -2.1153  -18.7947   22.1211 C.ar    1  UNL1        0.1196
     10 N          -2.0833  -19.9512   21.1664 N.ar    1  UNL1       -0.2220
     11 C          -3.4876  -20.2138   20.7091 C.ar    1  UNL1        0.1828
     12 O         -10.3352  -18.8210   20.6990 O.3     1  UNL1       -0.4740
     13 C         -11.0765  -17.6412   21.2543 C.3     1  UNL1        0.2226
     14 C         -12.4294  -17.8294   21.8741 C.3     1  UNL1        0.1201
     15 C         -13.8842  -18.0363   24.0167 C.3     1  UNL1        0.0898
     16 N         -12.5484  -18.1244   23.3400 N.3     1  UNL1       -0.2672
     17 C         -11.3317  -18.5077   24.1291 C.3     1  UNL1        0.0898
@<TRIPOS>BOND
     1    15    16    1
     2    16    17    1
     3    16    14    1
     4    14    13    1
     5    13    12    1
     6    12     1    1
     7     1     2   ar
     8     2     3   ar
     9     3     4   ar
    10     4     7    1
    11     7     8   ar
    12     8     9   ar
    13     9    10   ar
    14    10    11   ar
    15     4     5   ar
    16     5     6   ar
    17     6     1   ar
    18    11     7   ar
@<TRIPOS>MOLECULE
*****
 17 18 0 0 0
SMALL
GASTEIGER

@<TRIPOS>ATOM
      1 C          -8.8202  -19.1490   20.7022 C.ar    1  UNL1        0.1387
      2 C          -8.3000  -18.5627   21.9811 C.ar    1  UNL1        0.0384
      3 C          -6.8243  -18.5384   22.2494 C.ar    1  UNL1        0.0207
      4 C          -5.8690  -19.1005   21.2389 C.ar    1  UNL1        0.0657
      5 C          -6.3892  -19.6868   19.9600 C.ar    1  UNL1        0.0207
      6 C          -7.8648  -19.7110   19.6917 C.ar    1  UNL1        0.0384
      7 N          -4.3933  -19.0762   21.5072 N.ar    1  UNL1       -0.2864
      8 C          -3.6860  -18.1627   22.4639 C.ar    1  UNL1        0.1022
      9 C          -2.2215  -18.4831   22.4139 C.ar    1  UNL1        0.1196
     10 N          -2.0237  -19.5947   21.4263 N.ar    1  UNL1       -0.2220
     11 C          -3.3659  -19.9612   20.8659 C.ar    1  UNL1        0.1828
     12 O         -10.2958  -19.1732   20.4339 O.3     1  UNL1       -0.4740
     13 C         -11.0400  -17.8889   20.2178 C.3     1  UNL1        0.2226
     14 C         -12.2652  -17.5865   21.0285 C.3     1  UNL1        0.1201
     15 C         -11.0675  -16.4466   23.0326 C.3     1  UNL1        0.0898
     16 N         -12.1470  -17.3440   22.5041 N.3     1  UNL1       -0.2672
     17 C         -13.1084  -17.9988   23.4512 C.3     1  UNL1        0.0898
@<TRIPOS>BOND
     1    15    16    1
     2    16    17    1
     3    16    14    1
     4    14    13    1
     5    13    12    1
     6    12     1    1
     7     1     2   ar
     8     2     3   ar
     9     3     4   ar
    10     4     7    1
    11     7     8   ar
    12     8     9   ar
    13     9    10   ar
    14    10    11   ar
    15     4     5   ar
    16     5     6   ar
    17     6     1   ar
    18    11     7   ar
@<TRIPOS>MOLECULE
*****
 17 18 0 0 0
SMALL
GASTEIGER

@<TRIPOS>ATOM
      1 C          -6.4969  -19.7994   22.0094 C.ar    1  UNL1        0.1387
      2 C          -5.6721  -18.7289   22.6605 C.ar    1  UNL1        0.0384
      3 C          -4.3594  -18.3234   22.0586 C.ar    1  UNL1        0.0207
      4 C          -3.8715  -18.9883   20.8057 C.ar    1  UNL1        0.0657
      5 C          -4.6963  -20.0587   20.1546 C.ar    1  UNL1        0.0207
      6 C          -6.0090  -20.4642   20.7565 C.ar    1  UNL1        0.0384
      7 N          -2.5587  -18.5827   20.2038 N.ar    1  UNL1       -0.2864
      8 C          -1.3114  -18.2354   20.9610 C.ar    1  UNL1        0.1022
      9 C          -0.2446  -17.8913   19.9642 C.ar    1  UNL1        0.1196
     10 N          -0.8327  -18.0260   18.5909 N.ar    1  UNL1       -0.2220
     11 C          -2.2629  -18.4533   18.7389 C.ar    1  UNL1        0.1828
     12 O          -7.8097  -20.2049   22.6113 O.3     1  UNL1       -0.4740
     13 C          -8.9965  -19.2938   22.5058 C.3     1  UNL1        0.2226
     14 C          -9.3265  -18.3585   23.6311 C.3     1  UNL1        0.1201
     15 C          -8.4979  -16.3152   22.2569 C.3     1  UNL1        0.0898
     16 N          -8.8822  -16.9271   23.5714 N.3     1  UNL1       -0.2672
     17 C          -8.8221  -16.1075   24.8262 C.3     1  UNL1        0.0898
@<TRIPOS>BOND
     1    15    16    1
     2    16    17    1
     3    16    14    1
     4    14    13    1
     5    13    12    1
     6    12     1    1
     7     1     2   ar
     8     2     3   ar
     9     3     4   ar
    10     4     7    1
    11     7     8   ar
    12     8     9   ar
    13     9    10   ar
    14    10    11   ar
    15     4     5   ar
    16     5     6   ar
    17     6     1   ar
    18    11     7   ar
@<TRIPOS>MOLECULE
*****
 17 18 0 0 0
SMALL
GASTEIGER

@<TRIPOS>ATOM
      1 C          -6.1571  -18.5135   22.3635 C.ar    1  UNL1        0.1387
      2 C          -6.7026  -17.2656   22.9919 C.ar    1  UNL1        0.0384
      3 C          -8.1152  -16.8428   22.7163 C.ar    1  UNL1        0.0207
      4 C          -8.9822  -17.6681   21.8123 C.ar    1  UNL1        0.0657
      5 C          -8.4366  -18.9160   21.1838 C.ar    1  UNL1        0.0207
      6 C          -7.0241  -19.3387   21.4594 C.ar    1  UNL1        0.0384
      7 N         -10.3948  -17.2453   21.5367 N.ar    1  UNL1       -0.2864
      8 C         -11.2869  -16.4868   22.4740 C.ar    1  UNL1        0.1022
      9 C         -12.6068  -16.2796   21.7920 C.ar    1  UNL1        0.1196
     10 N         -12.5303  -16.9101   20.4331 N.ar    1  UNL1       -0.2220
     11 C         -11.1632  -17.5069   20.2753 C.ar    1  UNL1        0.1828
     12 O          -4.7445  -18.9362   22.6391 O.3     1  UNL1       -0.4740
     13 C          -3.7868  -17.9777   23.2824 C.3     1  UNL1        0.2226
     14 C          -2.4898  -17.6458   22.6058 C.3     1  UNL1        0.1201
     15 C          -2.0907  -19.6479   20.9989 C.3     1  UNL1        0.0898
     16 N          -2.2062  -18.1703   21.2294 N.3     1  UNL1       -0.2672
     17 C          -2.0382  -17.2171   20.0835 C.3     1  UNL1        0.0898
@<TRIPOS>BOND
     1    15    16    1
     2    16    17    1
     3    16    14    1
     4    14    13    1
     5    13    12    1
     6    12     1    1
     7     1     2   ar
     8     2     3   ar
     9     3     4   ar
    10     4     7    1
    11     7     8   ar
    12     8     9   ar
    13     9    10   ar
    14    10    11   ar
    15     4     5   ar
    16     5     6   ar
    17     6     1   ar
    18    11     7   ar
@<TRIPOS>MOLECULE
*****
 17 18 0 0 0
SMALL
GASTEIGER

@<TRIPOS>ATOM
      1 C         -13.8076   -4.3428   19.7373 C.ar    1  UNL1        0.1387
      2 C         -12.9183   -5.5062   19.4125 C.ar    1  UNL1        0.0384
      3 C         -13.5135   -6.8636   19.1813 C.ar    1  UNL1        0.0207
      4 C         -14.9979   -7.0574   19.2749 C.ar    1  UNL1        0.0657
      5 C         -15.8872   -5.8940   19.5998 C.ar    1  UNL1        0.0207
      6 C         -15.2920   -4.5367   19.8309 C.ar    1  UNL1        0.0384
      7 N         -15.5931   -8.4147   19.0437 N.ar    1  UNL1       -0.2864
      8 C         -16.8271   -8.9597   19.6997 C.ar    1  UNL1        0.1022
      9 C         -17.0555  -10.3472   19.1774 C.ar    1  UNL1        0.1196
     10 N         -15.9626  -10.6597   18.1986 N.ar    1  UNL1       -0.2220
     11 C         -15.0588   -9.4654   18.1161 C.ar    1  UNL1        0.1828
     12 O         -13.2124   -2.9855   19.9685 O.3     1  UNL1       -0.4740
     13 C         -12.6587   -2.2029   18.8148 C.3     1  UNL1        0.2226
     14 C         -11.1780   -2.1612   18.5786 C.3     1  UNL1        0.1201
     15 C          -9.6911   -4.2809   18.7935 C.3     1  UNL1        0.0898
     16 N         -10.4861   -3.3322   17.9461 N.3     1  UNL1       -0.2672
     17 C         -10.5892   -3.5546   16.4663 C.3     1  UNL1        0.0898
@<TRIPOS>BOND
     1    15    16    1
     2    16    17    1
     3    16    14    1
     4    14    13    1
     5    13    12    1
     6    12     1    1
     7     1     2   ar
     8     2     3   ar
     9     3     4   ar
    10     4     7    1
    11     7     8   ar
    12     8     9   ar
    13     9    10   ar
    14    10    11   ar
    15     4     5   ar
    16     5     6   ar
    17     6     1   ar
    18    11     7   ar
@<TRIPOS>MOLECULE
*****
 17 18 0 0 0
SMALL
GASTEIGER

@<TRIPOS>ATOM
      1 C          -7.5845  -19.2577   21.3575 C.ar    1  UNL1        0.1387
      2 C          -7.1686  -19.3595   19.9200 C.ar    1  UNL1        0.0384
      3 C          -5.7280  -19.1815   19.5416 C.ar    1  UNL1        0.0207
      4 C          -4.7035  -18.9016   20.6008 C.ar    1  UNL1        0.0657
      5 C          -5.1194  -18.7998   22.0383 C.ar    1  UNL1        0.0207
      6 C          -6.5600  -18.9779   22.4167 C.ar    1  UNL1        0.0384
      7 N          -3.2629  -18.7235   20.2224 N.ar    1  UNL1       -0.2864
      8 C          -2.0802  -18.9827   21.1079 C.ar    1  UNL1        0.1022
      9 C          -0.8385  -18.6744   20.3249 C.ar    1  UNL1        0.1196
     10 N          -1.2538  -18.2246   18.9555 N.ar    1  UNL1       -0.2220
     11 C          -2.7521  -18.2550   18.8922 C.ar    1  UNL1        0.1828
     12 O          -9.0251  -19.4358   21.7359 O.3     1  UNL1       -0.4740
     13 C          -9.5945  -18.6774   22.8980 C.3     1  UNL1        0.2226
     14 C          -9.7967  -17.1944   22.7992 C.3     1  UNL1        0.1201
     15 C          -8.0296  -15.3088   22.5312 C.3     1  UNL1        0.0898
     16 N          -8.7932  -16.2586   23.4055 N.3     1  UNL1       -0.2672
     17 C          -8.5535  -16.2728   24.8861 C.3     1  UNL1        0.0898
@<TRIPOS>BOND
     1    15    16    1
     2    16    17    1
     3    16    14    1
     4    14    13    1
     5    13    12    1
     6    12     1    1
     7     1     2   ar
     8     2     3   ar
     9     3     4   ar
    10     4     7    1
    11     7     8   ar
    12     8     9   ar
    13     9    10   ar
    14    10    11   ar
    15     4     5   ar
    16     5     6   ar
    17     6     1   ar
    18    11     7   ar
