@<TRIPOS>MOLECULE
*****
 23 24 0 0 0
SMALL
GASTEIGER

@<TRIPOS>ATOM
      1 C          -7.9688  -17.9784   22.2091 C.cat   1  UNL1        0.4181
      2 N          -7.2356  -19.1918   21.7189 N.2     1  UNL1        0.0599
      3 N          -9.4224  -18.0741   22.5669 N.pl3   1  UNL1       -0.0877
      4 C         -10.4486  -16.9957   22.3822 C.3     1  UNL1        0.2015
      5 C         -11.7654  -17.5201   22.8734 C.3     1  UNL1        0.0761
      6 C         -12.2753  -16.1683   22.4703 C.3     1  UNL1        0.0094
      7 C         -13.1888  -17.7618   23.2803 C.3     1  UNL1        0.0094
      8 C         -11.5529  -18.9225   23.3615 C.2     1  UNL1        0.1100
      9 N         -10.1049  -19.2648   23.1721 N.2     1  UNL1       -0.1191
     10 S          -5.7821  -19.0962   21.3610 S.O2    1  UNL1        0.1557
     11 O          -6.1435  -18.4124   20.0758 O.2     1  UNL1       -0.1324
     12 O          -5.4208  -19.7800   22.6462 O.2     1  UNL1       -0.1324
     13 C          -4.3285  -19.0006   21.0032 C.ar    1  UNL1        0.1446
     14 C          -3.2856  -19.4834   21.9671 C.ar    1  UNL1        0.0218
     15 C          -1.8320  -19.3878   21.6093 C.ar    1  UNL1        0.0023
     16 C          -1.4215  -18.8093   20.2876 C.ar    1  UNL1        0.0115
     17 C          -2.4644  -18.3265   19.3238 C.ar    1  UNL1        0.0591
     18 CL         -2.0539  -17.7480   18.0021 Cl      1  UNL1       -0.0822
     19 C          -3.9179  -18.4221   19.6816 C.ar    1  UNL1        0.0332
     20 N          -7.2484  -16.6695   22.3414 N.pl3   1  UNL1       -0.2217
     21 H          -7.1300  -16.0909   21.5537 H       1  UNL1        0.2454
     22 C          -5.2267  -16.1980   23.9037 C.3     1  UNL1        0.0436
     23 C          -6.7084  -16.2420   23.6740 C.3     1  UNL1        0.1638
@<TRIPOS>BOND
     1    22    23    1
     2    23    20    1
     3    20     1    1
     4     1     2    2
     5     2    10    1
     6    10    11    2
     7    10    12    2
     8    10    13    1
     9    13    14   ar
    10    14    15   ar
    11    15    16   ar
    12    16    17   ar
    13    17    18    1
    14    17    19   ar
    15     1     3    1
    16     3     4    1
    17     4     5    1
    18     5     6    1
    19     5     7    1
    20     5     8    1
    21     8     9    2
    22    19    13   ar
    23     9     3    1
    24    20    21    1
@<TRIPOS>MOLECULE
*****
 23 24 0 0 0
SMALL
GASTEIGER

@<TRIPOS>ATOM
      1 C          -8.7094  -18.2368   22.9692 C.cat   1  UNL1        0.4181
      2 N          -8.1587  -19.2998   22.0654 N.2     1  UNL1        0.0599
      3 N         -10.1532  -18.2711   23.3746 N.pl3   1  UNL1       -0.0877
      4 C         -11.3102  -17.7773   22.5576 C.3     1  UNL1        0.2015
      5 C         -12.5656  -18.0062   23.3463 C.3     1  UNL1        0.0761
      6 C         -13.2386  -17.3920   22.1548 C.3     1  UNL1        0.0094
      7 C         -13.9616  -18.1067   23.8857 C.3     1  UNL1        0.0094
      8 C         -12.1843  -18.6414   24.6506 C.2     1  UNL1        0.1100
      9 N         -10.6933  -18.8051   24.6681 N.2     1  UNL1       -0.1191
     10 S          -6.7150  -19.2655   21.6600 S.O2    1  UNL1        0.1557
     11 O          -6.4812  -20.5585   22.3834 O.2     1  UNL1       -0.1324
     12 O          -6.9488  -17.9726   20.9365 O.2     1  UNL1       -0.1324
     13 C          -5.2712  -19.2313   21.2545 C.ar    1  UNL1        0.1446
     14 C          -4.8574  -19.7501   19.9093 C.ar    1  UNL1        0.0218
     15 C          -3.4137  -19.7158   19.5039 C.ar    1  UNL1        0.0023
     16 C          -2.3837  -19.1627   20.4437 C.ar    1  UNL1        0.0115
     17 C          -2.7975  -18.6438   21.7888 C.ar    1  UNL1        0.0591
     18 CL         -1.7675  -18.0906   22.7286 Cl      1  UNL1       -0.0822
     19 C          -4.2412  -18.6781   22.1942 C.ar    1  UNL1        0.0332
     20 N          -7.8162  -17.1396   23.4676 N.pl3   1  UNL1       -0.2217
     21 H          -6.8382  -17.2460   23.4307 H       1  UNL1        0.2454
     22 C          -8.5619  -15.7105   25.5052 C.3     1  UNL1        0.0436
     23 C          -8.4133  -15.8803   24.0222 C.3     1  UNL1        0.1638
@<TRIPOS>BOND
     1    22    23    1
     2    23    20    1
     3    20     1    1
     4     1     2    2
     5     2    10    1
     6    10    11    2
     7    10    12    2
     8    10    13    1
     9    13    14   ar
    10    14    15   ar
    11    15    16   ar
    12    16    17   ar
    13    17    18    1
    14    17    19   ar
    15     1     3    1
    16     3     4    1
    17     4     5    1
    18     5     6    1
    19     5     7    1
    20     5     8    1
    21     8     9    2
    22    19    13   ar
    23     9     3    1
    24    20    21    1
@<TRIPOS>MOLECULE
*****
 23 24 0 0 0
SMALL
GASTEIGER

@<TRIPOS>ATOM
      1 C         -13.4103   -6.4657   18.6457 C.cat   1  UNL1        0.4181
      2 N         -14.1851   -7.4371   17.8054 N.2     1  UNL1        0.0599
      3 N         -12.0550   -6.0027   18.1996 N.pl3   1  UNL1       -0.0877
      4 C         -11.7779   -4.8942   17.2277 C.3     1  UNL1        0.2015
      5 C         -10.2905   -4.7733   17.0744 C.3     1  UNL1        0.0761
      6 C         -10.6368   -3.6660   16.1238 C.3     1  UNL1        0.0094
      7 C          -8.8757   -4.4209   16.7224 C.3     1  UNL1        0.0094
      8 C          -9.6486   -5.8071   17.9516 C.2     1  UNL1        0.1100
      9 N         -10.7391   -6.5669   18.6469 N.2     1  UNL1       -0.1191
     10 S         -15.5403   -7.9001   18.2515 S.O2    1  UNL1        0.1557
     11 O         -14.9331   -9.1637   18.7848 O.2     1  UNL1       -0.1324
     12 O         -16.1476   -6.6364   17.7183 O.2     1  UNL1       -0.1324
     13 C         -16.8956   -8.3631   18.6976 C.ar    1  UNL1        0.1446
     14 C         -17.4657   -7.8735   19.9958 C.ar    1  UNL1        0.0218
     15 C         -18.8209   -8.3365   20.4418 C.ar    1  UNL1        0.0023
     16 C         -19.6060   -9.2891   19.5897 C.ar    1  UNL1        0.0115
     17 C         -19.0360   -9.7786   18.2915 C.ar    1  UNL1        0.0591
     18 CL        -19.8211  -10.7312   17.4393 Cl      1  UNL1       -0.0822
     19 C         -17.6808   -9.3156   17.8454 C.ar    1  UNL1        0.0332
     20 N         -13.9906   -5.9574   19.9321 N.pl3   1  UNL1       -0.2217
     21 H         -14.0621   -6.5561   20.7104 H       1  UNL1        0.2454
     22 C         -13.5212   -3.4659   20.4998 C.3     1  UNL1        0.0436
     23 C         -14.4619   -4.5369   20.0327 C.3     1  UNL1        0.1638
@<TRIPOS>BOND
     1    22    23    1
     2    23    20    1
     3    20     1    1
     4     1     2    2
     5     2    10    1
     6    10    11    2
     7    10    12    2
     8    10    13    1
     9    13    14   ar
    10    14    15   ar
    11    15    16   ar
    12    16    17   ar
    13    17    18    1
    14    17    19   ar
    15     1     3    1
    16     3     4    1
    17     4     5    1
    18     5     6    1
    19     5     7    1
    20     5     8    1
    21     8     9    2
    22    19    13   ar
    23     9     3    1
    24    20    21    1
@<TRIPOS>MOLECULE
*****
 23 24 0 0 0
SMALL
GASTEIGER

@<TRIPOS>ATOM
      1 C         -14.5412   -6.4387   19.1736 C.cat   1  UNL1        0.4181
      2 N         -14.8647   -7.7736   18.5708 N.2     1  UNL1        0.0599
      3 N         -13.1419   -5.9030   19.1026 N.pl3   1  UNL1       -0.0877
      4 C         -11.8891   -6.7210   18.9953 C.3     1  UNL1        0.2015
      5 C         -10.7226   -5.7787   18.9528 C.3     1  UNL1        0.0761
      6 C          -9.9115   -7.0369   18.8587 C.3     1  UNL1        0.0094
      7 C          -9.3867   -5.0996   18.8906 C.3     1  UNL1        0.0094
      8 C         -11.2546   -4.3785   19.0338 C.2     1  UNL1        0.1100
      9 N         -12.7498   -4.4554   19.1264 N.2     1  UNL1       -0.1191
     10 S         -16.2639   -8.3094   18.6417 S.O2    1  UNL1        0.1557
     11 O         -15.9222   -9.0339   19.9099 O.2     1  UNL1       -0.1324
     12 O         -16.6057   -7.5849   17.3736 O.2     1  UNL1       -0.1324
     13 C         -17.6632   -8.8452   18.7127 C.ar    1  UNL1        0.1446
     14 C         -18.4899   -8.6229   19.9444 C.ar    1  UNL1        0.0218
     15 C         -19.8891   -9.1587   20.0153 C.ar    1  UNL1        0.0023
     16 C         -20.4617   -9.9167   18.8545 C.ar    1  UNL1        0.0115
     17 C         -19.6351  -10.1390   17.6228 C.ar    1  UNL1        0.0591
     18 CL        -20.2076  -10.8970   16.4619 Cl      1  UNL1       -0.0822
     19 C         -18.2358   -9.6032   17.5519 C.ar    1  UNL1        0.0332
     20 N         -15.6170   -5.6396   19.8474 N.pl3   1  UNL1       -0.2217
     21 H         -15.8676   -5.8382   20.7785 H       1  UNL1        0.2454
     22 C         -17.3927   -3.7445   19.7737 C.3     1  UNL1        0.0436
     23 C         -16.3109   -4.5379   19.1026 C.3     1  UNL1        0.1638
@<TRIPOS>BOND
     1    22    23    1
     2    23    20    1
     3    20     1    1
     4     1     2    2
     5     2    10    1
     6    10    11    2
     7    10    12    2
     8    10    13    1
     9    13    14   ar
    10    14    15   ar
    11    15    16   ar
    12    16    17   ar
    13    17    18    1
    14    17    19   ar
    15     1     3    1
    16     3     4    1
    17     4     5    1
    18     5     6    1
    19     5     7    1
    20     5     8    1
    21     8     9    2
    22    19    13   ar
    23     9     3    1
    24    20    21    1
@<TRIPOS>MOLECULE
*****
 23 24 0 0 0
SMALL
GASTEIGER

@<TRIPOS>ATOM
      1 C         -14.3689   -6.6878   18.4086 C.cat   1  UNL1        0.4181
      2 N         -14.9932   -7.8301   17.6633 N.2     1  UNL1        0.0599
      3 N         -13.0121   -6.1858   18.0121 N.pl3   1  UNL1       -0.0877
      4 C         -11.7210   -6.4866   18.7141 C.3     1  UNL1        0.2015
      5 C         -10.6191   -5.7816   17.9800 C.3     1  UNL1        0.0761
      6 C          -9.7404   -6.3977   19.0280 C.3     1  UNL1        0.0094
      7 C          -9.3335   -5.2055   17.4650 C.3     1  UNL1        0.0094
      8 C         -11.2292   -5.0452   16.8243 C.2     1  UNL1        0.1100
      9 N         -12.7081   -5.2950   16.8442 N.2     1  UNL1       -0.1191
     10 S         -16.3499   -8.3321   18.0597 S.O2    1  UNL1        0.1557
     11 O         -15.7154   -9.5052   18.7461 O.2     1  UNL1       -0.1324
     12 O         -16.9845   -7.1590   17.3732 O.2     1  UNL1       -0.1324
     13 C         -17.7068   -8.8341   18.4560 C.ar    1  UNL1        0.1446
     14 C         -18.4212   -9.8284   17.5895 C.ar    1  UNL1        0.0218
     15 C         -19.7780  -10.3303   17.9859 C.ar    1  UNL1        0.0023
     16 C         -20.4203   -9.8379   19.2488 C.ar    1  UNL1        0.0115
     17 C         -19.7059   -8.8436   20.1153 C.ar    1  UNL1        0.0591
     18 CL        -20.3483   -8.3512   21.3782 Cl      1  UNL1       -0.0822
     19 C         -18.3492   -8.3417   19.7189 C.ar    1  UNL1        0.0332
     20 N         -15.1014   -6.0475   19.5502 N.pl3   1  UNL1       -0.2217
     21 H         -15.6319   -6.6015   20.1673 H       1  UNL1        0.2454
     22 C         -14.1957   -3.9986   20.8663 C.3     1  UNL1        0.0436
     23 C         -15.0257   -4.5630   19.7515 C.3     1  UNL1        0.1638
@<TRIPOS>BOND
     1    22    23    1
     2    23    20    1
     3    20     1    1
     4     1     2    2
     5     2    10    1
     6    10    11    2
     7    10    12    2
     8    10    13    1
     9    13    14   ar
    10    14    15   ar
    11    15    16   ar
    12    16    17   ar
    13    17    18    1
    14    17    19   ar
    15     1     3    1
    16     3     4    1
    17     4     5    1
    18     5     6    1
    19     5     7    1
    20     5     8    1
    21     8     9    2
    22    19    13   ar
    23     9     3    1
    24    20    21    1
@<TRIPOS>MOLECULE
*****
 23 24 0 0 0
SMALL
GASTEIGER

@<TRIPOS>ATOM
      1 C         -12.8243   -5.3250   18.0999 C.cat   1  UNL1        0.4181
      2 N         -14.1918   -5.5669   17.5328 N.2     1  UNL1        0.0599
      3 N         -12.0766   -4.0734   17.7468 N.pl3   1  UNL1       -0.0877
      4 C         -12.3752   -2.6947   18.2566 C.3     1  UNL1        0.2015
      5 C         -11.3822   -1.7500   17.6468 C.3     1  UNL1        0.0761
      6 C         -12.1189   -0.7123   18.4406 C.3     1  UNL1        0.0094
      7 C         -10.5433   -0.5884   17.2029 C.3     1  UNL1        0.0094
      8 C         -10.4701   -2.5450   16.7601 C.2     1  UNL1        0.1100
      9 N         -10.8993   -3.9810   16.8220 N.2     1  UNL1       -0.1191
     10 S         -14.9395   -6.8184   17.8859 S.O2    1  UNL1        0.1557
     11 O         -15.5548   -6.1191   19.0616 O.2     1  UNL1       -0.1324
     12 O         -14.3242   -7.5177   16.7102 O.2     1  UNL1       -0.1324
     13 C         -15.6872   -8.0700   18.2389 C.ar    1  UNL1        0.1446
     14 C         -15.1269   -9.4096   17.8631 C.ar    1  UNL1        0.0218
     15 C         -15.8746  -10.6611   18.2162 C.ar    1  UNL1        0.0023
     16 C         -17.1826  -10.5729   18.9450 C.ar    1  UNL1        0.0115
     17 C         -17.7430   -9.2333   19.3208 C.ar    1  UNL1        0.0591
     18 CL        -19.0510   -9.1451   20.0496 Cl      1  UNL1       -0.0822
     19 C         -16.9953   -7.9818   18.9678 C.ar    1  UNL1        0.0332
     20 N         -12.2046   -6.3346   19.0200 N.pl3   1  UNL1       -0.2217
     21 H         -12.5766   -6.4732   19.9209 H       1  UNL1        0.2454
     22 C          -9.6367   -6.7286   18.9904 C.3     1  UNL1        0.0436
     23 C         -11.0180   -7.1328   18.5675 C.3     1  UNL1        0.1638
@<TRIPOS>BOND
     1    22    23    1
     2    23    20    1
     3    20     1    1
     4     1     2    2
     5     2    10    1
     6    10    11    2
     7    10    12    2
     8    10    13    1
     9    13    14   ar
    10    14    15   ar
    11    15    16   ar
    12    16    17   ar
    13    17    18    1
    14    17    19   ar
    15     1     3    1
    16     3     4    1
    17     4     5    1
    18     5     6    1
    19     5     7    1
    20     5     8    1
    21     8     9    2
    22    19    13   ar
    23     9     3    1
    24    20    21    1
@<TRIPOS>MOLECULE
*****
 23 24 0 0 0
SMALL
GASTEIGER

@<TRIPOS>ATOM
      1 C         -12.0304   -3.2299   18.9572 C.cat   1  UNL1        0.4181
      2 N         -12.2281   -2.3594   17.7518 N.2     1  UNL1        0.0599
      3 N         -11.2243   -4.4902   18.8481 N.pl3   1  UNL1       -0.0877
      4 C         -11.6788   -5.7763   18.2240 C.3     1  UNL1        0.2015
      5 C         -10.5576   -6.7666   18.3341 C.3     1  UNL1        0.0761
      6 C         -11.5124   -7.6879   17.6345 C.3     1  UNL1        0.0094
      7 C          -9.6359   -7.9495   18.2980 C.3     1  UNL1        0.0094
      8 C          -9.4101   -6.0926   19.0263 C.2     1  UNL1        0.1100
      9 N          -9.8221   -4.6857   19.3439 N.2     1  UNL1       -0.1191
     10 S         -13.0342   -1.0991   17.8608 S.O2    1  UNL1        0.1557
     11 O         -14.1571   -1.7525   17.1112 O.2     1  UNL1       -0.1324
     12 O         -11.9113   -0.4457   18.6105 O.2     1  UNL1       -0.1324
     13 C         -13.8403    0.1612   17.9699 C.ar    1  UNL1        0.1446
     14 C         -13.5543    1.3159   17.0563 C.ar    1  UNL1        0.0218
     15 C         -14.3604    2.5761   17.1654 C.ar    1  UNL1        0.0023
     16 C         -15.4525    2.6817   18.1881 C.ar    1  UNL1        0.0115
     17 C         -15.7386    1.5270   19.1018 C.ar    1  UNL1        0.0591
     18 CL        -16.8307    1.6326   20.1246 Cl      1  UNL1       -0.0822
     19 C         -14.9325    0.2668   18.9927 C.ar    1  UNL1        0.0332
     20 N         -12.6388   -2.8402   20.2717 N.pl3   1  UNL1       -0.2217
     21 H         -12.2465   -2.1060   20.7973 H       1  UNL1        0.2454
     22 C         -15.0069   -3.8324   19.8740 C.3     1  UNL1        0.0436
     23 C         -13.8449   -3.5692   20.7855 C.3     1  UNL1        0.1638
@<TRIPOS>BOND
     1    22    23    1
     2    23    20    1
     3    20     1    1
     4     1     2    2
     5     2    10    1
     6    10    11    2
     7    10    12    2
     8    10    13    1
     9    13    14   ar
    10    14    15   ar
    11    15    16   ar
    12    16    17   ar
    13    17    18    1
    14    17    19   ar
    15     1     3    1
    16     3     4    1
    17     4     5    1
    18     5     6    1
    19     5     7    1
    20     5     8    1
    21     8     9    2
    22    19    13   ar
    23     9     3    1
    24    20    21    1
@<TRIPOS>MOLECULE
*****
 23 24 0 0 0
SMALL
GASTEIGER

@<TRIPOS>ATOM
      1 C           6.6978   -3.7793   21.6612 C.cat   1  UNL1        0.4181
      2 N           5.2955   -4.0274   21.1901 N.2     1  UNL1        0.0599
      3 N           7.4470   -4.8573   22.3870 N.pl3   1  UNL1       -0.0877
      4 C           7.3702   -5.1479   23.8566 C.3     1  UNL1        0.2015
      5 C           8.2802   -6.3041   24.1486 C.3     1  UNL1        0.0761
      6 C           7.8107   -6.1136   25.5603 C.3     1  UNL1        0.0094
      7 C           9.0921   -7.4205   24.7357 C.3     1  UNL1        0.0094
      8 C           8.9194   -6.7279   22.8594 C.2     1  UNL1        0.1100
      9 N           8.4045   -5.8337   21.7707 N.2     1  UNL1       -0.1191
     10 S           4.5463   -2.9495   20.4643 S.O2    1  UNL1        0.1557
     11 O           4.8413   -3.6244   19.1576 O.2     1  UNL1       -0.1324
     12 O           4.2513   -2.2747   21.7710 O.2     1  UNL1       -0.1324
     13 C           3.7971   -1.8716   19.7385 C.ar    1  UNL1        0.1446
     14 C           4.3476   -1.3034   18.4642 C.ar    1  UNL1        0.0218
     15 C           3.5983   -0.2254   17.7385 C.ar    1  UNL1        0.0023
     16 C           2.2987    0.2843   18.2871 C.ar    1  UNL1        0.0115
     17 C           1.7482   -0.2840   19.5615 C.ar    1  UNL1        0.0591
     18 CL          0.4485    0.2257   20.1101 Cl      1  UNL1       -0.0822
     19 C           2.4974   -1.3619   20.2872 C.ar    1  UNL1        0.0332
     20 N           7.3510   -2.4532   21.4064 N.pl3   1  UNL1       -0.2217
     21 H           7.0805   -1.6631   21.9277 H       1  UNL1        0.2454
     22 C           8.0343   -2.1442   18.9189 C.3     1  UNL1        0.0436
     23 C           8.4162   -2.3310   20.3574 C.3     1  UNL1        0.1638
@<TRIPOS>BOND
     1    22    23    1
     2    23    20    1
     3    20     1    1
     4     1     2    2
     5     2    10    1
     6    10    11    2
     7    10    12    2
     8    10    13    1
     9    13    14   ar
    10    14    15   ar
    11    15    16   ar
    12    16    17   ar
    13    17    18    1
    14    17    19   ar
    15     1     3    1
    16     3     4    1
    17     4     5    1
    18     5     6    1
    19     5     7    1
    20     5     8    1
    21     8     9    2
    22    19    13   ar
    23     9     3    1
    24    20    21    1
@<TRIPOS>MOLECULE
*****
 23 24 0 0 0
SMALL
GASTEIGER

@<TRIPOS>ATOM
      1 C           0.0146    2.1419   20.7888 C.cat   1  UNL1        0.4181
      2 N          -0.0404    0.7168   20.3239 N.2     1  UNL1        0.0599
      3 N          -1.2020    2.7827   21.3883 N.pl3   1  UNL1       -0.0877
      4 C          -1.2666    3.4852   22.7121 C.3     1  UNL1        0.2015
      5 C          -2.6721    3.9701   22.9113 C.3     1  UNL1        0.0761
      6 C          -2.1387    4.4973   24.2103 C.3     1  UNL1        0.0094
      7 C          -3.9660    4.5652   23.3821 C.3     1  UNL1        0.0094
      8 C          -3.4760    3.5672   21.7106 C.2     1  UNL1        0.1100
      9 N          -2.5674    2.8334   20.7694 N.2     1  UNL1       -0.1191
     10 S           1.1761    0.0761   19.7244 S.O2    1  UNL1        0.1557
     11 O           0.7639    0.5634   18.3670 O.2     1  UNL1       -0.1324
     12 O           1.5884   -0.4112   21.0817 O.2     1  UNL1       -0.1324
     13 C           2.3927   -0.5647   19.1248 C.ar    1  UNL1        0.1446
     14 C           3.0046    0.0060   17.8799 C.ar    1  UNL1        0.0218
     15 C           4.2211   -0.6348   17.2805 C.ar    1  UNL1        0.0023
     16 C           4.8258   -1.8463   17.9259 C.ar    1  UNL1        0.0115
     17 C           4.2139   -2.4171   19.1708 C.ar    1  UNL1        0.0591
     18 CL          4.8185   -3.6286   19.8163 Cl      1  UNL1       -0.0822
     19 C           2.9974   -1.7763   19.7703 C.ar    1  UNL1        0.0332
     20 N           1.2860    2.9263   20.6541 N.pl3   1  UNL1       -0.2217
     21 H           2.0230    2.7822   21.2908 H       1  UNL1        0.2454
     22 C           2.4040    3.6782   18.4326 C.3     1  UNL1        0.0436
     23 C           1.4347    3.9300   19.5494 C.3     1  UNL1        0.1638
@<TRIPOS>BOND
     1    22    23    1
     2    23    20    1
     3    20     1    1
     4     1     2    2
     5     2    10    1
     6    10    11    2
     7    10    12    2
     8    10    13    1
     9    13    14   ar
    10    14    15   ar
    11    15    16   ar
    12    16    17   ar
    13    17    18    1
    14    17    19   ar
    15     1     3    1
    16     3     4    1
    17     4     5    1
    18     5     6    1
    19     5     7    1
    20     5     8    1
    21     8     9    2
    22    19    13   ar
    23     9     3    1
    24    20    21    1
