@<TRIPOS>MOLECULE
*****
 34 39 0 0 0
SMALL
GASTEIGER

@<TRIPOS>ATOM
      1 O           4.4550   -3.6275   20.2965 O.2     1  UNL1       -0.2526
      2 C           4.5753   -2.4389   21.2035 C.2     1  UNL1        0.3039
      3 N           5.7134   -2.3503   22.1767 N.am    1  UNL1       -0.2901
      4 N           3.5577   -1.3389   21.1376 N.am    1  UNL1       -0.2642
      5 C           2.4197   -1.4274   20.1644 C.3     1  UNL1        0.0954
      6 C           1.4020   -0.3275   20.0983 C.3     1  UNL1        0.0309
      7 C           1.5224    0.8611   21.0054 C.3     1  UNL1        0.0827
      8 C           2.6605    0.9497   21.9785 C.3     1  UNL1        0.0309
      9 C           3.6781   -0.1503   22.0446 C.3     1  UNL1        0.0954
     10 H           5.7924   -1.5702   22.7720 H       1  UNL1        0.1509
     11 C           0.5047    1.9611   20.9393 C.ar    1  UNL1        0.2362
     12 N          -0.9756    1.7839   20.7739 N.ar    1  UNL1       -0.1895
     13 C          -1.6066    3.1447   20.7594 C.ar    1  UNL1        0.2210
     14 N          -0.5162    4.1628   20.9158 N.ar    1  UNL1       -0.0544
     15 O           0.7886    3.4314   21.0269 O.2     1  UNL1       -0.3370
     16 C          -3.0708    3.4361   20.6140 C.ar    1  UNL1        0.1202
     17 N          -3.6776    3.5666   19.2485 N.ar    1  UNL1       -0.2406
     18 C          -5.1418    3.8580   19.1031 C.ar    1  UNL1        0.0989
     19 C          -5.9992    4.0189   20.3232 C.ar    1  UNL1        0.0207
     20 C          -5.3924    3.8885   21.6889 C.ar    1  UNL1        0.0031
     21 C          -6.2499    4.0494   22.9090 C.ar    1  UNL1        0.0001
     22 C          -5.6431    3.9189   24.2746 C.ar    1  UNL1        0.0000
     23 C          -4.1789    3.6275   24.4200 C.ar    1  UNL1        0.0000
     24 C          -3.3214    3.4666   23.1998 C.ar    1  UNL1        0.0016
     25 C          -3.9282    3.5970   21.8343 C.ar    1  UNL1        0.0208
     26 C           6.7311   -3.4503   22.2428 C.3     1  UNL1        0.0774
     27 C           7.8534   -4.2212   21.6134 C.3     1  UNL1        0.0259
     28 C           7.3714   -4.5846   22.9866 C.3     1  UNL1        0.0420
     29 C           7.4629   -5.4494   24.2088 C.ar    1  UNL1       -0.0208
     30 C           6.9432   -4.9474   25.5233 C.ar    1  UNL1       -0.0042
     31 C           7.0346   -5.8121   26.7456 C.ar    1  UNL1       -0.0003
     32 C           7.6458   -7.1788   26.6534 C.ar    1  UNL1       -0.0000
     33 C           8.1655   -7.6808   25.3389 C.ar    1  UNL1       -0.0003
     34 C           8.0741   -6.8161   24.1166 C.ar    1  UNL1       -0.0042
@<TRIPOS>BOND
     1     1     2    2
     2     2     3   am
     3     3    26    1
     4    26    27    1
     5    27    28    1
     6    28    29    1
     7    29    30   ar
     8    30    31   ar
     9    31    32   ar
    10    32    33   ar
    11    33    34   ar
    12     2     4   am
    13     4     5    1
    14     5     6    1
    15     6     7    1
    16     7    11    1
    17    11    12   ar
    18    12    13   ar
    19    13    16    1
    20    16    17   ar
    21    17    18   ar
    22    18    19   ar
    23    19    20   ar
    24    20    21   ar
    25    21    22   ar
    26    22    23   ar
    27    23    24   ar
    28    24    25   ar
    29    13    14   ar
    30    14    15   ar
    31     7     8    1
    32     8     9    1
    33    28    26    1
    34    34    29   ar
    35     9     4    1
    36    15    11   ar
    37    25    16   ar
    38    25    20   ar
    39     3    10    1
@<TRIPOS>MOLECULE
*****
 34 39 0 0 0
SMALL
GASTEIGER

@<TRIPOS>ATOM
      1 O           4.3363   -0.9155   23.4365 O.2     1  UNL1       -0.2526
      2 C           4.4036   -1.5053   24.8141 C.2     1  UNL1        0.3039
      3 N           5.2370   -2.7266   25.0672 N.am    1  UNL1       -0.2901
      4 N           3.6375   -0.8740   25.9386 N.am    1  UNL1       -0.2642
      5 C           2.8042    0.3473   25.6855 C.3     1  UNL1        0.0954
      6 C           2.0380    0.9788   26.8099 C.3     1  UNL1        0.0309
      7 C           2.1053    0.3890   28.1874 C.3     1  UNL1        0.0827
      8 C           2.9387   -0.8323   28.4405 C.3     1  UNL1        0.0309
      9 C           3.7048   -1.4637   27.3161 C.3     1  UNL1        0.0954
     10 H           5.2812   -3.1137   25.9713 H       1  UNL1        0.1509
     11 C           1.3392    1.0204   29.3118 C.ar    1  UNL1        0.2362
     12 N           1.7322    2.2598   30.0598 N.ar    1  UNL1       -0.1895
     13 C           0.6815    2.5288   31.0959 C.ar    1  UNL1        0.2210
     14 N          -0.3609    1.4556   30.9884 N.ar    1  UNL1       -0.0544
     15 O           0.0456    0.5234   29.8858 O.2     1  UNL1       -0.3370
     16 C           0.6745    3.6705   32.0688 C.ar    1  UNL1        0.1202
     17 N          -0.0213    4.9518   31.7165 N.ar    1  UNL1       -0.2406
     18 C          -0.0283    6.0935   32.6894 C.ar    1  UNL1        0.0989
     19 C           0.6604    5.9539   34.0146 C.ar    1  UNL1        0.0207
     20 C           1.3562    4.6725   34.3669 C.ar    1  UNL1        0.0031
     21 C           2.0449    4.5329   35.6921 C.ar    1  UNL1        0.0001
     22 C           2.7407    3.2516   36.0444 C.ar    1  UNL1        0.0000
     23 C           2.7477    2.1099   35.0715 C.ar    1  UNL1        0.0000
     24 C           2.0590    2.2495   33.7463 C.ar    1  UNL1        0.0016
     25 C           1.3632    3.5308   33.3940 C.ar    1  UNL1        0.0208
     26 C           6.0031   -3.3580   23.9427 C.3     1  UNL1        0.0774
     27 C           7.1649   -4.1751   23.4602 C.3     1  UNL1        0.0259
     28 C           6.1684   -3.6347   22.4778 C.3     1  UNL1        0.0420
     29 C           5.6885   -3.4825   21.0648 C.ar    1  UNL1       -0.0208
     30 C           6.5707   -2.8354   20.0387 C.ar    1  UNL1       -0.0042
     31 C           6.0908   -2.6832   18.6257 C.ar    1  UNL1       -0.0003
     32 C           4.7287   -3.1781   18.2388 C.ar    1  UNL1       -0.0000
     33 C           3.8465   -3.8252   19.2649 C.ar    1  UNL1       -0.0003
     34 C           4.3264   -3.9774   20.6779 C.ar    1  UNL1       -0.0042
@<TRIPOS>BOND
     1     1     2    2
     2     2     3   am
     3     3    26    1
     4    26    27    1
     5    27    28    1
     6    28    29    1
     7    29    30   ar
     8    30    31   ar
     9    31    32   ar
    10    32    33   ar
    11    33    34   ar
    12     2     4   am
    13     4     5    1
    14     5     6    1
    15     6     7    1
    16     7    11    1
    17    11    12   ar
    18    12    13   ar
    19    13    16    1
    20    16    17   ar
    21    17    18   ar
    22    18    19   ar
    23    19    20   ar
    24    20    21   ar
    25    21    22   ar
    26    22    23   ar
    27    23    24   ar
    28    24    25   ar
    29    13    14   ar
    30    14    15   ar
    31     7     8    1
    32     8     9    1
    33    28    26    1
    34    34    29   ar
    35     9     4    1
    36    15    11   ar
    37    25    16   ar
    38    25    20   ar
    39     3    10    1
@<TRIPOS>MOLECULE
*****
 34 39 0 0 0
SMALL
GASTEIGER

@<TRIPOS>ATOM
      1 O           3.1120    0.7368   22.6700 O.2     1  UNL1       -0.2526
      2 C           1.7117    0.9681   23.1553 C.2     1  UNL1        0.3039
      3 N           0.5834    1.0654   22.1717 N.am    1  UNL1       -0.2901
      4 N           1.4395    1.1021   24.6243 N.am    1  UNL1       -0.2642
      5 C           2.5678    1.0048   25.6080 C.3     1  UNL1        0.0954
      6 C           2.2957    1.1389   27.0770 C.3     1  UNL1        0.0309
      7 C           0.8954    1.3702   27.5624 C.3     1  UNL1        0.0827
      8 C          -0.2328    1.4675   26.5787 C.3     1  UNL1        0.0309
      9 C           0.0392    1.3335   25.1097 C.3     1  UNL1        0.0954
     10 H          -0.3357    1.2172   22.4902 H       1  UNL1        0.1509
     11 C           0.6234    1.5042   29.0314 C.ar    1  UNL1        0.2362
     12 N           1.5066    2.1876   30.0328 N.ar    1  UNL1       -0.1895
     13 C           0.8495    2.0842   31.3773 C.ar    1  UNL1        0.2210
     14 N          -0.4398    1.3369   31.2067 N.ar    1  UNL1       -0.0544
     15 O          -0.5796    0.9784   29.7569 O.2     1  UNL1       -0.3370
     16 C           1.3873    2.6319   32.6660 C.ar    1  UNL1        0.1202
     17 N           2.4588    1.8890   33.4076 N.ar    1  UNL1       -0.2406
     18 C           2.9966    2.4367   34.6963 C.ar    1  UNL1        0.0989
     19 C           2.4629    3.7273   35.2434 C.ar    1  UNL1        0.0207
     20 C           1.3914    4.4703   34.5018 C.ar    1  UNL1        0.0031
     21 C           0.8578    5.7610   35.0490 C.ar    1  UNL1        0.0001
     22 C          -0.2136    6.5039   34.3074 C.ar    1  UNL1        0.0000
     23 C          -0.7514    5.9562   33.0187 C.ar    1  UNL1        0.0000
     24 C          -0.2178    4.6656   32.4715 C.ar    1  UNL1        0.0016
     25 C           0.8536    3.9226   33.2131 C.ar    1  UNL1        0.0208
     26 C           0.8554    0.9314   20.7026 C.3     1  UNL1        0.0774
     27 C           0.5431    1.3061   19.2842 C.3     1  UNL1        0.0259
     28 C           1.6389    0.3245   19.5767 C.3     1  UNL1        0.0420
     29 C           2.7239   -0.5927   19.0954 C.ar    1  UNL1       -0.0208
     30 C           3.0223   -1.8585   19.8428 C.ar    1  UNL1       -0.0042
     31 C           4.1073   -2.7756   19.3616 C.ar    1  UNL1       -0.0003
     32 C           4.8940   -2.4270   18.1329 C.ar    1  UNL1       -0.0000
     33 C           4.5956   -1.1612   17.3855 C.ar    1  UNL1       -0.0003
     34 C           3.5106   -0.2440   17.8668 C.ar    1  UNL1       -0.0042
@<TRIPOS>BOND
     1     1     2    2
     2     2     3   am
     3     3    26    1
     4    26    27    1
     5    27    28    1
     6    28    29    1
     7    29    30   ar
     8    30    31   ar
     9    31    32   ar
    10    32    33   ar
    11    33    34   ar
    12     2     4   am
    13     4     5    1
    14     5     6    1
    15     6     7    1
    16     7    11    1
    17    11    12   ar
    18    12    13   ar
    19    13    16    1
    20    16    17   ar
    21    17    18   ar
    22    18    19   ar
    23    19    20   ar
    24    20    21   ar
    25    21    22   ar
    26    22    23   ar
    27    23    24   ar
    28    24    25   ar
    29    13    14   ar
    30    14    15   ar
    31     7     8    1
    32     8     9    1
    33    28    26    1
    34    34    29   ar
    35     9     4    1
    36    15    11   ar
    37    25    16   ar
    38    25    20   ar
    39     3    10    1
@<TRIPOS>MOLECULE
*****
 34 39 0 0 0
SMALL
GASTEIGER

@<TRIPOS>ATOM
      1 O           4.7452   -3.7072   20.0666 O.2     1  UNL1       -0.2526
      2 C           4.8417   -2.5268   20.9872 C.2     1  UNL1        0.3039
      3 N           5.9605   -2.4415   21.9826 N.am    1  UNL1       -0.2901
      4 N           3.8194   -1.4317   20.9124 N.am    1  UNL1       -0.2642
      5 C           2.7005   -1.5170   19.9169 C.3     1  UNL1        0.0954
      6 C           1.6781   -0.4220   19.8420 C.3     1  UNL1        0.0309
      7 C           1.7746    0.7583   20.7625 C.3     1  UNL1        0.0827
      8 C           2.8934    0.8436   21.7580 C.3     1  UNL1        0.0309
      9 C           3.9158   -0.2514   21.8329 C.3     1  UNL1        0.0954
     10 H           6.0238   -1.6668   22.5868 H       1  UNL1        0.1509
     11 C           0.7522    1.8534   20.6876 C.ar    1  UNL1        0.2362
     12 N          -0.7333    1.6677   20.5932 N.ar    1  UNL1       -0.1895
     13 C          -1.3678    3.0259   20.5412 C.ar    1  UNL1        0.2210
     14 N          -0.2745    4.0509   20.6035 N.ar    1  UNL1       -0.0544
     15 O           1.0357    3.3263   20.6939 O.2     1  UNL1       -0.3370
     16 C          -2.8376    3.3092   20.4440 C.ar    1  UNL1        0.1202
     17 N          -3.7214    3.1049   21.6386 N.ar    1  UNL1       -0.2406
     18 C          -5.1912    3.3882   21.5414 C.ar    1  UNL1        0.0989
     19 C          -5.7772    3.8759   20.2496 C.ar    1  UNL1        0.0207
     20 C          -4.8933    4.0803   19.0549 C.ar    1  UNL1        0.0031
     21 C          -5.4793    4.5680   17.7632 C.ar    1  UNL1        0.0001
     22 C          -4.5955    4.7724   16.5686 C.ar    1  UNL1        0.0000
     23 C          -3.1257    4.4890   16.6658 C.ar    1  UNL1        0.0000
     24 C          -2.5397    4.0013   17.9576 C.ar    1  UNL1        0.0016
     25 C          -3.4236    3.7970   19.1521 C.ar    1  UNL1        0.0208
     26 C           6.9829   -3.5366   22.0576 C.3     1  UNL1        0.0774
     27 C           8.1375   -4.2794   21.4532 C.3     1  UNL1        0.0259
     28 C           7.5992   -4.6904   22.7916 C.3     1  UNL1        0.0420
     29 C           7.6443   -5.5939   23.9882 C.ar    1  UNL1       -0.0208
     30 C           8.3420   -6.9189   23.9016 C.ar    1  UNL1       -0.0042
     31 C           8.3871   -7.8223   25.0982 C.ar    1  UNL1       -0.0003
     32 C           7.7344   -7.4008   26.3813 C.ar    1  UNL1       -0.0000
     33 C           7.0367   -6.0758   26.4678 C.ar    1  UNL1       -0.0003
     34 C           6.9916   -5.1723   25.2713 C.ar    1  UNL1       -0.0042
@<TRIPOS>BOND
     1     1     2    2
     2     2     3   am
     3     3    26    1
     4    26    27    1
     5    27    28    1
     6    28    29    1
     7    29    30   ar
     8    30    31   ar
     9    31    32   ar
    10    32    33   ar
    11    33    34   ar
    12     2     4   am
    13     4     5    1
    14     5     6    1
    15     6     7    1
    16     7    11    1
    17    11    12   ar
    18    12    13   ar
    19    13    16    1
    20    16    17   ar
    21    17    18   ar
    22    18    19   ar
    23    19    20   ar
    24    20    21   ar
    25    21    22   ar
    26    22    23   ar
    27    23    24   ar
    28    24    25   ar
    29    13    14   ar
    30    14    15   ar
    31     7     8    1
    32     8     9    1
    33    28    26    1
    34    34    29   ar
    35     9     4    1
    36    15    11   ar
    37    25    16   ar
    38    25    20   ar
    39     3    10    1
@<TRIPOS>MOLECULE
*****
 34 39 0 0 0
SMALL
GASTEIGER

@<TRIPOS>ATOM
      1 O           7.3143   -4.8403   29.5689 O.2     1  UNL1       -0.2526
      2 C           6.6610   -3.6581   28.9167 C.2     1  UNL1        0.3039
      3 N           6.1446   -2.5281   29.7572 N.am    1  UNL1       -0.2901
      4 N           6.5240   -3.6058   27.4238 N.am    1  UNL1       -0.2642
      5 C           7.0404   -4.7358   26.5833 C.3     1  UNL1        0.0954
      6 C           6.9035   -4.6835   25.0905 C.3     1  UNL1        0.0309
      7 C           6.2502   -3.5013   24.4382 C.3     1  UNL1        0.0827
      8 C           5.7338   -2.3713   25.2787 C.3     1  UNL1        0.0309
      9 C           5.8707   -2.4235   26.7715 C.3     1  UNL1        0.0954
     10 H           5.7158   -1.7522   29.3291 H       1  UNL1        0.1509
     11 C           6.1133   -3.4491   22.9454 C.ar    1  UNL1        0.2362
     12 N           5.7543   -2.2391   22.1347 N.ar    1  UNL1       -0.1895
     13 C           5.7305   -2.6398   20.6894 C.ar    1  UNL1        0.2210
     14 N           6.0748   -4.0974   20.6068 N.ar    1  UNL1       -0.0544
     15 O           6.3114   -4.5976   22.0011 O.2     1  UNL1       -0.3370
     16 C           5.4173   -1.7408   19.5303 C.ar    1  UNL1        0.1202
     17 N           6.4733   -1.4389   18.5086 N.ar    1  UNL1       -0.2406
     18 C           6.1602   -0.5398   17.3495 C.ar    1  UNL1        0.0989
     19 C           4.7911    0.0573   17.2119 C.ar    1  UNL1        0.0207
     20 C           3.7350   -0.2446   18.2336 C.ar    1  UNL1        0.0031
     21 C           2.3659    0.3526   18.0961 C.ar    1  UNL1        0.0001
     22 C           1.3100    0.0507   19.1177 C.ar    1  UNL1        0.0000
     23 C           1.6231   -0.8484   20.2769 C.ar    1  UNL1        0.0000
     24 C           2.9922   -1.4455   20.4144 C.ar    1  UNL1        0.0016
     25 C           4.0482   -1.1436   19.3928 C.ar    1  UNL1        0.0208
     26 C           6.2815   -2.5804   31.2500 C.3     1  UNL1        0.0774
     27 C           6.8353   -3.2334   32.4817 C.3     1  UNL1        0.0259
     28 C           5.9649   -2.0179   32.6040 C.3     1  UNL1        0.0420
     29 C           5.2796   -0.9913   33.4564 C.ar    1  UNL1       -0.0208
     30 C           5.5796   -0.9138   34.9240 C.ar    1  UNL1       -0.0042
     31 C           4.8943    0.1128   35.7764 C.ar    1  UNL1       -0.0003
     32 C           3.9089    1.0617   35.1612 C.ar    1  UNL1       -0.0000
     33 C           3.6089    0.9842   33.6936 C.ar    1  UNL1       -0.0003
     34 C           4.2942   -0.0424   32.8412 C.ar    1  UNL1       -0.0042
@<TRIPOS>BOND
     1     1     2    2
     2     2     3   am
     3     3    26    1
     4    26    27    1
     5    27    28    1
     6    28    29    1
     7    29    30   ar
     8    30    31   ar
     9    31    32   ar
    10    32    33   ar
    11    33    34   ar
    12     2     4   am
    13     4     5    1
    14     5     6    1
    15     6     7    1
    16     7    11    1
    17    11    12   ar
    18    12    13   ar
    19    13    16    1
    20    16    17   ar
    21    17    18   ar
    22    18    19   ar
    23    19    20   ar
    24    20    21   ar
    25    21    22   ar
    26    22    23   ar
    27    23    24   ar
    28    24    25   ar
    29    13    14   ar
    30    14    15   ar
    31     7     8    1
    32     8     9    1
    33    28    26    1
    34    34    29   ar
    35     9     4    1
    36    15    11   ar
    37    25    16   ar
    38    25    20   ar
    39     3    10    1
@<TRIPOS>MOLECULE
*****
 34 39 0 0 0
SMALL
GASTEIGER

@<TRIPOS>ATOM
      1 O           5.0799   -0.9230   24.8629 O.2     1  UNL1       -0.2526
      2 C           3.8573   -0.6238   25.6788 C.2     1  UNL1        0.3039
      3 N           2.5778   -0.2366   24.9983 N.am    1  UNL1       -0.2901
      4 N           3.9141   -0.7116   27.1752 N.am    1  UNL1       -0.2642
      5 C           5.1936   -1.0987   27.8556 C.3     1  UNL1        0.0954
      6 C           5.2505   -1.1865   29.3520 C.3     1  UNL1        0.0309
      7 C           4.0279   -0.8873   30.1678 C.3     1  UNL1        0.0827
      8 C           2.7484   -0.5002   29.4874 C.3     1  UNL1        0.0309
      9 C           2.6915   -0.4123   27.9910 C.3     1  UNL1        0.0954
     10 H           1.7753   -0.0402   25.5338 H       1  UNL1        0.1509
     11 C           4.0848   -0.9752   31.6642 C.ar    1  UNL1        0.2362
     12 N           4.5167    0.1183   32.5958 N.ar    1  UNL1       -0.1895
     13 C           4.4187   -0.4026   33.9990 C.ar    1  UNL1        0.2210
     14 N           3.9261   -1.8180   33.9346 N.ar    1  UNL1       -0.0544
     15 O           3.7198   -2.1718   32.4916 O.2     1  UNL1       -0.3370
     16 C           4.7543    0.3583   35.2474 C.ar    1  UNL1        0.1202
     17 N           5.8619   -0.1168   36.1403 N.ar    1  UNL1       -0.2406
     18 C           6.1975    0.6441   37.3887 C.ar    1  UNL1        0.0989
     19 C           5.4254    1.8800   37.7442 C.ar    1  UNL1        0.0207
     20 C           4.3177    2.3551   36.8512 C.ar    1  UNL1        0.0031
     21 C           3.5456    3.5910   37.2066 C.ar    1  UNL1        0.0001
     22 C           2.4380    4.0661   36.3136 C.ar    1  UNL1        0.0000
     23 C           2.1024    3.3052   35.0653 C.ar    1  UNL1        0.0000
     24 C           2.8745    2.0693   34.7098 C.ar    1  UNL1        0.0016
     25 C           3.9821    1.5942   35.6028 C.ar    1  UNL1        0.0208
     26 C           2.5208   -0.1488   23.5020 C.3     1  UNL1        0.0774
     27 C           2.1081    0.5813   22.2583 C.3     1  UNL1        0.0259
     28 C           2.8349   -0.7267   22.1539 C.3     1  UNL1        0.0420
     29 C           3.4359   -1.8155   21.3152 C.ar    1  UNL1       -0.0208
     30 C           3.1298   -1.8880   19.8486 C.ar    1  UNL1       -0.0042
     31 C           3.7307   -2.9769   19.0100 C.ar    1  UNL1       -0.0003
     32 C           4.6378   -3.9931   19.6379 C.ar    1  UNL1       -0.0000
     33 C           4.9439   -3.9206   21.1045 C.ar    1  UNL1       -0.0003
     34 C           4.3430   -2.8318   21.9432 C.ar    1  UNL1       -0.0042
@<TRIPOS>BOND
     1     1     2    2
     2     2     3   am
     3     3    26    1
     4    26    27    1
     5    27    28    1
     6    28    29    1
     7    29    30   ar
     8    30    31   ar
     9    31    32   ar
    10    32    33   ar
    11    33    34   ar
    12     2     4   am
    13     4     5    1
    14     5     6    1
    15     6     7    1
    16     7    11    1
    17    11    12   ar
    18    12    13   ar
    19    13    16    1
    20    16    17   ar
    21    17    18   ar
    22    18    19   ar
    23    19    20   ar
    24    20    21   ar
    25    21    22   ar
    26    22    23   ar
    27    23    24   ar
    28    24    25   ar
    29    13    14   ar
    30    14    15   ar
    31     7     8    1
    32     8     9    1
    33    28    26    1
    34    34    29   ar
    35     9     4    1
    36    15    11   ar
    37    25    16   ar
    38    25    20   ar
    39     3    10    1
@<TRIPOS>MOLECULE
*****
 34 39 0 0 0
SMALL
GASTEIGER

@<TRIPOS>ATOM
      1 O           3.1907    0.3465   22.7864 O.2     1  UNL1       -0.2526
      2 C           1.8055    0.7431   23.2033 C.2     1  UNL1        0.3039
      3 N           0.7199    0.8682   22.1757 N.am    1  UNL1       -0.2901
      4 N           1.5057    1.0147   24.6477 N.am    1  UNL1       -0.2642
      5 C           2.5913    0.8896   25.6753 C.3     1  UNL1        0.0954
      6 C           2.2917    1.1611   27.1198 C.3     1  UNL1        0.0309
      7 C           0.9065    1.5578   27.5366 C.3     1  UNL1        0.0827
      8 C          -0.1791    1.6829   26.5091 C.3     1  UNL1        0.0309
      9 C           0.1205    1.4113   25.0646 C.3     1  UNL1        0.0954
     10 H          -0.1893    1.1286   22.4493 H       1  UNL1        0.1509
     11 C           0.6069    1.8293   28.9811 C.ar    1  UNL1        0.2362
     12 N           0.8236    3.1294   29.6972 N.ar    1  UNL1       -0.1895
     13 C           0.3886    2.9521   31.1218 C.ar    1  UNL1        0.2210
     14 N          -0.0970    1.5424   31.2861 N.ar    1  UNL1       -0.0544
     15 O           0.0379    0.8485   29.9631 O.2     1  UNL1       -0.3370
     16 C           0.4317    4.0004   32.1938 C.ar    1  UNL1        0.1202
     17 N          -0.2993    5.2965   32.0051 N.ar    1  UNL1       -0.2406
     18 C          -0.2562    6.3448   33.0771 C.ar    1  UNL1        0.0989
     19 C           0.5177    6.0970   34.3378 C.ar    1  UNL1        0.0207
     20 C           1.2487    4.8008   34.5266 C.ar    1  UNL1        0.0031
     21 C           2.0227    4.5529   35.7873 C.ar    1  UNL1        0.0001
     22 C           2.7536    3.2567   35.9760 C.ar    1  UNL1        0.0000
     23 C           2.7106    2.2084   34.9040 C.ar    1  UNL1        0.0000
     24 C           1.9366    2.4563   33.6433 C.ar    1  UNL1        0.0016
     25 C           1.2057    3.7525   33.4546 C.ar    1  UNL1        0.0208
     26 C           1.0195    0.5967   20.7312 C.3     1  UNL1        0.0774
     27 C           0.7231    0.8227   19.2783 C.3     1  UNL1        0.0259
     28 C           1.8349   -0.0996   19.6823 C.3     1  UNL1        0.0420
     29 C           2.9475   -1.0342   19.3099 C.ar    1  UNL1       -0.0208
     30 C           3.7875   -0.7554   18.0988 C.ar    1  UNL1       -0.0042
     31 C           4.9002   -1.6899   17.7264 C.ar    1  UNL1       -0.0003
     32 C           5.1729   -2.9032   18.5651 C.ar    1  UNL1       -0.0000
     33 C           4.3329   -3.1820   19.7762 C.ar    1  UNL1       -0.0003
     34 C           3.2202   -2.2475   20.1486 C.ar    1  UNL1       -0.0042
@<TRIPOS>BOND
     1     1     2    2
     2     2     3   am
     3     3    26    1
     4    26    27    1
     5    27    28    1
     6    28    29    1
     7    29    30   ar
     8    30    31   ar
     9    31    32   ar
    10    32    33   ar
    11    33    34   ar
    12     2     4   am
    13     4     5    1
    14     5     6    1
    15     6     7    1
    16     7    11    1
    17    11    12   ar
    18    12    13   ar
    19    13    16    1
    20    16    17   ar
    21    17    18   ar
    22    18    19   ar
    23    19    20   ar
    24    20    21   ar
    25    21    22   ar
    26    22    23   ar
    27    23    24   ar
    28    24    25   ar
    29    13    14   ar
    30    14    15   ar
    31     7     8    1
    32     8     9    1
    33    28    26    1
    34    34    29   ar
    35     9     4    1
    36    15    11   ar
    37    25    16   ar
    38    25    20   ar
    39     3    10    1
@<TRIPOS>MOLECULE
*****
 34 39 0 0 0
SMALL
GASTEIGER

@<TRIPOS>ATOM
      1 O           3.8959   -0.7738   23.7036 O.2     1  UNL1       -0.2526
      2 C           4.1278   -1.3683   25.0611 C.2     1  UNL1        0.3039
      3 N           5.0201   -2.5645   25.2135 N.am    1  UNL1       -0.2901
      4 N           3.4675   -0.7669   26.2662 N.am    1  UNL1       -0.2642
      5 C           2.5753    0.4293   26.1138 C.3     1  UNL1        0.0954
      6 C           1.9149    1.0308   27.3188 C.3     1  UNL1        0.0309
      7 C           2.1468    0.4362   28.6762 C.3     1  UNL1        0.0827
      8 C           3.0391   -0.7599   28.8286 C.3     1  UNL1        0.0309
      9 C           3.6994   -1.3615   27.6236 C.3     1  UNL1        0.0954
     10 H           5.1722   -2.9547   26.1045 H       1  UNL1        0.1509
     11 C           1.4865    1.0378   29.8812 C.ar    1  UNL1        0.2362
     12 N           2.1820    1.7418   31.0084 N.ar    1  UNL1       -0.1895
     13 C           1.1401    2.1801   31.9945 C.ar    1  UNL1        0.2210
     14 N          -0.1994    1.7469   31.4767 N.ar    1  UNL1       -0.0544
     15 O           0.0147    1.0410   30.1706 O.2     1  UNL1       -0.3370
     16 C           1.3933    2.9214   33.2737 C.ar    1  UNL1        0.1202
     17 N           2.1797    2.2722   34.3737 N.ar    1  UNL1       -0.2406
     18 C           2.4328    3.0135   35.6529 C.ar    1  UNL1        0.0989
     19 C           1.8995    4.4039   35.8322 C.ar    1  UNL1        0.0207
     20 C           1.1131    5.0532   34.7321 C.ar    1  UNL1        0.0031
     21 C           0.5798    6.4437   34.9114 C.ar    1  UNL1        0.0001
     22 C          -0.2067    7.0928   33.8114 C.ar    1  UNL1        0.0000
     23 C          -0.4598    6.3516   32.5321 C.ar    1  UNL1        0.0000
     24 C           0.0735    4.9611   32.3529 C.ar    1  UNL1        0.0016
     25 C           0.8599    4.3119   33.4529 C.ar    1  UNL1        0.0208
     26 C           5.6804   -3.1660   24.0085 C.3     1  UNL1        0.0774
     27 C           6.7920   -3.9701   23.4020 C.3     1  UNL1        0.0259
     28 C           5.7126   -3.4040   22.5279 C.3     1  UNL1        0.0420
     29 C           5.1079   -3.2145   21.1683 C.ar    1  UNL1       -0.0208
     30 C           5.6804   -3.9377   19.9854 C.ar    1  UNL1       -0.0042
     31 C           5.0757   -3.7482   18.6258 C.ar    1  UNL1       -0.0003
     32 C           3.8985   -2.8355   18.4491 C.ar    1  UNL1       -0.0000
     33 C           3.3260   -2.1123   19.6319 C.ar    1  UNL1       -0.0003
     34 C           3.9307   -2.3018   20.9915 C.ar    1  UNL1       -0.0042
@<TRIPOS>BOND
     1     1     2    2
     2     2     3   am
     3     3    26    1
     4    26    27    1
     5    27    28    1
     6    28    29    1
     7    29    30   ar
     8    30    31   ar
     9    31    32   ar
    10    32    33   ar
    11    33    34   ar
    12     2     4   am
    13     4     5    1
    14     5     6    1
    15     6     7    1
    16     7    11    1
    17    11    12   ar
    18    12    13   ar
    19    13    16    1
    20    16    17   ar
    21    17    18   ar
    22    18    19   ar
    23    19    20   ar
    24    20    21   ar
    25    21    22   ar
    26    22    23   ar
    27    23    24   ar
    28    24    25   ar
    29    13    14   ar
    30    14    15   ar
    31     7     8    1
    32     8     9    1
    33    28    26    1
    34    34    29   ar
    35     9     4    1
    36    15    11   ar
    37    25    16   ar
    38    25    20   ar
    39     3    10    1
@<TRIPOS>MOLECULE
*****
 34 39 0 0 0
SMALL
GASTEIGER

@<TRIPOS>ATOM
      1 O           3.8275    0.1039   35.0175 O.2     1  UNL1       -0.2526
      2 C           5.3153    0.1255   34.8277 C.2     1  UNL1        0.3039
      3 N           6.1465    1.1557   35.5332 N.am    1  UNL1       -0.2901
      4 N           5.9719   -0.8830   33.9323 N.am    1  UNL1       -0.2642
      5 C           5.1407   -1.9132   33.2267 C.3     1  UNL1        0.0954
      6 C           5.7973   -2.9218   32.3314 C.3     1  UNL1        0.0309
      7 C           7.2850   -2.9002   32.1415 C.3     1  UNL1        0.0827
      8 C           8.1162   -1.8700   32.8471 C.3     1  UNL1        0.0309
      9 C           7.4597   -0.8614   33.7425 C.3     1  UNL1        0.0954
     10 H           7.1230    1.1699   35.4086 H       1  UNL1        0.1509
     11 C           7.9416   -3.9087   31.2462 C.ar    1  UNL1        0.2362
     12 N           7.3823   -4.4431   29.9610 N.ar    1  UNL1       -0.1895
     13 C           8.3677   -5.4246   29.3992 C.ar    1  UNL1        0.2210
     14 N           9.5360   -5.4969   30.3373 N.ar    1  UNL1       -0.0544
     15 O           9.2726   -4.5601   31.4788 O.2     1  UNL1       -0.3370
     16 C           8.2122   -6.1981   28.1235 C.ar    1  UNL1        0.1202
     17 N           8.2505   -7.6974   28.1459 N.ar    1  UNL1       -0.2406
     18 C           8.0950   -8.4708   26.8702 C.ar    1  UNL1        0.0989
     19 C           7.9011   -7.7450   25.5719 C.ar    1  UNL1        0.0207
     20 C           7.8627   -6.2456   25.5494 C.ar    1  UNL1        0.0031
     21 C           7.6687   -5.5197   24.2512 C.ar    1  UNL1        0.0001
     22 C           7.6304   -4.0204   24.2287 C.ar    1  UNL1        0.0000
     23 C           7.7859   -3.2470   25.5045 C.ar    1  UNL1        0.0000
     24 C           7.9798   -3.9728   26.8027 C.ar    1  UNL1        0.0016
     25 C           8.0182   -5.4721   26.8252 C.ar    1  UNL1        0.0208
     26 C           5.4899    2.1643   36.4286 C.3     1  UNL1        0.0774
     27 C           5.4716    3.5260   37.0576 C.3     1  UNL1        0.0259
     28 C           4.3711    2.5496   37.3505 C.3     1  UNL1        0.0420
     29 C           3.0898    2.2084   38.0518 C.ar    1  UNL1       -0.0208
     30 C           2.9129    0.8552   38.6742 C.ar    1  UNL1       -0.0042
     31 C           1.6316    0.5139   39.3755 C.ar    1  UNL1       -0.0003
     32 C           0.5272    1.5260   39.4545 C.ar    1  UNL1       -0.0000
     33 C           0.7042    2.8792   38.8321 C.ar    1  UNL1       -0.0003
     34 C           1.9855    3.2204   38.1307 C.ar    1  UNL1       -0.0042
@<TRIPOS>BOND
     1     1     2    2
     2     2     3   am
     3     3    26    1
     4    26    27    1
     5    27    28    1
     6    28    29    1
     7    29    30   ar
     8    30    31   ar
     9    31    32   ar
    10    32    33   ar
    11    33    34   ar
    12     2     4   am
    13     4     5    1
    14     5     6    1
    15     6     7    1
    16     7    11    1
    17    11    12   ar
    18    12    13   ar
    19    13    16    1
    20    16    17   ar
    21    17    18   ar
    22    18    19   ar
    23    19    20   ar
    24    20    21   ar
    25    21    22   ar
    26    22    23   ar
    27    23    24   ar
    28    24    25   ar
    29    13    14   ar
    30    14    15   ar
    31     7     8    1
    32     8     9    1
    33    28    26    1
    34    34    29   ar
    35     9     4    1
    36    15    11   ar
    37    25    16   ar
    38    25    20   ar
    39     3    10    1
