@<TRIPOS>MOLECULE
*****
 36 39 0 0 0
SMALL
GASTEIGER

@<TRIPOS>ATOM
      1 N          -5.6288  -16.4978   24.3593 N.ar    1  UNL1       -0.2463
      2 N          -6.6167  -16.7172   23.2521 N.ar    1  UNL1       -0.1641
      3 C          -7.9727  -16.3201   23.7554 C.ar    1  UNL1        0.1581
      4 C          -7.8230  -15.8552   25.1737 C.ar    1  UNL1        0.0413
      5 C          -8.8185  -15.3462   26.1735 C.ar    1  UNL1        0.0032
      6 C          -8.3654  -14.9469   27.5465 C.ar    1  UNL1        0.0001
      7 C          -6.9168  -15.0567   27.9198 C.ar    1  UNL1        0.0015
      8 C          -5.9212  -15.5658   26.9200 C.ar    1  UNL1        0.0188
      9 C          -6.3743  -15.9651   25.5469 C.ar    1  UNL1        0.0799
     10 C          -9.2537  -16.3777   22.9771 C.ar    1  UNL1        0.2792
     11 N          -9.4227  -16.9421   21.5978 N.ar    1  UNL1       -0.1880
     12 C         -10.8641  -16.7942   21.2097 C.ar    1  UNL1        0.2007
     13 N         -11.5859  -16.1383   22.3493 N.ar    1  UNL1       -0.0584
     14 O         -10.5907  -15.8808   23.4417 O.2     1  UNL1       -0.3310
     15 C         -11.4761  -17.2264   19.9103 C.3     1  UNL1        0.1621
     16 N         -10.6897  -18.0762   18.9566 N.am    1  UNL1       -0.2634
     17 C         -10.3440  -19.4894   19.3213 C.2     1  UNL1        0.4017
     18 O         -10.7848  -20.0530   20.6396 O.2     1  UNL1       -0.2264
     19 H         -10.4004  -17.7063   18.0913 H       1  UNL1        0.1532
     20 O          -9.5575  -20.3392   18.3676 O.3     1  UNL1       -0.4419
     21 C          -8.2425  -20.9226   18.7922 C.3     1  UNL1        0.1378
     22 C          -7.9190  -19.6571   19.5295 C.3     1  UNL1        0.0437
     23 C          -8.5660  -22.1882   18.0548 C.3     1  UNL1        0.0437
     24 C          -6.9275  -21.5061   19.2167 C.3     1  UNL1        0.0437
     25 C          -4.1542  -16.7643   24.2910 C.3     1  UNL1        0.1538
     26 C          -2.2535  -17.9070   20.3754 C.ar    1  UNL1        0.0503
     27 C          -3.2244  -18.8389   21.0380 C.ar    1  UNL1        0.0144
     28 C          -3.8580  -18.4580   22.3431 C.ar    1  UNL1       -0.0011
     29 C          -3.5206  -17.1452   22.9857 C.ar    1  UNL1        0.0022
     30 C          -2.5497  -16.2134   22.3231 C.ar    1  UNL1       -0.0011
     31 C          -1.9161  -16.5943   21.0180 C.ar    1  UNL1        0.0144
     32 C          -1.3857  -17.9633   16.5032 C.3     1  UNL1        0.0949
     33 C          -2.0193  -17.5823   17.8083 C.2     1  UNL1        0.2266
     34 O          -3.0524  -16.4956   17.8516 O.2     1  UNL1       -0.2748
     35 N          -1.6199  -18.2880   19.0702 N.am    1  UNL1       -0.2839
     36 H          -0.9419  -19.0012   19.0419 H       1  UNL1        0.1549
@<TRIPOS>BOND
     1    32    33    1
     2    33    34    2
     3    33    35   am
     4    35    26    1
     5    26    27   ar
     6    27    28   ar
     7    28    29   ar
     8    29    25    1
     9    25     1    1
    10     1     2   ar
    11     2     3   ar
    12     3    10    1
    13    10    11   ar
    14    11    12   ar
    15    12    15    1
    16    15    16    1
    17    16    17   am
    18    17    18    2
    19    17    20    1
    20    20    21    1
    21    21    22    1
    22    21    23    1
    23    21    24    1
    24    12    13   ar
    25    13    14   ar
    26     3     4   ar
    27     4     5   ar
    28     5     6   ar
    29     6     7   ar
    30     7     8   ar
    31     8     9   ar
    32    29    30   ar
    33    30    31   ar
    34    31    26   ar
    35     9     1   ar
    36    14    10   ar
    37     9     4   ar
    38    35    36    1
    39    16    19    1
@<TRIPOS>MOLECULE
*****
 36 39 0 0 0
SMALL
GASTEIGER

@<TRIPOS>ATOM
      1 N          -0.0395    2.1903   23.7630 N.ar    1  UNL1       -0.2463
      2 N           0.5651    1.3253   24.8289 N.ar    1  UNL1       -0.1641
      3 C          -0.1732    1.5831   26.1090 C.ar    1  UNL1        0.1581
      4 C          -1.2339    2.6075   25.8342 C.ar    1  UNL1        0.0413
      5 C          -2.2643    3.2470   26.7169 C.ar    1  UNL1        0.0032
      6 C          -3.2121    4.2618   26.1496 C.ar    1  UNL1        0.0001
      7 C          -3.1295    4.6371   24.6997 C.ar    1  UNL1        0.0015
      8 C          -2.0991    3.9976   23.8170 C.ar    1  UNL1        0.0188
      9 C          -1.1513    2.9828   24.3842 C.ar    1  UNL1        0.0799
     10 C           0.1012    0.9311   27.4317 C.ar    1  UNL1        0.2792
     11 N           1.4510    0.5520   27.9648 N.ar    1  UNL1       -0.1880
     12 C           1.2579   -0.0698   29.3161 C.ar    1  UNL1        0.2007
     13 N          -0.2114   -0.0749   29.6182 N.ar    1  UNL1       -0.0584
     14 O          -0.9263    0.5436   28.4536 O.2     1  UNL1       -0.3310
     15 C           2.3434   -0.5942   30.2086 C.3     1  UNL1        0.1621
     16 N           2.8402    0.2376   31.3538 N.am    1  UNL1       -0.2634
     17 C           3.5410   -0.4165   32.5074 C.2     1  UNL1        0.4017
     18 O           3.7450   -1.9026   32.5159 O.2     1  UNL1       -0.2264
     19 H           2.7062    1.2130   31.3482 H       1  UNL1        0.1532
     20 O           4.0377    0.4153   33.6526 O.3     1  UNL1       -0.4419
     21 C           5.3785    0.1291   34.2613 C.3     1  UNL1        0.1378
     22 C           4.7060   -0.4659   35.4627 C.3     1  UNL1        0.0437
     23 C           6.0509    0.7242   33.0598 C.3     1  UNL1        0.0437
     24 C           6.7192   -0.1570   34.8699 C.3     1  UNL1        0.0437
     25 C           0.3921    2.2521   22.3277 C.3     1  UNL1        0.1538
     26 C           2.6962   -1.1655   20.5219 C.ar    1  UNL1        0.0503
     27 C           3.3394   -0.2914   21.5573 C.ar    1  UNL1        0.0144
     28 C           2.5715    0.8478   22.1593 C.ar    1  UNL1       -0.0011
     29 C           1.1602    1.1128   21.7258 C.ar    1  UNL1        0.0022
     30 C           0.5169    0.2387   20.6903 C.ar    1  UNL1       -0.0011
     31 C           1.2849   -0.9005   20.0884 C.ar    1  UNL1        0.0144
     32 C           5.2101   -3.1869   18.2100 C.3     1  UNL1        0.0949
     33 C           4.4421   -2.0476   18.8119 C.2     1  UNL1        0.2266
     34 O           4.6519   -0.6513   18.3058 O.2     1  UNL1       -0.2748
     35 N           3.4642   -2.3047   19.9199 N.am    1  UNL1       -0.2839
     36 H           3.3265   -3.2212   20.2521 H       1  UNL1        0.1549
@<TRIPOS>BOND
     1    32    33    1
     2    33    34    2
     3    33    35   am
     4    35    26    1
     5    26    27   ar
     6    27    28   ar
     7    28    29   ar
     8    29    25    1
     9    25     1    1
    10     1     2   ar
    11     2     3   ar
    12     3    10    1
    13    10    11   ar
    14    11    12   ar
    15    12    15    1
    16    15    16    1
    17    16    17   am
    18    17    18    2
    19    17    20    1
    20    20    21    1
    21    21    22    1
    22    21    23    1
    23    21    24    1
    24    12    13   ar
    25    13    14   ar
    26     3     4   ar
    27     4     5   ar
    28     5     6   ar
    29     6     7   ar
    30     7     8   ar
    31     8     9   ar
    32    29    30   ar
    33    30    31   ar
    34    31    26   ar
    35     9     1   ar
    36    14    10   ar
    37     9     4   ar
    38    35    36    1
    39    16    19    1
@<TRIPOS>MOLECULE
*****
 36 39 0 0 0
SMALL
GASTEIGER

@<TRIPOS>ATOM
      1 N           7.7070   -3.4955   25.2144 N.ar    1  UNL1       -0.2463
      2 N           7.4106   -3.2460   26.6635 N.ar    1  UNL1       -0.1641
      3 C           7.4260   -4.5671   27.3738 C.ar    1  UNL1        0.1581
      4 C           7.7319   -5.6330   26.3637 C.ar    1  UNL1        0.0413
      5 C           7.8747   -7.1211   26.4868 C.ar    1  UNL1        0.0032
      6 C           8.1911   -7.9469   25.2753 C.ar    1  UNL1        0.0001
      7 C           8.3648   -7.2846   23.9407 C.ar    1  UNL1        0.0015
      8 C           8.2220   -5.7965   23.8176 C.ar    1  UNL1        0.0188
      9 C           7.9055   -4.9707   25.0291 C.ar    1  UNL1        0.0799
     10 C           7.1789   -4.7841   28.8373 C.ar    1  UNL1        0.2792
     11 N           6.8729   -3.7184   29.8474 N.ar    1  UNL1       -0.1880
     12 C           6.6993   -4.3806   31.1821 C.ar    1  UNL1        0.2007
     13 N           6.8981   -5.8558   30.9968 N.ar    1  UNL1       -0.0584
     14 O           7.1945   -6.1052   29.5476 O.2     1  UNL1       -0.3310
     15 C           6.3826   -3.6892   32.4749 C.3     1  UNL1        0.1621
     16 N           5.0254   -3.0880   32.6911 N.am    1  UNL1       -0.2634
     17 C           4.8426   -1.6013   32.6132 C.2     1  UNL1        0.4017
     18 O           6.0169   -0.7156   32.3191 O.2     1  UNL1       -0.2264
     19 H           4.2546   -3.6692   32.8842 H       1  UNL1        0.1532
     20 O           3.4854   -1.0001   32.8294 O.3     1  UNL1       -0.4419
     21 C           3.0543    0.1885   32.0223 C.3     1  UNL1        0.1378
     22 C           2.8820   -0.6907   30.8194 C.3     1  UNL1        0.0437
     23 C           3.2266    1.0678   33.2254 C.3     1  UNL1        0.0437
     24 C           2.6232    1.3771   31.2153 C.3     1  UNL1        0.0437
     25 C           7.7902   -2.4528   24.1392 C.3     1  UNL1        0.1538
     26 C           4.2711   -1.7292   21.4295 C.ar    1  UNL1        0.0503
     27 C           4.2364   -2.8557   22.4193 C.ar    1  UNL1        0.0144
     28 C           5.4093   -3.0969   23.3226 C.ar    1  UNL1       -0.0011
     29 C           6.6171   -2.2116   23.2359 C.ar    1  UNL1        0.0022
     30 C           6.6519   -1.0852   22.2461 C.ar    1  UNL1       -0.0011
     31 C           5.4789   -0.8439   21.3428 C.ar    1  UNL1        0.0144
     32 C           0.8379   -0.3021   20.0416 C.3     1  UNL1        0.0949
     33 C           2.0108   -0.5432   20.9449 C.2     1  UNL1        0.2266
     34 O           2.0966    0.1604   22.2668 O.2     1  UNL1       -0.2748
     35 N           3.0981   -1.4881   20.5262 N.am    1  UNL1       -0.2839
     36 H           3.0418   -1.9499   19.6586 H       1  UNL1        0.1549
@<TRIPOS>BOND
     1    32    33    1
     2    33    34    2
     3    33    35   am
     4    35    26    1
     5    26    27   ar
     6    27    28   ar
     7    28    29   ar
     8    29    25    1
     9    25     1    1
    10     1     2   ar
    11     2     3   ar
    12     3    10    1
    13    10    11   ar
    14    11    12   ar
    15    12    15    1
    16    15    16    1
    17    16    17   am
    18    17    18    2
    19    17    20    1
    20    20    21    1
    21    21    22    1
    22    21    23    1
    23    21    24    1
    24    12    13   ar
    25    13    14   ar
    26     3     4   ar
    27     4     5   ar
    28     5     6   ar
    29     6     7   ar
    30     7     8   ar
    31     8     9   ar
    32    29    30   ar
    33    30    31   ar
    34    31    26   ar
    35     9     1   ar
    36    14    10   ar
    37     9     4   ar
    38    35    36    1
    39    16    19    1
@<TRIPOS>MOLECULE
*****
 36 39 0 0 0
SMALL
GASTEIGER

@<TRIPOS>ATOM
      1 N           2.1160    3.1144   29.4958 N.ar    1  UNL1       -0.2463
      2 N           2.8634    1.9571   30.0890 N.ar    1  UNL1       -0.1641
      3 C           2.6120    1.9520   31.5678 C.ar    1  UNL1        0.1581
      4 C           1.7092    3.1062   31.8885 C.ar    1  UNL1        0.0413
      5 C           1.1267    3.5958   33.1811 C.ar    1  UNL1        0.0032
      6 C           0.2377    4.8038   33.1932 C.ar    1  UNL1        0.0001
      7 C          -0.0689    5.5222   31.9126 C.ar    1  UNL1        0.0015
      8 C           0.5136    5.0326   30.6200 C.ar    1  UNL1        0.0188
      9 C           1.4027    3.8246   30.6079 C.ar    1  UNL1        0.0799
     10 C           3.1661    0.9659   32.5529 C.ar    1  UNL1        0.2792
     11 N           3.7261    1.2910   33.9059 N.ar    1  UNL1       -0.1880
     12 C           4.1636    0.0075   34.5472 C.ar    1  UNL1        0.2007
     13 N           3.8739   -1.1109   33.5905 N.ar    1  UNL1       -0.0584
     14 O           3.2574   -0.5186   32.3580 O.2     1  UNL1       -0.3310
     15 C           4.7821   -0.1329   35.9065 C.3     1  UNL1        0.1621
     16 N           3.9188   -0.0823   37.1322 N.am    1  UNL1       -0.2634
     17 C           4.0809    1.0364   38.1180 C.2     1  UNL1        0.4017
     18 O           5.1063    2.1047   37.8783 O.2     1  UNL1       -0.2264
     19 H           3.2459   -0.7834   37.2896 H       1  UNL1        0.1532
     20 O           3.2177    1.0870   39.3438 O.3     1  UNL1       -0.4419
     21 C           1.7903    1.5358   39.2380 C.3     1  UNL1        0.1378
     22 C           2.2511    2.9106   38.8539 C.3     1  UNL1        0.0437
     23 C           1.3296    0.1609   39.6220 C.3     1  UNL1        0.0437
     24 C           0.3630    1.9845   39.1322 C.3     1  UNL1        0.0437
     25 C           2.0870    3.4948   28.0451 C.3     1  UNL1        0.1538
     26 C          -1.8357    3.6909   25.8485 C.ar    1  UNL1        0.0503
     27 C          -1.0415    4.9425   26.0786 C.ar    1  UNL1        0.0144
     28 C           0.2660    4.8772   26.8107 C.ar    1  UNL1       -0.0011
     29 C           0.7794    3.5602   27.3129 C.ar    1  UNL1        0.0022
     30 C          -0.0148    2.3087   27.0828 C.ar    1  UNL1       -0.0011
     31 C          -1.3223    2.3740   26.3507 C.ar    1  UNL1        0.0144
     32 C          -5.7139    4.1318   25.1311 C.3     1  UNL1        0.0949
     33 C          -4.4065    4.0664   25.8633 C.2     1  UNL1        0.2266
     34 O          -4.3622    4.3111   27.3426 O.2     1  UNL1       -0.2748
     35 N          -3.1432    3.7563   25.1164 N.am    1  UNL1       -0.2839
     36 H          -3.1722    3.5957   24.1455 H       1  UNL1        0.1549
@<TRIPOS>BOND
     1    32    33    1
     2    33    34    2
     3    33    35   am
     4    35    26    1
     5    26    27   ar
     6    27    28   ar
     7    28    29   ar
     8    29    25    1
     9    25     1    1
    10     1     2   ar
    11     2     3   ar
    12     3    10    1
    13    10    11   ar
    14    11    12   ar
    15    12    15    1
    16    15    16    1
    17    16    17   am
    18    17    18    2
    19    17    20    1
    20    20    21    1
    21    21    22    1
    22    21    23    1
    23    21    24    1
    24    12    13   ar
    25    13    14   ar
    26     3     4   ar
    27     4     5   ar
    28     5     6   ar
    29     6     7   ar
    30     7     8   ar
    31     8     9   ar
    32    29    30   ar
    33    30    31   ar
    34    31    26   ar
    35     9     1   ar
    36    14    10   ar
    37     9     4   ar
    38    35    36    1
    39    16    19    1
@<TRIPOS>MOLECULE
*****
 36 39 0 0 0
SMALL
GASTEIGER

@<TRIPOS>ATOM
      1 N          -5.4253  -16.6074   23.8959 N.ar    1  UNL1       -0.2463
      2 N          -6.2145  -16.4827   22.6264 N.ar    1  UNL1       -0.1641
      3 C          -7.5753  -15.9576   22.9764 C.ar    1  UNL1        0.1581
      4 C          -7.6270  -15.7577   24.4622 C.ar    1  UNL1        0.0413
      5 C          -8.7124  -15.2619   25.3710 C.ar    1  UNL1        0.0032
      6 C          -8.4690  -15.1678   26.8481 C.ar    1  UNL1        0.0001
      7 C          -7.1402  -15.5694   27.4163 C.ar    1  UNL1        0.0015
      8 C          -6.0548  -16.0652   26.5075 C.ar    1  UNL1        0.0188
      9 C          -6.2982  -16.1594   25.0304 C.ar    1  UNL1        0.0799
     10 C          -8.6889  -15.6809   22.0103 C.ar    1  UNL1        0.2792
     11 N          -9.9206  -16.5158   21.8220 N.ar    1  UNL1       -0.1880
     12 C         -10.7593  -15.8716   20.7582 C.ar    1  UNL1        0.2007
     13 N         -10.0457  -14.6384   20.2891 N.ar    1  UNL1       -0.0584
     14 O          -8.7662  -14.5205   21.0629 O.2     1  UNL1       -0.3310
     15 C         -12.0795  -16.3726   20.2524 C.3     1  UNL1        0.1621
     16 N         -12.7709  -17.5043   20.9535 N.am    1  UNL1       -0.2634
     17 C         -13.2294  -17.3396   22.3720 C.2     1  UNL1        0.4017
     18 O         -12.9966  -16.0432   23.0898 O.2     1  UNL1       -0.2264
     19 H         -12.9236  -18.3552   20.4824 H       1  UNL1        0.1532
     20 O         -13.9207  -18.4713   23.0731 O.3     1  UNL1       -0.4419
     21 C         -14.0086  -18.4843   24.5705 C.3     1  UNL1        0.1378
     22 C         -15.5046  -18.4198   24.4832 C.3     1  UNL1        0.0437
     23 C         -12.5125  -18.5488   24.6576 C.3     1  UNL1        0.0437
     24 C         -14.0963  -18.4973   26.0678 C.3     1  UNL1        0.0437
     25 C          -4.0112  -17.0946   24.0106 C.3     1  UNL1        0.1538
     26 C          -1.6294  -17.9837   20.2976 C.ar    1  UNL1        0.0503
     27 C          -2.4549  -19.0617   20.9352 C.ar    1  UNL1        0.0144
     28 C          -3.2488  -18.7654   22.1728 C.ar    1  UNL1       -0.0011
     29 C          -3.2173  -17.3910   22.7729 C.ar    1  UNL1        0.0022
     30 C          -2.3918  -16.3131   22.1353 C.ar    1  UNL1       -0.0011
     31 C          -1.5978  -16.6094   20.8977 C.ar    1  UNL1        0.0144
     32 C          -0.5267  -18.0958   16.4869 C.3     1  UNL1        0.0949
     33 C          -1.3207  -17.7994   17.7244 C.2     1  UNL1        0.2266
     34 O          -2.6000  -17.0223   17.6267 O.2     1  UNL1       -0.2748
     35 N          -0.8355  -18.2801   19.0599 N.am    1  UNL1       -0.2839
     36 H           0.0041  -18.7902   19.1241 H       1  UNL1        0.1549
@<TRIPOS>BOND
     1    32    33    1
     2    33    34    2
     3    33    35   am
     4    35    26    1
     5    26    27   ar
     6    27    28   ar
     7    28    29   ar
     8    29    25    1
     9    25     1    1
    10     1     2   ar
    11     2     3   ar
    12     3    10    1
    13    10    11   ar
    14    11    12   ar
    15    12    15    1
    16    15    16    1
    17    16    17   am
    18    17    18    2
    19    17    20    1
    20    20    21    1
    21    21    22    1
    22    21    23    1
    23    21    24    1
    24    12    13   ar
    25    13    14   ar
    26     3     4   ar
    27     4     5   ar
    28     5     6   ar
    29     6     7   ar
    30     7     8   ar
    31     8     9   ar
    32    29    30   ar
    33    30    31   ar
    34    31    26   ar
    35     9     1   ar
    36    14    10   ar
    37     9     4   ar
    38    35    36    1
    39    16    19    1
@<TRIPOS>MOLECULE
*****
 36 39 0 0 0
SMALL
GASTEIGER

@<TRIPOS>ATOM
      1 N          -1.1185    3.7188   23.9333 N.ar    1  UNL1       -0.2463
      2 N          -0.0643    2.8096   23.3747 N.ar    1  UNL1       -0.1641
      3 C          -0.4365    2.4833   21.9588 C.ar    1  UNL1        0.1581
      4 C          -1.7207    3.1907   21.6422 C.ar    1  UNL1        0.0413
      5 C          -2.5607    3.2383   20.4004 C.ar    1  UNL1        0.0032
      6 C          -3.8223    4.0494   20.3790 C.ar    1  UNL1        0.0001
      7 C          -4.2438    4.8130   21.5993 C.ar    1  UNL1        0.0015
      8 C          -3.4038    4.7654   22.8411 C.ar    1  UNL1        0.0188
      9 C          -2.1423    3.9543   22.8625 C.ar    1  UNL1        0.0799
     10 C           0.3394    1.6039   21.0235 C.ar    1  UNL1        0.2792
     11 N           1.6178    1.9673   20.3282 N.ar    1  UNL1       -0.1880
     12 C           2.0416    0.7947   19.4943 C.ar    1  UNL1        0.2007
     13 N           1.0250   -0.2935   19.6743 N.ar    1  UNL1       -0.0584
     14 O          -0.0270    0.2066   20.6194 O.2     1  UNL1       -0.3310
     15 C           3.2668    0.7229   18.6320 C.3     1  UNL1        0.1621
     16 N           4.1940   -0.4512   18.7424 N.am    1  UNL1       -0.2634
     17 C           4.4402   -1.3272   17.5500 C.2     1  UNL1        0.4017
     18 O           3.7593   -1.0293   16.2471 O.2     1  UNL1       -0.2264
     19 H           4.6409   -0.6467   19.5975 H       1  UNL1        0.1532
     20 O           5.3674   -2.5012   17.6605 O.3     1  UNL1       -0.4419
     21 C           5.5611   -3.1822   18.9829 C.3     1  UNL1        0.1378
     22 C           4.2270   -3.8514   18.8336 C.3     1  UNL1        0.0437
     23 C           6.8952   -2.5129   19.1320 C.3     1  UNL1        0.0437
     24 C           5.7548   -3.8632   20.3052 C.3     1  UNL1        0.0437
     25 C          -1.1445    4.2918   25.3193 C.3     1  UNL1        0.1538
     26 C           0.6327    1.9770   28.7447 C.ar    1  UNL1        0.0503
     27 C           1.2661    3.2614   28.2988 C.ar    1  UNL1        0.0144
     28 C           0.6738    4.0331   27.1570 C.ar    1  UNL1       -0.0011
     29 C          -0.5521    3.5201   26.4611 C.ar    1  UNL1        0.0022
     30 C          -1.1855    2.2357   26.9071 C.ar    1  UNL1       -0.0011
     31 C          -0.5932    1.4640   28.0488 C.ar    1  UNL1        0.0144
     32 C           2.6899   -0.7558   30.7571 C.3     1  UNL1        0.0949
     33 C           2.0975    0.0157   29.6153 C.2     1  UNL1        0.2266
     34 O           2.3775   -0.4024   28.2022 O.2     1  UNL1       -0.2748
     35 N           1.2251    1.2054   29.8865 N.am    1  UNL1       -0.2839
     36 H           1.0413    1.4798   30.8139 H       1  UNL1        0.1549
@<TRIPOS>BOND
     1    32    33    1
     2    33    34    2
     3    33    35   am
     4    35    26    1
     5    26    27   ar
     6    27    28   ar
     7    28    29   ar
     8    29    25    1
     9    25     1    1
    10     1     2   ar
    11     2     3   ar
    12     3    10    1
    13    10    11   ar
    14    11    12   ar
    15    12    15    1
    16    15    16    1
    17    16    17   am
    18    17    18    2
    19    17    20    1
    20    20    21    1
    21    21    22    1
    22    21    23    1
    23    21    24    1
    24    12    13   ar
    25    13    14   ar
    26     3     4   ar
    27     4     5   ar
    28     5     6   ar
    29     6     7   ar
    30     7     8   ar
    31     8     9   ar
    32    29    30   ar
    33    30    31   ar
    34    31    26   ar
    35     9     1   ar
    36    14    10   ar
    37     9     4   ar
    38    35    36    1
    39    16    19    1
@<TRIPOS>MOLECULE
*****
 36 39 0 0 0
SMALL
GASTEIGER

@<TRIPOS>ATOM
      1 N           6.6218   -3.7554   30.1251 N.ar    1  UNL1       -0.2463
      2 N           6.0236   -2.6054   29.3704 N.ar    1  UNL1       -0.1641
      3 C           6.0282   -2.9556   27.9119 C.ar    1  UNL1        0.1581
      4 C           6.6292   -4.3221   27.7652 C.ar    1  UNL1        0.0413
      5 C           6.8898   -5.1802   26.5628 C.ar    1  UNL1        0.0032
      6 C           7.5173   -6.5325   26.7283 C.ar    1  UNL1        0.0001
      7 C           7.8841   -7.0268   28.0962 C.ar    1  UNL1        0.0015
      8 C           7.6235   -6.1687   29.2986 C.ar    1  UNL1        0.0188
      9 C           6.9961   -4.8164   29.1331 C.ar    1  UNL1        0.0799
     10 C           5.5208   -2.0912   26.7959 C.ar    1  UNL1        0.2792
     11 N           4.1705   -1.4417   26.7278 N.ar    1  UNL1       -0.1880
     12 C           4.0898   -0.6736   25.4419 C.ar    1  UNL1        0.2007
     13 N           5.3904   -0.8484   24.7153 N.ar    1  UNL1       -0.0584
     14 O           6.2748   -1.7245   25.5521 O.2     1  UNL1       -0.3310
     15 C           2.9150    0.1284   24.9662 C.3     1  UNL1        0.1621
     16 N           1.8021    0.4635   25.9145 N.am    1  UNL1       -0.2634
     17 C           2.0645    1.3500   27.0956 C.2     1  UNL1        0.4017
     18 O           3.4398    1.9016   27.3285 O.2     1  UNL1       -0.2264
     19 H           0.8994    0.1015   25.7617 H       1  UNL1        0.1532
     20 O           0.9516    1.6851   28.0439 O.3     1  UNL1       -0.4419
     21 C          -0.0730    0.6472   28.3947 C.3     1  UNL1        0.1378
     22 C          -1.1180    1.4290   27.6553 C.3     1  UNL1        0.0437
     23 C           0.9721   -0.1345   29.1340 C.3     1  UNL1        0.0437
     24 C          -1.0975   -0.3907   28.7454 C.3     1  UNL1        0.0437
     25 C           6.8123   -3.8311   31.6110 C.3     1  UNL1        0.1538
     26 C           5.1241   -0.6111   34.2629 C.ar    1  UNL1        0.0503
     27 C           6.4986   -0.4600   33.6816 C.ar    1  UNL1        0.0144
     28 C           7.0614   -1.5333   32.7977 C.ar    1  UNL1       -0.0011
     29 C           6.2495   -2.7577   32.4950 C.ar    1  UNL1        0.0022
     30 C           4.8750   -2.9088   33.0762 C.ar    1  UNL1       -0.0011
     31 C           4.3122   -1.8356   33.9602 C.ar    1  UNL1        0.0144
     32 C           2.9539    2.4723   35.5009 C.3     1  UNL1        0.0949
     33 C           3.5165    1.3990   34.6170 C.2     1  UNL1        0.2266
     34 O           3.0343    1.2624   33.2032 O.2     1  UNL1       -0.2748
     35 N           4.5614    0.4622   35.1468 N.am    1  UNL1       -0.2839
     36 H           4.8779    0.5518   36.0747 H       1  UNL1        0.1549
@<TRIPOS>BOND
     1    32    33    1
     2    33    34    2
     3    33    35   am
     4    35    26    1
     5    26    27   ar
     6    27    28   ar
     7    28    29   ar
     8    29    25    1
     9    25     1    1
    10     1     2   ar
    11     2     3   ar
    12     3    10    1
    13    10    11   ar
    14    11    12   ar
    15    12    15    1
    16    15    16    1
    17    16    17   am
    18    17    18    2
    19    17    20    1
    20    20    21    1
    21    21    22    1
    22    21    23    1
    23    21    24    1
    24    12    13   ar
    25    13    14   ar
    26     3     4   ar
    27     4     5   ar
    28     5     6   ar
    29     6     7   ar
    30     7     8   ar
    31     8     9   ar
    32    29    30   ar
    33    30    31   ar
    34    31    26   ar
    35     9     1   ar
    36    14    10   ar
    37     9     4   ar
    38    35    36    1
    39    16    19    1
@<TRIPOS>MOLECULE
*****
 36 39 0 0 0
SMALL
GASTEIGER

@<TRIPOS>ATOM
      1 N           4.4105   -0.1597   20.2229 N.ar    1  UNL1       -0.2463
      2 N           4.5732    0.1519   21.6811 N.ar    1  UNL1       -0.1641
      3 C           4.5437   -1.1429   22.4378 C.ar    1  UNL1        0.1581
      4 C           4.3628   -2.2547   21.4473 C.ar    1  UNL1        0.0413
      5 C           4.2624   -3.7419   21.6150 C.ar    1  UNL1        0.0032
      6 C           4.0797   -4.6214   20.4138 C.ar    1  UNL1        0.0001
      7 C           3.9974   -4.0138   19.0448 C.ar    1  UNL1        0.0015
      8 C           4.0978   -2.5266   18.8771 C.ar    1  UNL1        0.0188
      9 C           4.2805   -1.6471   20.0784 C.ar    1  UNL1        0.0799
     10 C           4.6724   -1.2986   23.9242 C.ar    1  UNL1        0.2792
     11 N           3.5891   -1.0573   24.9331 N.ar    1  UNL1       -0.1880
     12 C           4.1542   -1.3325   26.2950 C.ar    1  UNL1        0.2007
     13 N           5.5870   -1.7438   26.1277 N.ar    1  UNL1       -0.0584
     14 O           5.9073   -1.7229   24.6625 O.2     1  UNL1       -0.3310
     15 C           3.4163   -1.2167   27.5957 C.3     1  UNL1        0.1621
     16 N           2.1359   -0.4383   27.6650 N.am    1  UNL1       -0.2634
     17 C           1.4590   -0.2240   28.9862 C.2     1  UNL1        0.4017
     18 O           2.0623   -0.7880   30.2383 O.2     1  UNL1       -0.2264
     19 H           1.7398   -0.0681   26.8432 H       1  UNL1        0.1532
     20 O           0.1785    0.5544   29.0554 O.3     1  UNL1       -0.4419
     21 C           0.1144    1.9442   28.4947 C.3     1  UNL1        0.1378
     22 C          -0.8246    1.4696   27.4256 C.3     1  UNL1        0.0437
     23 C           1.0534    2.4188   29.5639 C.3     1  UNL1        0.0437
     24 C           0.0503    3.3340   27.9341 C.3     1  UNL1        0.0437
     25 C           4.3827    0.8404   19.1053 C.3     1  UNL1        0.1538
     26 C           0.6020    3.1115   18.2117 C.ar    1  UNL1        0.0503
     27 C           0.5748    1.6142   18.2985 C.ar    1  UNL1        0.0144
     28 C           1.8350    0.8572   18.5964 C.ar    1  UNL1       -0.0011
     29 C           3.1224    1.5974   18.8074 C.ar    1  UNL1        0.0022
     30 C           3.1496    3.0947   18.7206 C.ar    1  UNL1       -0.0011
     31 C           1.8894    3.8517   18.4227 C.ar    1  UNL1        0.0144
     32 C          -2.9815    4.7553   18.6662 C.3     1  UNL1        0.0949
     33 C          -1.7213    3.9983   18.9641 C.2     1  UNL1        0.2266
     34 O          -1.5240    3.3712   20.3124 O.2     1  UNL1       -0.2748
     35 N          -0.6583    3.8684   17.9138 N.am    1  UNL1       -0.2839
     36 H          -0.7877    4.2800   17.0289 H       1  UNL1        0.1549
@<TRIPOS>BOND
     1    32    33    1
     2    33    34    2
     3    33    35   am
     4    35    26    1
     5    26    27   ar
     6    27    28   ar
     7    28    29   ar
     8    29    25    1
     9    25     1    1
    10     1     2   ar
    11     2     3   ar
    12     3    10    1
    13    10    11   ar
    14    11    12   ar
    15    12    15    1
    16    15    16    1
    17    16    17   am
    18    17    18    2
    19    17    20    1
    20    20    21    1
    21    21    22    1
    22    21    23    1
    23    21    24    1
    24    12    13   ar
    25    13    14   ar
    26     3     4   ar
    27     4     5   ar
    28     5     6   ar
    29     6     7   ar
    30     7     8   ar
    31     8     9   ar
    32    29    30   ar
    33    30    31   ar
    34    31    26   ar
    35     9     1   ar
    36    14    10   ar
    37     9     4   ar
    38    35    36    1
    39    16    19    1
@<TRIPOS>MOLECULE
*****
 36 39 0 0 0
SMALL
GASTEIGER

@<TRIPOS>ATOM
      1 N          -2.0656    3.2864   25.2931 N.ar    1  UNL1       -0.2463
      2 N          -0.9896    3.0669   24.2714 N.ar    1  UNL1       -0.1641
      3 C          -1.6099    3.1899   22.9112 C.ar    1  UNL1        0.1581
      4 C          -3.0694    3.4853   23.0923 C.ar    1  UNL1        0.0413
      5 C          -4.1782    3.7077   22.1069 C.ar    1  UNL1        0.0032
      6 C          -5.5687    3.9897   22.5937 C.ar    1  UNL1        0.0001
      7 C          -5.8503    4.0494   24.0658 C.ar    1  UNL1        0.0015
      8 C          -4.7415    3.8270   25.0512 C.ar    1  UNL1        0.0188
      9 C          -3.3510    3.5450   24.5644 C.ar    1  UNL1        0.0799
     10 C          -0.8962    3.0431   21.6001 C.ar    1  UNL1        0.2792
     11 N          -0.3694    1.7635   21.0214 N.ar    1  UNL1       -0.1880
     12 C           0.2685    2.0797   19.7011 C.ar    1  UNL1        0.2007
     13 N           0.1358    3.5549   19.4638 N.ar    1  UNL1       -0.0584
     14 O          -0.5840    4.1503   20.6375 O.2     1  UNL1       -0.3310
     15 C           0.9238    1.0940   18.7799 C.3     1  UNL1        0.1621
     16 N           1.9061    0.0986   19.3225 N.am    1  UNL1       -0.2634
     17 C           3.3732    0.2765   19.0663 C.2     1  UNL1        0.4017
     18 O           3.8583    1.4497   18.2675 O.2     1  UNL1       -0.2264
     19 H           1.5878   -0.6715   19.8468 H       1  UNL1        0.1532
     20 O           4.3555   -0.7189   19.6089 O.3     1  UNL1       -0.4419
     21 C           4.1783   -2.1806   19.3220 C.3     1  UNL1        0.1378
     22 C           3.8679   -2.4269   20.7687 C.3     1  UNL1        0.0437
     23 C           4.4887   -1.9341   17.8753 C.3     1  UNL1        0.0437
     24 C           4.0011   -3.6421   19.0350 C.3     1  UNL1        0.0437
     25 C          -1.8876    3.2532   26.7821 C.3     1  UNL1        0.1538
     26 C           1.2104    0.5546   28.6180 C.ar    1  UNL1        0.0503
     27 C           1.6238    1.8524   27.9896 C.ar    1  UNL1        0.0144
     28 C           0.5912    2.7519   27.3776 C.ar    1  UNL1       -0.0011
     29 C          -0.8548    2.3536   27.3941 C.ar    1  UNL1        0.0022
     30 C          -1.2682    1.0559   28.0226 C.ar    1  UNL1       -0.0011
     31 C          -0.2356    0.1564   28.6345 C.ar    1  UNL1        0.0144
     32 C           3.6149   -1.1156   31.2974 C.3     1  UNL1        0.0949
     33 C           2.5822   -0.2161   30.6855 C.2     1  UNL1        0.2266
     34 O           1.8886    0.8121   31.5291 O.2     1  UNL1       -0.2748
     35 N           2.2431   -0.3448   29.2300 N.am    1  UNL1       -0.2839
     36 H           2.6983   -1.0197   28.6763 H       1  UNL1        0.1549
@<TRIPOS>BOND
     1    32    33    1
     2    33    34    2
     3    33    35   am
     4    35    26    1
     5    26    27   ar
     6    27    28   ar
     7    28    29   ar
     8    29    25    1
     9    25     1    1
    10     1     2   ar
    11     2     3   ar
    12     3    10    1
    13    10    11   ar
    14    11    12   ar
    15    12    15    1
    16    15    16    1
    17    16    17   am
    18    17    18    2
    19    17    20    1
    20    20    21    1
    21    21    22    1
    22    21    23    1
    23    21    24    1
    24    12    13   ar
    25    13    14   ar
    26     3     4   ar
    27     4     5   ar
    28     5     6   ar
    29     6     7   ar
    30     7     8   ar
    31     8     9   ar
    32    29    30   ar
    33    30    31   ar
    34    31    26   ar
    35     9     1   ar
    36    14    10   ar
    37     9     4   ar
    38    35    36    1
    39    16    19    1
