@<TRIPOS>MOLECULE
*****
 33 36 0 0 0
SMALL
GASTEIGER

@<TRIPOS>ATOM
      1 C           4.0535   -1.2381   18.7283 C.ar    1  UNL1        0.1432
      2 C           5.4180   -1.5434   18.1853 C.ar    1  UNL1        0.0384
      3 C           6.2205   -0.4633   17.5225 C.ar    1  UNL1        0.0215
      4 C           5.6585    0.9223   17.4027 C.ar    1  UNL1        0.1061
      5 C           4.2939    1.2276   17.9457 C.ar    1  UNL1        0.0259
      6 C           3.4914    0.1475   18.6086 C.ar    1  UNL1        0.0888
      7 C           2.1270    0.4529   19.1516 C.2     1  UNL1        0.2525
      8 O           0.9607    0.5863   18.2177 O.2     1  UNL1       -0.2698
      9 N           1.9287    0.6250   20.6284 N.am    1  UNL1       -0.2660
     10 C           2.9943    0.5212   21.6790 C.3     1  UNL1        0.1236
     11 C           2.3542    0.7631   23.0139 C.ar    1  UNL1        0.0338
     12 C           2.6171    0.8485   24.4882 C.ar    1  UNL1        0.0990
     13 N           1.3185    1.1546   25.1737 N.ar    1  UNL1       -0.2287
     14 N           0.2530    1.2584   24.1230 N.ar    1  UNL1       -0.1680
     15 C           0.8931    1.0165   22.7882 C.ar    1  UNL1        0.0981
     16 C           0.6301    0.9311   21.3139 C.3     1  UNL1        0.1414
     17 C           1.1203    1.3267   26.6505 C.ar    1  UNL1        0.0828
     18 C           2.2389    1.8507   27.5014 C.ar    1  UNL1        0.0191
     19 C           2.0407    2.0228   28.9783 C.ar    1  UNL1        0.0015
     20 C           0.7238    1.6709   29.6042 C.ar    1  UNL1        0.0001
     21 C          -0.3949    1.1468   28.7533 C.ar    1  UNL1        0.0015
     22 C          -0.1967    0.9747   27.2765 C.ar    1  UNL1        0.0191
     23 S           6.4609    2.0024   16.7399 S.O2    1  UNL1        0.0105
     24 C           7.2634    3.0825   16.0771 C.3     1  UNL1        0.1816
     25 O           7.2846    0.9617   16.0410 O.2     1  UNL1       -0.1686
     26 O           5.6372    3.0432   17.4388 O.2     1  UNL1       -0.1686
     27 O           3.2511   -2.3182   19.3911 O.3     1  UNL1       -0.4702
     28 C           4.2865   -3.3130   21.5564 C.3     1  UNL1        0.0566
     29 C           3.9472   -3.4414   20.1009 C.3     1  UNL1        0.2599
     30 C           4.3041   -4.6930   19.3551 C.3     1  UNL1        0.4340
     31 F           4.6611   -5.9445   18.6094 F       1  UNL1       -0.1664
     32 F           5.7445   -4.5053   19.7293 F       1  UNL1       -0.1664
     33 F           2.8637   -4.8808   18.9809 F       1  UNL1       -0.1664
@<TRIPOS>BOND
     1    29    28    1
     2    29    27    1
     3    27     1    1
     4     1     2   ar
     5     2     3   ar
     6     3     4   ar
     7     4    23    1
     8    23    24    1
     9    23    25    2
    10    23    26    2
    11     4     5   ar
    12     5     6   ar
    13     6     7    1
    14     7     8    2
    15     7     9   am
    16     9    10    1
    17    10    11    1
    18    11    12   ar
    19    12    13   ar
    20    13    17    1
    21    17    18   ar
    22    18    19   ar
    23    19    20   ar
    24    20    21   ar
    25    21    22   ar
    26    13    14   ar
    27    14    15   ar
    28    15    16    1
    29    29    30    1
    30    30    31    1
    31    30    32    1
    32    30    33    1
    33     6     1   ar
    34    16     9    1
    35    15    11   ar
    36    22    17   ar
@<TRIPOS>MOLECULE
*****
 33 36 0 0 0
SMALL
GASTEIGER

@<TRIPOS>ATOM
      1 C           2.9743    1.3680   18.3456 C.ar    1  UNL1        0.1432
      2 C           2.7921    2.8339   18.6058 C.ar    1  UNL1        0.0384
      3 C           3.9314    3.7831   18.3799 C.ar    1  UNL1        0.0215
      4 C           5.2530    3.2663   17.8938 C.ar    1  UNL1        0.1061
      5 C           5.4352    1.8003   17.6336 C.ar    1  UNL1        0.0259
      6 C           4.2959    0.8511   17.8594 C.ar    1  UNL1        0.0888
      7 C           4.4782   -0.6148   17.5992 C.2     1  UNL1        0.2525
      8 O           4.0077   -1.2111   16.3057 O.2     1  UNL1       -0.2698
      9 N           5.1310   -1.4845   18.6324 N.am    1  UNL1       -0.2660
     10 C           5.6494   -1.0325   19.9654 C.3     1  UNL1        0.1236
     11 C           6.2188   -2.2275   20.6708 C.ar    1  UNL1        0.0338
     12 C           6.8911   -2.6867   21.9306 C.ar    1  UNL1        0.0990
     13 N           7.1402   -4.1612   21.8122 N.ar    1  UNL1       -0.2287
     14 N           6.6218   -4.6132   20.4791 N.ar    1  UNL1       -0.1680
     15 C           6.0524   -3.4182   19.7737 C.ar    1  UNL1        0.0981
     16 C           5.3801   -2.9590   18.5139 C.3     1  UNL1        0.1414
     17 C           7.7930   -5.0308   22.8453 C.ar    1  UNL1        0.0828
     18 C           7.3981   -4.9080   24.2871 C.ar    1  UNL1        0.0191
     19 C           8.0509   -5.7777   25.3204 C.ar    1  UNL1        0.0015
     20 C           9.0986   -6.7703   24.9117 C.ar    1  UNL1        0.0001
     21 C           9.4935   -6.8931   23.4698 C.ar    1  UNL1        0.0015
     22 C           8.8408   -6.0235   22.4366 C.ar    1  UNL1        0.0191
     23 S           6.3924    4.2155   17.6679 S.O2    1  UNL1        0.0105
     24 C           7.5317    5.1646   17.4421 C.3     1  UNL1        0.1816
     25 O           6.6631    4.2415   19.1430 O.2     1  UNL1       -0.1686
     26 O           6.1215    4.1894   16.1927 O.2     1  UNL1       -0.1686
     27 O           1.8350    0.4188   18.5714 O.3     1  UNL1       -0.4702
     28 C           0.0593    0.7578   20.4374 C.3     1  UNL1        0.0566
     29 C           1.3468    0.1509   19.9643 C.3     1  UNL1        0.2599
     30 C           2.1463   -0.7238   20.8838 C.3     1  UNL1        0.4340
     31 F           2.9458   -1.5985   21.8035 F       1  UNL1       -0.1664
     32 F           2.0909    0.3380   21.9420 F       1  UNL1       -0.1664
     33 F           2.2017   -1.7856   19.8258 F       1  UNL1       -0.1664
@<TRIPOS>BOND
     1    29    28    1
     2    29    27    1
     3    27     1    1
     4     1     2   ar
     5     2     3   ar
     6     3     4   ar
     7     4    23    1
     8    23    24    1
     9    23    25    2
    10    23    26    2
    11     4     5   ar
    12     5     6   ar
    13     6     7    1
    14     7     8    2
    15     7     9   am
    16     9    10    1
    17    10    11    1
    18    11    12   ar
    19    12    13   ar
    20    13    17    1
    21    17    18   ar
    22    18    19   ar
    23    19    20   ar
    24    20    21   ar
    25    21    22   ar
    26    13    14   ar
    27    14    15   ar
    28    15    16    1
    29    29    30    1
    30    30    31    1
    31    30    32    1
    32    30    33    1
    33     6     1   ar
    34    16     9    1
    35    15    11   ar
    36    22    17   ar
@<TRIPOS>MOLECULE
*****
 33 36 0 0 0
SMALL
GASTEIGER

@<TRIPOS>ATOM
      1 C           2.7050   -0.9142   20.8538 C.ar    1  UNL1        0.1432
      2 C           1.3149   -0.9393   20.2908 C.ar    1  UNL1        0.0384
      3 C           0.3673    0.1864   20.5820 C.ar    1  UNL1        0.0215
      4 C           0.8098    1.3373   21.4362 C.ar    1  UNL1        0.1061
      5 C           2.2000    1.3624   21.9992 C.ar    1  UNL1        0.0259
      6 C           3.1476    0.2367   21.7080 C.ar    1  UNL1        0.0888
      7 C           4.5377    0.2619   22.2710 C.2     1  UNL1        0.2525
      8 O           5.6772    0.7615   21.4333 O.2     1  UNL1       -0.2698
      9 N           4.7882   -0.2126   23.6718 N.am    1  UNL1       -0.2660
     10 C           3.7539   -0.7366   24.6234 C.3     1  UNL1        0.1236
     11 C           4.4436   -1.0942   25.9066 C.ar    1  UNL1        0.0338
     12 C           4.2306   -1.6390   27.2878 C.ar    1  UNL1        0.0990
     13 N           5.5595   -1.6728   27.9829 N.ar    1  UNL1       -0.2287
     14 N           6.5938   -1.1487   27.0311 N.ar    1  UNL1       -0.1680
     15 C           5.9041   -0.7912   25.7480 C.ar    1  UNL1        0.0981
     16 C           6.1171   -0.2463   24.3668 C.3     1  UNL1        0.1414
     17 C           5.8101   -2.1472   29.3835 C.ar    1  UNL1        0.0828
     18 C           6.5589   -3.4252   29.6199 C.ar    1  UNL1        0.0191
     19 C           6.8096   -3.8997   31.0206 C.ar    1  UNL1        0.0015
     20 C           6.3113   -3.0961   32.1851 C.ar    1  UNL1        0.0001
     21 C           5.5624   -1.8180   31.9488 C.ar    1  UNL1        0.0015
     22 C           5.3118   -1.3436   30.5481 C.ar    1  UNL1        0.0191
     23 S          -0.1378    2.4630   21.7274 S.O2    1  UNL1        0.0105
     24 C          -1.0854    3.5887   22.0186 C.3     1  UNL1        0.1816
     25 O          -1.0546    1.9707   20.6471 O.2     1  UNL1       -0.1686
     26 O           0.7790    2.9553   22.8078 O.2     1  UNL1       -0.1686
     27 O           3.6526   -2.0399   20.5626 O.3     1  UNL1       -0.4702
     28 C           4.2367   -1.1910   18.1776 C.3     1  UNL1        0.0566
     29 C           4.0718   -2.3211   19.1501 C.3     1  UNL1        0.2599
     30 C           4.3260   -3.7323   18.7101 C.3     1  UNL1        0.4340
     31 F           4.5803   -5.1436   18.2700 F       1  UNL1       -0.1664
     32 F           5.5596   -3.2838   17.9841 F       1  UNL1       -0.1664
     33 F           3.0924   -4.1810   19.4360 F       1  UNL1       -0.1664
@<TRIPOS>BOND
     1    29    28    1
     2    29    27    1
     3    27     1    1
     4     1     2   ar
     5     2     3   ar
     6     3     4   ar
     7     4    23    1
     8    23    24    1
     9    23    25    2
    10    23    26    2
    11     4     5   ar
    12     5     6   ar
    13     6     7    1
    14     7     8    2
    15     7     9   am
    16     9    10    1
    17    10    11    1
    18    11    12   ar
    19    12    13   ar
    20    13    17    1
    21    17    18   ar
    22    18    19   ar
    23    19    20   ar
    24    20    21   ar
    25    21    22   ar
    26    13    14   ar
    27    14    15   ar
    28    15    16    1
    29    29    30    1
    30    30    31    1
    31    30    32    1
    32    30    33    1
    33     6     1   ar
    34    16     9    1
    35    15    11   ar
    36    22    17   ar
@<TRIPOS>MOLECULE
*****
 33 36 0 0 0
SMALL
GASTEIGER

@<TRIPOS>ATOM
      1 C          -2.1128    3.7455   23.6582 C.ar    1  UNL1        0.1432
      2 C          -3.5594    3.5819   24.0196 C.ar    1  UNL1        0.0384
      3 C          -4.6033    3.5570   22.9427 C.ar    1  UNL1        0.0215
      4 C          -4.2006    3.6957   21.5044 C.ar    1  UNL1        0.1061
      5 C          -2.7540    3.8594   21.1431 C.ar    1  UNL1        0.0259
      6 C          -1.7101    3.8843   22.2199 C.ar    1  UNL1        0.0888
      7 C          -0.2635    4.0480   21.8585 C.2     1  UNL1        0.2525
      8 O           0.3942    5.3900   21.9862 O.2     1  UNL1       -0.2698
      9 N           0.5253    2.8696   21.3695 N.am    1  UNL1       -0.2660
     10 C           0.0061    1.4737   21.1912 C.3     1  UNL1        0.1236
     11 C           1.1318    0.6217   20.6843 C.ar    1  UNL1        0.0338
     12 C           1.5066   -0.7677   20.2609 C.ar    1  UNL1        0.0990
     13 N           2.9532   -0.7570   19.8642 N.ar    1  UNL1       -0.2287
     14 N           3.4724    0.6390   20.0425 N.ar    1  UNL1       -0.1680
     15 C           2.3467    1.4910   20.5494 C.ar    1  UNL1        0.0981
     16 C           1.9719    2.8803   20.9728 C.3     1  UNL1        0.1414
     17 C           3.7420   -1.9353   19.3752 C.ar    1  UNL1        0.0828
     18 C           5.0334   -1.7215   18.6426 C.ar    1  UNL1        0.0191
     19 C           5.8223   -2.8999   18.1535 C.ar    1  UNL1        0.0015
     20 C           5.3198   -4.2920   18.3970 C.ar    1  UNL1        0.0001
     21 C           4.0283   -4.5059   19.1296 C.ar    1  UNL1        0.0015
     22 C           3.2395   -3.3276   19.6187 C.ar    1  UNL1        0.0191
     23 S          -5.2445    3.6708   20.4276 S.O2    1  UNL1        0.0105
     24 C          -6.2884    3.6458   19.3507 C.3     1  UNL1        0.1816
     25 O          -6.3073    3.9391   21.4516 O.2     1  UNL1       -0.1686
     26 O          -4.1817    3.4024   19.4036 O.2     1  UNL1       -0.1686
     27 O          -1.0689    3.7705   24.7351 O.3     1  UNL1       -0.4702
     28 C           0.4005    1.6291   24.6602 C.3     1  UNL1        0.0566
     29 C          -0.6083    2.4884   25.3630 C.3     1  UNL1        0.2599
     30 C          -1.1565    2.0658   26.6937 C.3     1  UNL1        0.4340
     31 F          -1.7048    1.6432   28.0244 F       1  UNL1       -0.1664
     32 F          -1.7546    3.4288   26.8802 F       1  UNL1       -0.1664
     33 F          -0.5585    0.7029   26.5073 F       1  UNL1       -0.1664
@<TRIPOS>BOND
     1    29    28    1
     2    29    27    1
     3    27     1    1
     4     1     2   ar
     5     2     3   ar
     6     3     4   ar
     7     4    23    1
     8    23    24    1
     9    23    25    2
    10    23    26    2
    11     4     5   ar
    12     5     6   ar
    13     6     7    1
    14     7     8    2
    15     7     9   am
    16     9    10    1
    17    10    11    1
    18    11    12   ar
    19    12    13   ar
    20    13    17    1
    21    17    18   ar
    22    18    19   ar
    23    19    20   ar
    24    20    21   ar
    25    21    22   ar
    26    13    14   ar
    27    14    15   ar
    28    15    16    1
    29    29    30    1
    30    30    31    1
    31    30    32    1
    32    30    33    1
    33     6     1   ar
    34    16     9    1
    35    15    11   ar
    36    22    17   ar
@<TRIPOS>MOLECULE
*****
 33 36 0 0 0
SMALL
GASTEIGER

@<TRIPOS>ATOM
      1 C           6.6020   -2.4142   18.7467 C.ar    1  UNL1        0.1432
      2 C           8.0724   -2.4140   19.0430 C.ar    1  UNL1        0.0384
      3 C           8.5783   -2.9945   20.3303 C.ar    1  UNL1        0.0215
      4 C           7.6136   -3.5752   21.3214 C.ar    1  UNL1        0.1061
      5 C           6.1431   -3.5753   21.0251 C.ar    1  UNL1        0.0259
      6 C           5.6373   -2.9948   19.7378 C.ar    1  UNL1        0.0888
      7 C           4.1668   -2.9950   19.4416 C.2     1  UNL1        0.2525
      8 O           3.5700   -4.0892   18.6071 O.2     1  UNL1       -0.2698
      9 N           3.2932   -1.9009   19.9800 N.am    1  UNL1       -0.2660
     10 C           3.7453   -0.7467   20.8246 C.3     1  UNL1        0.1236
     11 C           2.5456    0.0985   21.1348 C.ar    1  UNL1        0.0338
     12 C           2.0835    1.3343   21.8486 C.ar    1  UNL1        0.0990
     13 N           0.6044    1.4662   21.6369 N.ar    1  UNL1       -0.2287
     14 N           0.1523    0.3119   20.7923 N.ar    1  UNL1       -0.1680
     15 C           1.3520   -0.5333   20.4820 C.ar    1  UNL1        0.0981
     16 C           1.8141   -1.7691   19.7683 C.3     1  UNL1        0.1414
     17 C          -0.2692    2.5602   22.1752 C.ar    1  UNL1        0.0828
     18 C          -0.1236    3.0032   23.6009 C.ar    1  UNL1        0.0191
     19 C          -0.9972    4.0973   24.1393 C.ar    1  UNL1        0.0015
     20 C          -2.0165    4.7483   23.2520 C.ar    1  UNL1        0.0001
     21 C          -2.1622    4.3052   21.8263 C.ar    1  UNL1        0.0015
     22 C          -1.2886    3.2112   21.2879 C.ar    1  UNL1        0.0191
     23 S           8.1194   -4.1557   22.6087 S.O2    1  UNL1        0.0105
     24 C           8.6252   -4.7362   23.8960 C.3     1  UNL1        0.1816
     25 O           9.4958   -3.6474   22.2971 O.2     1  UNL1       -0.1686
     26 O           6.7429   -4.6639   22.9203 O.2     1  UNL1       -0.1686
     27 O           6.0962   -1.8337   17.4594 O.3     1  UNL1       -0.4702
     28 C           6.8999    0.6187   17.1590 C.3     1  UNL1        0.0566
     29 C           5.7896   -0.3683   17.3668 C.3     1  UNL1        0.2599
     30 C           4.3726    0.1101   17.4819 C.3     1  UNL1        0.4340
     31 F           2.9556    0.5884   17.5969 F       1  UNL1       -0.1664
     32 F           3.9113   -1.0594   16.6635 F       1  UNL1       -0.1664
     33 F           4.8338    1.2796   18.3001 F       1  UNL1       -0.1664
@<TRIPOS>BOND
     1    29    28    1
     2    29    27    1
     3    27     1    1
     4     1     2   ar
     5     2     3   ar
     6     3     4   ar
     7     4    23    1
     8    23    24    1
     9    23    25    2
    10    23    26    2
    11     4     5   ar
    12     5     6   ar
    13     6     7    1
    14     7     8    2
    15     7     9   am
    16     9    10    1
    17    10    11    1
    18    11    12   ar
    19    12    13   ar
    20    13    17    1
    21    17    18   ar
    22    18    19   ar
    23    19    20   ar
    24    20    21   ar
    25    21    22   ar
    26    13    14   ar
    27    14    15   ar
    28    15    16    1
    29    29    30    1
    30    30    31    1
    31    30    32    1
    32    30    33    1
    33     6     1   ar
    34    16     9    1
    35    15    11   ar
    36    22    17   ar
@<TRIPOS>MOLECULE
*****
 33 36 0 0 0
SMALL
GASTEIGER

@<TRIPOS>ATOM
      1 C           4.6854    0.2004   18.6461 C.ar    1  UNL1        0.1432
      2 C           4.1315    1.5893   18.7647 C.ar    1  UNL1        0.0384
      3 C           5.0449    2.7366   19.0800 C.ar    1  UNL1        0.0215
      4 C           6.5122    2.4951   19.2766 C.ar    1  UNL1        0.1061
      5 C           7.0661    1.1061   19.1580 C.ar    1  UNL1        0.0259
      6 C           6.1528   -0.0412   18.8427 C.ar    1  UNL1        0.0888
      7 C           6.7068   -1.4301   18.7240 C.2     1  UNL1        0.2525
      8 O           7.0977   -1.9693   17.3800 O.2     1  UNL1       -0.2698
      9 N           6.8698   -2.2798   19.9494 N.am    1  UNL1       -0.2660
     10 C           6.5243   -1.8786   21.3528 C.3     1  UNL1        0.1236
     11 C           6.8480   -3.0307   22.2572 C.ar    1  UNL1        0.0338
     12 C           6.8345   -3.4948   23.6835 C.ar    1  UNL1        0.0990
     13 N           7.3717   -4.8948   23.7206 N.ar    1  UNL1       -0.2287
     14 N           7.7172   -5.2960   22.3171 N.ar    1  UNL1       -0.1680
     15 C           7.3936   -4.1439   21.4127 C.ar    1  UNL1        0.0981
     16 C           7.4071   -3.6798   19.9864 C.3     1  UNL1        0.1414
     17 C           7.5347   -5.7444   24.9459 C.ar    1  UNL1        0.0828
     18 C           7.1677   -5.1962   26.2930 C.ar    1  UNL1        0.0191
     19 C           7.3307   -6.0459   27.5184 C.ar    1  UNL1        0.0015
     20 C           7.8609   -7.4438   27.3966 C.ar    1  UNL1        0.0001
     21 C           8.2279   -7.9920   26.0494 C.ar    1  UNL1        0.0015
     22 C           8.0649   -7.1424   24.8242 C.ar    1  UNL1        0.0191
     23 S           7.4255    3.6425   19.5919 S.O2    1  UNL1        0.0105
     24 C           8.3388    4.7898   19.9072 C.3     1  UNL1        0.1816
     25 O           8.3153    3.2478   18.4506 O.2     1  UNL1       -0.1686
     26 O           6.5356    4.0371   20.7332 O.2     1  UNL1       -0.1686
     27 O           3.7721   -0.9470   18.3308 O.3     1  UNL1       -0.4702
     28 C           3.4290   -3.2239   19.5341 C.3     1  UNL1        0.0566
     29 C           3.1653   -1.7501   19.4429 C.3     1  UNL1        0.2599
     30 C           2.2949   -1.0793   20.4638 C.3     1  UNL1        0.4340
     31 F           1.4244   -0.4085   21.4847 F       1  UNL1       -0.1664
     32 F           1.4128   -0.5570   19.3687 F       1  UNL1       -0.1664
     33 F           3.1768   -1.6015   21.5590 F       1  UNL1       -0.1664
@<TRIPOS>BOND
     1    29    28    1
     2    29    27    1
     3    27     1    1
     4     1     2   ar
     5     2     3   ar
     6     3     4   ar
     7     4    23    1
     8    23    24    1
     9    23    25    2
    10    23    26    2
    11     4     5   ar
    12     5     6   ar
    13     6     7    1
    14     7     8    2
    15     7     9   am
    16     9    10    1
    17    10    11    1
    18    11    12   ar
    19    12    13   ar
    20    13    17    1
    21    17    18   ar
    22    18    19   ar
    23    19    20   ar
    24    20    21   ar
    25    21    22   ar
    26    13    14   ar
    27    14    15   ar
    28    15    16    1
    29    29    30    1
    30    30    31    1
    31    30    32    1
    32    30    33    1
    33     6     1   ar
    34    16     9    1
    35    15    11   ar
    36    22    17   ar
@<TRIPOS>MOLECULE
*****
 33 36 0 0 0
SMALL
GASTEIGER

@<TRIPOS>ATOM
      1 C           4.7071    1.4926   35.8731 C.ar    1  UNL1        0.1432
      2 C           4.5600    0.4725   36.9628 C.ar    1  UNL1        0.0384
      3 C           3.4864    0.6306   37.9984 C.ar    1  UNL1        0.0215
      4 C           2.5599    1.8090   37.9442 C.ar    1  UNL1        0.1061
      5 C           2.7070    2.8292   36.8544 C.ar    1  UNL1        0.0259
      6 C           3.7806    2.6711   35.8188 C.ar    1  UNL1        0.0888
      7 C           3.9276    3.6913   34.7291 C.2     1  UNL1        0.2525
      8 O           4.8119    4.8854   34.9341 O.2     1  UNL1       -0.2698
      9 N           3.1903    3.5174   33.4345 N.am    1  UNL1       -0.2660
     10 C           2.2752    2.3808   33.0867 C.3     1  UNL1        0.1236
     11 C           1.7580    2.6106   31.6976 C.ar    1  UNL1        0.0338
     12 C           0.8728    2.0501   30.6241 C.ar    1  UNL1        0.0990
     13 N           0.9212    2.9822   29.4498 N.ar    1  UNL1       -0.2287
     14 N           1.8363    4.1188   29.7976 N.ar    1  UNL1       -0.1680
     15 C           2.3535    3.8890   31.1868 C.ar    1  UNL1        0.0981
     16 C           3.2387    4.4495   32.2602 C.3     1  UNL1        0.1414
     17 C           0.1839    2.8083   28.1552 C.ar    1  UNL1        0.0828
     18 C          -0.6422    3.9332   27.6056 C.ar    1  UNL1        0.0191
     19 C          -1.3795    3.7594   26.3109 C.ar    1  UNL1        0.0015
     20 C          -1.2907    2.4606   25.5658 C.ar    1  UNL1        0.0001
     21 C          -0.4645    1.3356   26.1155 C.ar    1  UNL1        0.0015
     22 C           0.2727    1.5095   27.4101 C.ar    1  UNL1        0.0191
     23 S           1.4863    1.9671   38.9798 S.O2    1  UNL1        0.0105
     24 C           0.4127    2.1253   40.0154 C.3     1  UNL1        0.1816
     25 O           2.0692    0.8252   39.7584 O.2     1  UNL1       -0.1686
     26 O           0.9035    3.1091   38.2011 O.2     1  UNL1       -0.1686
     27 O           5.7807    1.3345   34.8375 O.3     1  UNL1       -0.4702
     28 C           5.6629    1.1734   32.2471 C.3     1  UNL1        0.0566
     29 C           5.5137    0.5354   33.5964 C.3     1  UNL1        0.2599
     30 C           5.0976   -0.9016   33.7047 C.3     1  UNL1        0.4340
     31 F           4.6816   -2.3386   33.8131 F       1  UNL1       -0.1664
     32 F           6.5299   -1.3015   33.9015 F       1  UNL1       -0.1664
     33 F           3.6653   -0.5018   33.5080 F       1  UNL1       -0.1664
@<TRIPOS>BOND
     1    29    28    1
     2    29    27    1
     3    27     1    1
     4     1     2   ar
     5     2     3   ar
     6     3     4   ar
     7     4    23    1
     8    23    24    1
     9    23    25    2
    10    23    26    2
    11     4     5   ar
    12     5     6   ar
    13     6     7    1
    14     7     8    2
    15     7     9   am
    16     9    10    1
    17    10    11    1
    18    11    12   ar
    19    12    13   ar
    20    13    17    1
    21    17    18   ar
    22    18    19   ar
    23    19    20   ar
    24    20    21   ar
    25    21    22   ar
    26    13    14   ar
    27    14    15   ar
    28    15    16    1
    29    29    30    1
    30    30    31    1
    31    30    32    1
    32    30    33    1
    33     6     1   ar
    34    16     9    1
    35    15    11   ar
    36    22    17   ar
@<TRIPOS>MOLECULE
*****
 33 36 0 0 0
SMALL
GASTEIGER

@<TRIPOS>ATOM
      1 C          -0.7126    2.0167   27.1307 C.ar    1  UNL1        0.1432
      2 C          -1.2745    1.3790   28.3666 C.ar    1  UNL1        0.0384
      3 C          -0.3581    0.9623   29.4786 C.ar    1  UNL1        0.0215
      4 C           1.1204    1.1832   29.3546 C.ar    1  UNL1        0.1061
      5 C           1.6823    1.8209   28.1186 C.ar    1  UNL1        0.0259
      6 C           0.7659    2.2376   27.0066 C.ar    1  UNL1        0.0888
      7 C           1.3279    2.8752   25.7707 C.2     1  UNL1        0.2525
      8 O           1.2956    4.3668   25.6153 O.2     1  UNL1       -0.2698
      9 N           1.9222    2.0213   24.6902 N.am    1  UNL1       -0.2660
     10 C           2.0241    0.5248   24.7049 C.3     1  UNL1        0.1236
     11 C           2.6838    0.0926   23.4290 C.ar    1  UNL1        0.0338
     12 C           3.1546   -1.0994   22.6495 C.ar    1  UNL1        0.0990
     13 N           3.7513   -0.6068   21.3645 N.ar    1  UNL1       -0.2287
     14 N           3.6494    0.8897   21.3498 N.ar    1  UNL1       -0.1680
     15 C           2.9897    1.3219   22.6257 C.ar    1  UNL1        0.0981
     16 C           2.5190    2.5139   23.4052 C.3     1  UNL1        0.1414
     17 C           4.3456   -1.4607   20.2840 C.ar    1  UNL1        0.0828
     18 C           5.5428   -0.9781   19.5199 C.ar    1  UNL1        0.0191
     19 C           6.1371   -1.8320   18.4393 C.ar    1  UNL1        0.0015
     20 C           5.5343   -3.1685   18.1228 C.ar    1  UNL1        0.0001
     21 C           4.3371   -3.6512   18.8870 C.ar    1  UNL1        0.0015
     22 C           3.7428   -2.7973   19.9675 C.ar    1  UNL1        0.0191
     23 S           2.0368    0.7665   30.4666 S.O2    1  UNL1        0.0105
     24 C           2.9533    0.3498   31.5785 C.3     1  UNL1        0.1816
     25 O           2.4281    2.1986   30.6809 O.2     1  UNL1       -0.1686
     26 O           1.6455   -0.6657   30.2523 O.2     1  UNL1       -0.1686
     27 O          -1.6290    2.4334   26.0187 O.3     1  UNL1       -0.4702
     28 C          -1.9414    4.9039   26.7597 C.3     1  UNL1        0.0566
     29 C          -2.5052    3.6400   26.1813 C.3     1  UNL1        0.2599
     30 C          -3.9453    3.5825   25.7655 C.3     1  UNL1        0.4340
     31 F          -5.3854    3.5251   25.3497 F       1  UNL1       -0.1664
     32 F          -4.3619    3.9627   27.1555 F       1  UNL1       -0.1664
     33 F          -3.5288    3.2024   24.3755 F       1  UNL1       -0.1664
@<TRIPOS>BOND
     1    29    28    1
     2    29    27    1
     3    27     1    1
     4     1     2   ar
     5     2     3   ar
     6     3     4   ar
     7     4    23    1
     8    23    24    1
     9    23    25    2
    10    23    26    2
    11     4     5   ar
    12     5     6   ar
    13     6     7    1
    14     7     8    2
    15     7     9   am
    16     9    10    1
    17    10    11    1
    18    11    12   ar
    19    12    13   ar
    20    13    17    1
    21    17    18   ar
    22    18    19   ar
    23    19    20   ar
    24    20    21   ar
    25    21    22   ar
    26    13    14   ar
    27    14    15   ar
    28    15    16    1
    29    29    30    1
    30    30    31    1
    31    30    32    1
    32    30    33    1
    33     6     1   ar
    34    16     9    1
    35    15    11   ar
    36    22    17   ar
@<TRIPOS>MOLECULE
*****
 33 36 0 0 0
SMALL
GASTEIGER

@<TRIPOS>ATOM
      1 C           3.7331    2.0587   38.0697 C.ar    1  UNL1        0.1432
      2 C           3.7982    3.1314   39.1161 C.ar    1  UNL1        0.0384
      3 C           5.0729    3.8919   39.3323 C.ar    1  UNL1        0.0215
      4 C           6.2826    3.5796   38.5022 C.ar    1  UNL1        0.1061
      5 C           6.2175    2.5068   37.4558 C.ar    1  UNL1        0.0259
      6 C           4.9427    1.7464   37.2395 C.ar    1  UNL1        0.0888
      7 C           4.8777    0.6736   36.1931 C.2     1  UNL1        0.2525
      8 O           5.6161   -0.6164   36.3946 O.2     1  UNL1       -0.2698
      9 N           4.0743    0.8909   34.9451 N.am    1  UNL1       -0.2660
     10 C           3.2876    2.1223   34.6063 C.3     1  UNL1        0.1236
     11 C           2.6437    1.9073   33.2687 C.ar    1  UNL1        0.0338
     12 C           1.7594    2.5355   32.2326 C.ar    1  UNL1        0.0990
     13 N           1.6017    1.5596   31.1044 N.ar    1  UNL1       -0.2287
     14 N           2.3885    0.3282   31.4433 N.ar    1  UNL1       -0.1680
     15 C           3.0324    0.5432   32.7809 C.ar    1  UNL1        0.0981
     16 C           3.9166   -0.0850   33.8170 C.3     1  UNL1        0.1414
     17 C           0.7984    1.7769   29.8565 C.ar    1  UNL1        0.0828
     18 C           0.8833    3.0854   29.1281 C.ar    1  UNL1        0.0191
     19 C           0.0799    3.3027   27.8801 C.ar    1  UNL1        0.0015
     20 C          -0.8084    2.2114   27.3606 C.ar    1  UNL1        0.0001
     21 C          -0.8934    0.9028   28.0890 C.ar    1  UNL1        0.0015
     22 C          -0.0901    0.6856   29.3369 C.ar    1  UNL1        0.0191
     23 S           7.5573    4.3401   38.7184 S.O2    1  UNL1        0.0105
     24 C           8.8321    5.1005   38.9347 C.3     1  UNL1        0.1816
     25 O           7.8746    4.2239   37.2570 O.2     1  UNL1       -0.1686
     26 O           7.2400    4.4562   40.1800 O.2     1  UNL1       -0.1686
     27 O           2.4584    1.2983   37.8534 O.3     1  UNL1       -0.4702
     28 C           1.6277   -0.3537   39.6785 C.3     1  UNL1        0.0566
     29 C           1.5621    0.9905   39.0162 C.3     1  UNL1        0.2599
     30 C           0.6003    2.0271   39.5167 C.3     1  UNL1        0.4340
     31 F          -0.3614    3.0637   40.0170 F       1  UNL1       -0.1664
     32 F           0.7115    2.7599   38.2125 F       1  UNL1       -0.1664
     33 F           0.4891    1.2944   40.8208 F       1  UNL1       -0.1664
@<TRIPOS>BOND
     1    29    28    1
     2    29    27    1
     3    27     1    1
     4     1     2   ar
     5     2     3   ar
     6     3     4   ar
     7     4    23    1
     8    23    24    1
     9    23    25    2
    10    23    26    2
    11     4     5   ar
    12     5     6   ar
    13     6     7    1
    14     7     8    2
    15     7     9   am
    16     9    10    1
    17    10    11    1
    18    11    12   ar
    19    12    13   ar
    20    13    17    1
    21    17    18   ar
    22    18    19   ar
    23    19    20   ar
    24    20    21   ar
    25    21    22   ar
    26    13    14   ar
    27    14    15   ar
    28    15    16    1
    29    29    30    1
    30    30    31    1
    31    30    32    1
    32    30    33    1
    33     6     1   ar
    34    16     9    1
    35    15    11   ar
    36    22    17   ar
