@<TRIPOS>MOLECULE
*****
 31 35 0 0 0
SMALL
GASTEIGER

@<TRIPOS>ATOM
      1 N          -7.2700  -20.6091   21.0824 N.pl3   1  UNL1       -0.2927
      2 H          -7.4803  -21.5665   20.9903 H       1  UNL1        0.1541
      3 C          -8.3387  -19.6435   21.5012 C.ar    1  UNL1        0.1629
      4 N          -8.2959  -18.7484   22.7041 N.ar    1  UNL1       -0.2284
      5 C          -9.5685  -17.9550   22.7371 C.ar    1  UNL1        0.0666
      6 C         -10.3978  -18.3598   21.5545 C.ar    1  UNL1        0.0237
      7 S          -9.6377  -19.4033   20.7908 S.2     1  UNL1       -0.0561
      8 C         -11.7379  -17.7259   21.3260 C.3     1  UNL1        0.0343
      9 C         -12.2487  -16.6872   22.2800 C.3     1  UNL1        0.0060
     10 C         -11.4194  -16.2824   23.4626 C.3     1  UNL1        0.0107
     11 C         -10.0793  -16.9163   23.6911 C.3     1  UNL1        0.0627
     12 C          -9.2500  -16.5115   24.8737 C.ar    1  UNL1       -0.0169
     13 C          -9.3653  -17.2669   26.1644 C.ar    1  UNL1       -0.0039
     14 C          -8.5360  -16.8621   27.3470 C.ar    1  UNL1       -0.0003
     15 C          -7.5914  -15.7020   27.2388 C.ar    1  UNL1       -0.0000
     16 C          -7.4761  -14.9467   25.9480 C.ar    1  UNL1       -0.0003
     17 C          -8.3054  -15.3514   24.7655 C.ar    1  UNL1       -0.0039
     18 C          -3.9344  -18.4706   21.3066 C.ar    1  UNL1        0.1444
     19 C          -5.3234  -18.9635   21.5852 C.ar    1  UNL1        0.0517
     20 C          -5.8810  -20.1162   20.8038 C.ar    1  UNL1        0.0528
     21 C          -5.0495  -20.7759   19.7439 C.ar    1  UNL1        0.0150
     22 C          -3.6605  -20.2829   19.4653 C.ar    1  UNL1        0.0090
     23 C          -3.1030  -19.1303   20.2467 C.ar    1  UNL1        0.0891
     24 C          -1.7139  -18.6373   19.9681 C.ar    1  UNL1        0.2525
     25 N          -1.1878  -18.1896   18.6367 N.ar    1  UNL1       -0.1071
     26 N           0.2442  -17.7811   18.8178 N.ar    1  UNL1       -0.1114
     27 C           0.6030  -17.9763   20.2611 C.ar    1  UNL1        0.2270
     28 C           1.9375  -17.6923   20.8841 C.3     1  UNL1        0.0967
     29 O          -0.6072  -18.5055   20.9721 O.2     1  UNL1       -0.4194
     30 C          -3.9713  -16.9549   23.4165 C.3     1  UNL1        0.2525
     31 O          -3.3769  -17.3179   22.0880 O.3     1  UNL1       -0.4712
@<TRIPOS>BOND
     1    30    31    1
     2    31    18    1
     3    18    19   ar
     4    19    20   ar
     5    20     1    1
     6     1     3    1
     7     3     4   ar
     8     4     5   ar
     9     5     6   ar
    10     6     7   ar
    11     6     8    1
    12     8     9    1
    13     9    10    1
    14    10    11    1
    15    11    12    1
    16    12    13   ar
    17    13    14   ar
    18    14    15   ar
    19    15    16   ar
    20    16    17   ar
    21    20    21   ar
    22    21    22   ar
    23    22    23   ar
    24    23    24    1
    25    24    25   ar
    26    25    26   ar
    27    26    27   ar
    28    27    28    1
    29    27    29   ar
    30    23    18   ar
    31    29    24   ar
    32     7     3   ar
    33    17    12   ar
    34    11     5    1
    35     1     2    1
@<TRIPOS>MOLECULE
*****
 31 35 0 0 0
SMALL
GASTEIGER

@<TRIPOS>ATOM
      1 N          -7.5522  -19.6169   19.9071 N.pl3   1  UNL1       -0.2927
      2 H          -7.6422  -20.0102   19.0090 H       1  UNL1        0.1541
      3 C          -6.1941  -19.2709   20.4417 C.ar    1  UNL1        0.1629
      4 N          -5.9111  -18.4603   21.6717 N.ar    1  UNL1       -0.2284
      5 C          -4.4226  -18.3630   21.8304 C.ar    1  UNL1        0.0666
      6 C          -3.7858  -19.1136   20.6985 C.ar    1  UNL1        0.0237
      7 S          -4.8807  -19.6746   19.8403 S.2     1  UNL1       -0.0561
      8 C          -2.2913  -19.1891   20.5955 C.3     1  UNL1        0.0343
      9 C          -1.4336  -18.5142   21.6245 C.3     1  UNL1        0.0060
     10 C          -2.0704  -17.7637   22.7564 C.3     1  UNL1        0.0107
     11 C          -3.5650  -17.6881   22.8593 C.3     1  UNL1        0.0627
     12 C          -4.2018  -16.9376   23.9912 C.ar    1  UNL1       -0.0169
     13 C          -5.0642  -15.7434   23.7081 C.ar    1  UNL1       -0.0039
     14 C          -5.7011  -14.9929   24.8400 C.ar    1  UNL1       -0.0003
     15 C          -5.4755  -15.4365   26.2550 C.ar    1  UNL1       -0.0000
     16 C          -4.6130  -16.6306   26.5381 C.ar    1  UNL1       -0.0003
     17 C          -3.9762  -17.3812   25.4062 C.ar    1  UNL1       -0.0039
     18 C         -11.0917  -18.2326   21.0499 C.ar    1  UNL1        0.1444
     19 C          -9.8706  -18.4857   20.2163 C.ar    1  UNL1        0.0517
     20 C          -8.7733  -19.3638   20.7407 C.ar    1  UNL1        0.0528
     21 C          -8.8970  -19.9886   22.0987 C.ar    1  UNL1        0.0150
     22 C         -10.1182  -19.7354   22.9323 C.ar    1  UNL1        0.0090
     23 C         -11.2154  -18.8574   22.4079 C.ar    1  UNL1        0.0891
     24 C         -12.4366  -18.6043   23.2415 C.ar    1  UNL1        0.2525
     25 N         -13.7652  -18.1253   22.7361 N.ar    1  UNL1       -0.1071
     26 N         -14.6932  -18.0106   23.9091 N.ar    1  UNL1       -0.1114
     27 C         -13.9381  -18.4187   25.1393 C.ar    1  UNL1        0.2270
     28 C         -14.4820  -18.4537   26.5366 C.3     1  UNL1        0.0967
     29 O         -12.5434  -18.7855   24.7266 O.2     1  UNL1       -0.4194
     30 C         -11.8525  -16.0766   19.8157 C.3     1  UNL1        0.2525
     31 O         -12.1890  -17.3546   20.5254 O.3     1  UNL1       -0.4712
@<TRIPOS>BOND
     1    30    31    1
     2    31    18    1
     3    18    19   ar
     4    19    20   ar
     5    20     1    1
     6     1     3    1
     7     3     4   ar
     8     4     5   ar
     9     5     6   ar
    10     6     7   ar
    11     6     8    1
    12     8     9    1
    13     9    10    1
    14    10    11    1
    15    11    12    1
    16    12    13   ar
    17    13    14   ar
    18    14    15   ar
    19    15    16   ar
    20    16    17   ar
    21    20    21   ar
    22    21    22   ar
    23    22    23   ar
    24    23    24    1
    25    24    25   ar
    26    25    26   ar
    27    26    27   ar
    28    27    28    1
    29    27    29   ar
    30    23    18   ar
    31    29    24   ar
    32     7     3   ar
    33    17    12   ar
    34    11     5    1
    35     1     2    1
@<TRIPOS>MOLECULE
*****
 31 35 0 0 0
SMALL
GASTEIGER

@<TRIPOS>ATOM
      1 N          -7.7692  -20.9802   22.8553 N.pl3   1  UNL1       -0.2927
      2 H          -7.7485  -21.9161   23.1598 H       1  UNL1        0.1541
      3 C          -8.9997  -20.1492   23.0681 C.ar    1  UNL1        0.1629
      4 N          -9.4084  -18.9551   22.2576 N.ar    1  UNL1       -0.2284
      5 C         -10.6989  -18.4344   22.8174 C.ar    1  UNL1        0.0666
      6 C         -11.0878  -19.3067   23.9740 C.ar    1  UNL1        0.0237
      7 S         -10.0377  -20.3665   24.1290 S.2     1  UNL1       -0.0561
      8 C         -12.3479  -19.0233   24.7367 C.3     1  UNL1        0.0343
      9 C         -13.2191  -17.8675   24.3428 C.3     1  UNL1        0.0060
     10 C         -12.8302  -16.9952   23.1861 C.3     1  UNL1        0.0107
     11 C         -11.5700  -17.2786   22.4235 C.3     1  UNL1        0.0627
     12 C         -11.1811  -16.4063   21.2669 C.ar    1  UNL1       -0.0169
     13 C          -9.9517  -15.5512   21.3525 C.ar    1  UNL1       -0.0039
     14 C          -9.5627  -14.6789   20.1959 C.ar    1  UNL1       -0.0003
     15 C         -10.4032  -14.6617   18.9536 C.ar    1  UNL1       -0.0000
     16 C         -11.6326  -15.5167   18.8679 C.ar    1  UNL1       -0.0003
     17 C         -12.0215  -16.3891   20.0246 C.ar    1  UNL1       -0.0039
     18 C          -4.7319  -18.5530   22.0593 C.ar    1  UNL1        0.1444
     19 C          -5.9309  -19.1481   22.7362 C.ar    1  UNL1        0.0517
     20 C          -6.5702  -20.3851   22.1783 C.ar    1  UNL1        0.0528
     21 C          -6.0105  -21.0269   20.9435 C.ar    1  UNL1        0.0150
     22 C          -4.8114  -20.4318   20.2666 C.ar    1  UNL1        0.0090
     23 C          -4.1722  -19.1948   20.8245 C.ar    1  UNL1        0.0891
     24 C          -2.9731  -18.5997   20.1475 C.ar    1  UNL1        0.2525
     25 N          -2.9112  -18.1160   18.7290 N.ar    1  UNL1       -0.1071
     26 N          -1.5253  -17.6011   18.4750 N.ar    1  UNL1       -0.1114
     27 C          -0.7309  -17.7666   19.7366 C.ar    1  UNL1        0.2270
     28 C           0.7059  -17.3823   19.9305 C.3     1  UNL1        0.0967
     29 O          -1.6257  -18.3837   20.7703 O.2     1  UNL1       -0.4194
     30 C          -4.7637  -16.5591   23.7247 C.3     1  UNL1        0.2525
     31 O          -4.0926  -17.3160   22.6172 O.3     1  UNL1       -0.4712
@<TRIPOS>BOND
     1    30    31    1
     2    31    18    1
     3    18    19   ar
     4    19    20   ar
     5    20     1    1
     6     1     3    1
     7     3     4   ar
     8     4     5   ar
     9     5     6   ar
    10     6     7   ar
    11     6     8    1
    12     8     9    1
    13     9    10    1
    14    10    11    1
    15    11    12    1
    16    12    13   ar
    17    13    14   ar
    18    14    15   ar
    19    15    16   ar
    20    16    17   ar
    21    20    21   ar
    22    21    22   ar
    23    22    23   ar
    24    23    24    1
    25    24    25   ar
    26    25    26   ar
    27    26    27   ar
    28    27    28    1
    29    27    29   ar
    30    23    18   ar
    31    29    24   ar
    32     7     3   ar
    33    17    12   ar
    34    11     5    1
    35     1     2    1
@<TRIPOS>MOLECULE
*****
 31 35 0 0 0
SMALL
GASTEIGER

@<TRIPOS>ATOM
      1 N          -4.6796    2.7220   21.1018 N.pl3   1  UNL1       -0.2927
      2 H          -5.1754    1.9502   20.7444 H       1  UNL1        0.1541
      3 C          -3.3788    3.1321   20.4775 C.ar    1  UNL1        0.1629
      4 N          -2.0759    2.3976   20.5911 N.ar    1  UNL1       -0.2284
      5 C          -1.0444    3.1603   19.8138 C.ar    1  UNL1        0.0666
      6 C          -1.7098    4.3662   19.2196 C.ar    1  UNL1        0.0237
      7 S          -3.1525    4.3488   19.6298 S.2     1  UNL1       -0.0561
      8 C          -0.9160    5.3244   18.3819 C.3     1  UNL1        0.0343
      9 C           0.5431    5.0766   18.1383 C.3     1  UNL1        0.0060
     10 C           1.2085    3.8707   18.7324 C.3     1  UNL1        0.0107
     11 C           0.4148    2.9125   19.5701 C.3     1  UNL1        0.0627
     12 C           1.0802    1.7066   20.1643 C.ar    1  UNL1       -0.0169
     13 C           1.8820    1.8374   21.4252 C.ar    1  UNL1       -0.0039
     14 C           2.5474    0.6314   22.0193 C.ar    1  UNL1       -0.0003
     15 C           2.4110   -0.7052   21.3525 C.ar    1  UNL1       -0.0000
     16 C           1.6091   -0.8360   20.0916 C.ar    1  UNL1       -0.0003
     17 C           0.9437    0.3699   19.4975 C.ar    1  UNL1       -0.0039
     18 C          -5.2878    3.9485   24.8268 C.ar    1  UNL1        0.1444
     19 C          -4.7425    3.1828   23.6579 C.ar    1  UNL1        0.0517
     20 C          -5.2249    3.4877   22.2707 C.ar    1  UNL1        0.0528
     21 C          -6.2525    4.5583   22.0524 C.ar    1  UNL1        0.0150
     22 C          -6.7978    5.3241   23.2213 C.ar    1  UNL1        0.0090
     23 C          -6.3154    5.0192   24.6085 C.ar    1  UNL1        0.0891
     24 C          -6.8607    5.7849   25.7775 C.ar    1  UNL1        0.2525
     25 N          -8.2933    6.1798   25.9818 N.ar    1  UNL1       -0.1071
     26 N          -8.3872    6.9291   27.2779 N.ar    1  UNL1       -0.1114
     27 C          -7.0125    6.9973   27.8745 C.ar    1  UNL1        0.2270
     28 C          -6.6457    7.6568   29.1707 C.3     1  UNL1        0.0967
     29 O          -6.0692    6.2901   26.9471 O.2     1  UNL1       -0.4194
     30 C          -3.3720    3.8905   26.5809 C.3     1  UNL1        0.2525
     31 O          -4.8054    3.6436   26.2141 O.3     1  UNL1       -0.4712
@<TRIPOS>BOND
     1    30    31    1
     2    31    18    1
     3    18    19   ar
     4    19    20   ar
     5    20     1    1
     6     1     3    1
     7     3     4   ar
     8     4     5   ar
     9     5     6   ar
    10     6     7   ar
    11     6     8    1
    12     8     9    1
    13     9    10    1
    14    10    11    1
    15    11    12    1
    16    12    13   ar
    17    13    14   ar
    18    14    15   ar
    19    15    16   ar
    20    16    17   ar
    21    20    21   ar
    22    21    22   ar
    23    22    23   ar
    24    23    24    1
    25    24    25   ar
    26    25    26   ar
    27    26    27   ar
    28    27    28    1
    29    27    29   ar
    30    23    18   ar
    31    29    24   ar
    32     7     3   ar
    33    17    12   ar
    34    11     5    1
    35     1     2    1
@<TRIPOS>MOLECULE
*****
 31 35 0 0 0
SMALL
GASTEIGER

@<TRIPOS>ATOM
      1 N          -0.3513    2.9683   19.5130 N.pl3   1  UNL1       -0.2927
      2 H          -0.1960    3.6307   18.8014 H       1  UNL1        0.1541
      3 C          -1.4751    3.1636   20.4871 C.ar    1  UNL1        0.1629
      4 N          -1.3400    3.2877   21.9758 N.ar    1  UNL1       -0.2284
      5 C          -2.7127    3.4699   22.5524 C.ar    1  UNL1        0.0666
      6 C          -3.6963    3.4584   21.4199 C.ar    1  UNL1        0.0237
      7 S          -2.9314    3.2691   20.1436 S.2     1  UNL1       -0.0561
      8 C          -5.1613    3.6218   21.6973 C.3     1  UNL1        0.0343
      9 C          -5.6427    3.7967   23.1071 C.3     1  UNL1        0.0060
     10 C          -4.6591    3.8082   24.2395 C.3     1  UNL1        0.0107
     11 C          -3.1941    3.6448   23.9622 C.3     1  UNL1        0.0627
     12 C          -2.2105    3.6563   25.0946 C.ar    1  UNL1       -0.0169
     13 C          -2.0984    4.8631   25.9784 C.ar    1  UNL1       -0.0039
     14 C          -1.1148    4.8746   27.1108 C.ar    1  UNL1       -0.0003
     15 C          -0.2433    3.6793   27.3595 C.ar    1  UNL1       -0.0000
     16 C          -0.3555    2.4725   26.4757 C.ar    1  UNL1       -0.0003
     17 C          -1.3391    2.4610   25.3433 C.ar    1  UNL1       -0.0039
     18 C           2.6589    0.4585   18.8891 C.ar    1  UNL1        0.1444
     19 C           1.7718    1.6630   18.7791 C.ar    1  UNL1        0.0517
     20 C           0.5358    1.7638   19.6230 C.ar    1  UNL1        0.0528
     21 C           0.1870    0.6600   20.5770 C.ar    1  UNL1        0.0150
     22 C           1.0742   -0.5445   20.6870 C.ar    1  UNL1        0.0090
     23 C           2.3101   -0.6453   19.8431 C.ar    1  UNL1        0.0891
     24 C           3.1973   -1.8498   19.9531 C.ar    1  UNL1        0.2525
     25 N           4.2765   -2.0596   20.9735 N.ar    1  UNL1       -0.1071
     26 N           4.9072   -3.3955   20.7131 N.ar    1  UNL1       -0.1114
     27 C           4.2178   -4.0112   19.5317 C.ar    1  UNL1        0.2270
     28 C           4.5303   -5.3475   18.9263 C.3     1  UNL1        0.0967
     29 O           3.1610   -3.0559   19.0620 O.2     1  UNL1       -0.4194
     30 C           3.9110   -0.5390   16.8427 C.3     1  UNL1        0.2525
     31 O           3.8950    0.3577   18.0452 O.3     1  UNL1       -0.4712
@<TRIPOS>BOND
     1    30    31    1
     2    31    18    1
     3    18    19   ar
     4    19    20   ar
     5    20     1    1
     6     1     3    1
     7     3     4   ar
     8     4     5   ar
     9     5     6   ar
    10     6     7   ar
    11     6     8    1
    12     8     9    1
    13     9    10    1
    14    10    11    1
    15    11    12    1
    16    12    13   ar
    17    13    14   ar
    18    14    15   ar
    19    15    16   ar
    20    16    17   ar
    21    20    21   ar
    22    21    22   ar
    23    22    23   ar
    24    23    24    1
    25    24    25   ar
    26    25    26   ar
    27    26    27   ar
    28    27    28    1
    29    27    29   ar
    30    23    18   ar
    31    29    24   ar
    32     7     3   ar
    33    17    12   ar
    34    11     5    1
    35     1     2    1
@<TRIPOS>MOLECULE
*****
 31 35 0 0 0
SMALL
GASTEIGER

@<TRIPOS>ATOM
      1 N           3.1527    1.0044   25.9179 N.pl3   1  UNL1       -0.2927
      2 H           3.8252    1.3018   26.5724 H       1  UNL1        0.1541
      3 C           3.5104   -0.0301   24.8923 C.ar    1  UNL1        0.1629
      4 N           3.1327   -0.0003   23.4410 N.ar    1  UNL1       -0.2284
      5 C           3.6975   -1.2279   22.7897 C.ar    1  UNL1        0.0666
      6 C           4.4243   -2.0164   23.8385 C.ar    1  UNL1        0.0237
      7 S           4.3086   -1.2761   25.1380 S.2     1  UNL1       -0.0561
      8 C           5.0975   -3.3065   23.4748 C.3     1  UNL1        0.0343
      9 C           5.0439   -3.8081   22.0622 C.3     1  UNL1        0.0060
     10 C           4.3171   -3.0196   21.0133 C.3     1  UNL1        0.0107
     11 C           3.6439   -1.7295   21.3771 C.3     1  UNL1        0.0627
     12 C           2.9172   -0.9410   20.3282 C.ar    1  UNL1       -0.0169
     13 C           3.6251   -0.5366   19.0692 C.ar    1  UNL1       -0.0039
     14 C           2.8983    0.2519   18.0203 C.ar    1  UNL1       -0.0003
     15 C           1.4637    0.6360   18.2305 C.ar    1  UNL1       -0.0000
     16 C           0.7558    0.2315   19.4896 C.ar    1  UNL1       -0.0003
     17 C           1.4825   -0.5570   20.5384 C.ar    1  UNL1       -0.0039
     18 C          -0.5913    1.7229   27.0208 C.ar    1  UNL1        0.1444
     19 C           0.7912    1.1416   26.9924 C.ar    1  UNL1        0.0517
     20 C           1.7702    1.5857   25.9463 C.ar    1  UNL1        0.0528
     21 C           1.3667    2.6110   24.9285 C.ar    1  UNL1        0.0150
     22 C          -0.0159    3.1923   24.9569 C.ar    1  UNL1        0.0090
     23 C          -0.9948    2.7482   26.0030 C.ar    1  UNL1        0.0891
     24 C          -2.3774    3.3295   26.0314 C.ar    1  UNL1        0.2525
     25 N          -3.0106    4.0417   27.1898 N.ar    1  UNL1       -0.1071
     26 N          -4.3940    4.4531   26.7808 N.ar    1  UNL1       -0.1114
     27 C          -4.6156    3.9951   25.3697 C.ar    1  UNL1        0.2270
     28 C          -5.8642    4.1961   24.5633 C.3     1  UNL1        0.0967
     29 O          -3.3692    3.3007   24.9066 O.2     1  UNL1       -0.4194
     30 C          -1.3906   -0.0452   28.7485 C.3     1  UNL1        0.2525
     31 O          -1.5703    1.2789   28.0670 O.3     1  UNL1       -0.4712
@<TRIPOS>BOND
     1    30    31    1
     2    31    18    1
     3    18    19   ar
     4    19    20   ar
     5    20     1    1
     6     1     3    1
     7     3     4   ar
     8     4     5   ar
     9     5     6   ar
    10     6     7   ar
    11     6     8    1
    12     8     9    1
    13     9    10    1
    14    10    11    1
    15    11    12    1
    16    12    13   ar
    17    13    14   ar
    18    14    15   ar
    19    15    16   ar
    20    16    17   ar
    21    20    21   ar
    22    21    22   ar
    23    22    23   ar
    24    23    24    1
    25    24    25   ar
    26    25    26   ar
    27    26    27   ar
    28    27    28    1
    29    27    29   ar
    30    23    18   ar
    31    29    24   ar
    32     7     3   ar
    33    17    12   ar
    34    11     5    1
    35     1     2    1
@<TRIPOS>MOLECULE
*****
 31 35 0 0 0
SMALL
GASTEIGER

@<TRIPOS>ATOM
      1 N           5.5283   -1.4742   24.6972 N.pl3   1  UNL1       -0.2927
      2 H           6.4949   -1.4158   24.8747 H       1  UNL1        0.1541
      3 C           5.0366   -2.0666   23.4098 C.ar    1  UNL1        0.1629
      4 N           4.2071   -1.3643   22.3761 N.ar    1  UNL1       -0.2284
      5 C           3.9460   -2.3290   21.2575 C.ar    1  UNL1        0.0666
      6 C           4.6141   -3.6276   21.6000 C.ar    1  UNL1        0.0237
      7 S           5.2881   -3.4654   22.9302 S.2     1  UNL1       -0.0561
      8 C           4.5223   -4.7900   20.6564 C.3     1  UNL1        0.0343
      9 C           3.7625   -4.6537   19.3703 C.3     1  UNL1        0.0060
     10 C           3.0944   -3.3551   19.0278 C.3     1  UNL1        0.0107
     11 C           3.1861   -2.1927   19.9715 C.3     1  UNL1        0.0627
     12 C           2.5180   -0.8941   19.6290 C.ar    1  UNL1       -0.0169
     13 C           3.2165    0.0994   18.7487 C.ar    1  UNL1       -0.0039
     14 C           2.5485    1.3980   18.4063 C.ar    1  UNL1       -0.0003
     15 C           1.1819    1.7031   18.9441 C.ar    1  UNL1       -0.0000
     16 C           0.4834    0.7096   19.8244 C.ar    1  UNL1       -0.0003
     17 C           1.1515   -0.5890   20.1669 C.ar    1  UNL1       -0.0039
     18 C           2.5861    0.6059   26.3604 C.ar    1  UNL1        0.1444
     19 C           3.5671    0.1025   25.3435 C.ar    1  UNL1        0.0517
     20 C           4.5473   -0.9708   25.7141 C.ar    1  UNL1        0.0528
     21 C           4.5464   -1.5407   27.1016 C.ar    1  UNL1        0.0150
     22 C           3.5653   -1.0372   28.1186 C.ar    1  UNL1        0.0090
     23 C           2.5852    0.0360   27.7479 C.ar    1  UNL1        0.0891
     24 C           1.6041    0.5395   28.7649 C.ar    1  UNL1        0.2525
     25 N           0.2171    0.0135   28.9875 N.ar    1  UNL1       -0.1071
     26 N          -0.4065    0.8063   30.0979 N.ar    1  UNL1       -0.1114
     27 C           0.5952    1.8221   30.5614 C.ar    1  UNL1        0.2270
     28 C           0.3902    2.8264   31.6564 C.3     1  UNL1        0.0967
     29 O           1.8377    1.6572   29.7375 O.2     1  UNL1       -0.4194
     30 C           0.3272    1.3191   25.2932 C.3     1  UNL1        0.2525
     31 O           1.6059    1.6792   25.9898 O.3     1  UNL1       -0.4712
@<TRIPOS>BOND
     1    30    31    1
     2    31    18    1
     3    18    19   ar
     4    19    20   ar
     5    20     1    1
     6     1     3    1
     7     3     4   ar
     8     4     5   ar
     9     5     6   ar
    10     6     7   ar
    11     6     8    1
    12     8     9    1
    13     9    10    1
    14    10    11    1
    15    11    12    1
    16    12    13   ar
    17    13    14   ar
    18    14    15   ar
    19    15    16   ar
    20    16    17   ar
    21    20    21   ar
    22    21    22   ar
    23    22    23   ar
    24    23    24    1
    25    24    25   ar
    26    25    26   ar
    27    26    27   ar
    28    27    28    1
    29    27    29   ar
    30    23    18   ar
    31    29    24   ar
    32     7     3   ar
    33    17    12   ar
    34    11     5    1
    35     1     2    1
@<TRIPOS>MOLECULE
*****
 31 35 0 0 0
SMALL
GASTEIGER

@<TRIPOS>ATOM
      1 N           1.8065    3.8026   34.8832 N.pl3   1  UNL1       -0.2927
      2 H           1.1353    4.4831   34.6474 H       1  UNL1        0.1541
      3 C           2.1530    2.7201   33.9044 C.ar    1  UNL1        0.1629
      4 N           1.5764    2.5573   32.5292 N.ar    1  UNL1       -0.2284
      5 C           2.2040    1.3469   31.9037 C.ar    1  UNL1        0.0666
      6 C           3.1683    0.7616   32.8923 C.ar    1  UNL1        0.0237
      7 S           3.1368    1.6103   34.1288 S.2     1  UNL1       -0.0561
      8 C           3.9506   -0.4685   32.5390 C.3     1  UNL1        0.0343
      9 C           3.7684   -1.1133   31.1970 C.3     1  UNL1        0.0060
     10 C           2.8040   -0.5280   30.2083 C.3     1  UNL1        0.0107
     11 C           2.0218    0.7021   30.5617 C.3     1  UNL1        0.0627
     12 C           1.0574    1.2875   29.5731 C.ar    1  UNL1       -0.0169
     13 C           1.2668    2.6794   29.0550 C.ar    1  UNL1       -0.0039
     14 C           0.3025    3.2648   28.0664 C.ar    1  UNL1       -0.0003
     15 C          -0.8713    2.4581   27.5958 C.ar    1  UNL1       -0.0000
     16 C          -1.0807    1.0661   28.1139 C.ar    1  UNL1       -0.0003
     17 C          -0.1164    0.4808   29.1026 C.ar    1  UNL1       -0.0039
     18 C           2.5434    3.1945   38.7351 C.ar    1  UNL1        0.1444
     19 C           1.8672    3.1488   37.3970 C.ar    1  UNL1        0.0517
     20 C           2.4827    3.8482   36.2214 C.ar    1  UNL1        0.0528
     21 C           3.7744    4.5933   36.3839 C.ar    1  UNL1        0.0150
     22 C           4.4506    4.6390   37.7222 C.ar    1  UNL1        0.0090
     23 C           3.8351    3.9396   38.8977 C.ar    1  UNL1        0.0891
     24 C           4.5113    3.9852   40.2359 C.ar    1  UNL1        0.2525
     25 N           5.5221    3.0017   40.7469 N.ar    1  UNL1       -0.1071
     26 N           5.9309    3.4310   42.1249 N.ar    1  UNL1       -0.1114
     27 C           5.1727    4.6798   42.4654 C.ar    1  UNL1        0.2270
     28 C           5.2741    5.4506   43.7481 C.3     1  UNL1        0.0967
     29 O           4.2954    5.0222   41.2980 O.2     1  UNL1       -0.4194
     30 C           0.5970    1.8181   39.7682 C.3     1  UNL1        0.2525
     31 O           1.9279    2.4950   39.9108 O.3     1  UNL1       -0.4712
@<TRIPOS>BOND
     1    30    31    1
     2    31    18    1
     3    18    19   ar
     4    19    20   ar
     5    20     1    1
     6     1     3    1
     7     3     4   ar
     8     4     5   ar
     9     5     6   ar
    10     6     7   ar
    11     6     8    1
    12     8     9    1
    13     9    10    1
    14    10    11    1
    15    11    12    1
    16    12    13   ar
    17    13    14   ar
    18    14    15   ar
    19    15    16   ar
    20    16    17   ar
    21    20    21   ar
    22    21    22   ar
    23    22    23   ar
    24    23    24    1
    25    24    25   ar
    26    25    26   ar
    27    26    27   ar
    28    27    28    1
    29    27    29   ar
    30    23    18   ar
    31    29    24   ar
    32     7     3   ar
    33    17    12   ar
    34    11     5    1
    35     1     2    1
@<TRIPOS>MOLECULE
*****
 31 35 0 0 0
SMALL
GASTEIGER

@<TRIPOS>ATOM
      1 N           2.7422    1.1668   26.0992 N.pl3   1  UNL1       -0.2927
      2 H           3.3658    1.4478   26.8073 H       1  UNL1        0.1541
      3 C           3.1737    0.1573   25.0770 C.ar    1  UNL1        0.1629
      4 N           2.8337    0.1809   23.6163 N.ar    1  UNL1       -0.2284
      5 C           3.4708   -1.0149   22.9726 C.ar    1  UNL1        0.0666
      6 C           4.2045   -1.7776   24.0356 C.ar    1  UNL1        0.0237
      7 S           4.0209   -1.0531   25.3362 S.2     1  UNL1       -0.0561
      8 C           4.9450   -3.0331   23.6820 C.3     1  UNL1        0.0343
      9 C           4.9518   -3.5260   22.2653 C.3     1  UNL1        0.0060
     10 C           4.2180   -2.7633   21.2023 C.3     1  UNL1        0.0107
     11 C           3.4775   -1.5078   21.5560 C.3     1  UNL1        0.0627
     12 C           2.7438   -0.7451   20.4930 C.ar    1  UNL1       -0.0169
     13 C           1.3051   -0.3720   20.6953 C.ar    1  UNL1       -0.0039
     14 C           0.5714    0.3906   19.6323 C.ar    1  UNL1       -0.0003
     15 C           1.2764    0.7803   18.3670 C.ar    1  UNL1       -0.0000
     16 C           2.7150    0.4073   18.1646 C.ar    1  UNL1       -0.0003
     17 C           3.4488   -0.3554   19.2276 C.ar    1  UNL1       -0.0039
     18 C          -0.3516    3.3793   24.9663 C.ar    1  UNL1        0.1444
     19 C           1.0299    2.7978   25.0231 C.ar    1  UNL1        0.0517
     20 C           1.3607    1.7482   26.0424 C.ar    1  UNL1        0.0528
     21 C           0.3098    1.2800   27.0049 C.ar    1  UNL1        0.0150
     22 C          -1.0718    1.8615   26.9481 C.ar    1  UNL1        0.0090
     23 C          -1.4025    2.9111   25.9289 C.ar    1  UNL1        0.0891
     24 C          -2.7841    3.4925   25.8721 C.ar    1  UNL1        0.2525
     25 N          -3.4724    4.2391   26.9761 N.ar    1  UNL1       -0.1071
     26 N          -4.8337    4.6375   26.4877 N.ar    1  UNL1       -0.1114
     27 C          -4.9864    4.1372   25.0818 C.ar    1  UNL1        0.2270
     28 C          -6.1939    4.3135   24.2096 C.3     1  UNL1        0.0967
     29 O          -3.7197    3.4296   24.7014 O.2     1  UNL1       -0.4194
     30 C          -0.9585    4.0342   22.5265 C.3     1  UNL1        0.2525
     31 O          -0.6823    4.4289   23.9470 O.3     1  UNL1       -0.4712
@<TRIPOS>BOND
     1    30    31    1
     2    31    18    1
     3    18    19   ar
     4    19    20   ar
     5    20     1    1
     6     1     3    1
     7     3     4   ar
     8     4     5   ar
     9     5     6   ar
    10     6     7   ar
    11     6     8    1
    12     8     9    1
    13     9    10    1
    14    10    11    1
    15    11    12    1
    16    12    13   ar
    17    13    14   ar
    18    14    15   ar
    19    15    16   ar
    20    16    17   ar
    21    20    21   ar
    22    21    22   ar
    23    22    23   ar
    24    23    24    1
    25    24    25   ar
    26    25    26   ar
    27    26    27   ar
    28    27    28    1
    29    27    29   ar
    30    23    18   ar
    31    29    24   ar
    32     7     3   ar
    33    17    12   ar
    34    11     5    1
    35     1     2    1
