@<TRIPOS>MOLECULE
*****
 25 27 0 0 0
SMALL
GASTEIGER

@<TRIPOS>ATOM
      1 C          -6.6397  -14.9217   27.2848 C.3     1  UNL1        0.0522
      2 C          -7.0360  -15.5103   25.9633 C.ar    1  UNL1        0.0625
      3 C          -8.4782  -15.5258   25.5514 C.ar    1  UNL1        0.0522
      4 C          -8.8745  -16.1143   24.2298 C.ar    1  UNL1        0.1483
      5 C          -7.8286  -16.6873   23.3201 C.ar    1  UNL1        0.0612
      6 C          -6.3864  -16.6718   23.7319 C.ar    1  UNL1        0.1374
      7 N          -5.9900  -16.0833   25.0535 N.ar    1  UNL1       -0.2449
      8 C          -5.3403  -17.2448   22.8222 C.2     1  UNL1        0.2684
      9 O          -5.7291  -18.2270   21.7572 O.2     1  UNL1       -0.2681
     10 N          -3.9056  -16.8356   22.9774 N.am    1  UNL1       -0.2645
     11 H          -3.6505  -16.1909   23.6764 H       1  UNL1        0.1566
     12 C          -2.8596  -17.4086   22.0676 C.ar    1  UNL1        0.1367
     13 C          -1.8722  -16.5016   21.3951 C.ar    1  UNL1        0.0641
     14 C          -0.8262  -17.0746   20.4854 C.ar    1  UNL1        0.1445
     15 F           0.1613  -16.1677   19.8129 F       1  UNL1       -0.2040
     16 C          -0.7677  -18.5546   20.2482 C.ar    1  UNL1        0.0504
     17 C          -1.7552  -19.4616   20.9207 C.ar    1  UNL1        0.1026
     18 N          -2.8011  -18.8885   21.8304 N.ar    1  UNL1       -0.2289
     19 O         -10.3169  -16.1299   23.8180 O.3     1  UNL1       -0.4502
     20 C         -10.7115  -16.7055   22.4903 C.ar    1  UNL1        0.1835
     21 C         -11.2402  -18.1069   22.4077 C.ar    1  UNL1        0.1396
     22 N         -11.6348  -18.6825   21.0799 N.ar    1  UNL1       -0.2192
     23 C         -11.5009  -17.8568   19.8348 C.ar    1  UNL1        0.1991
     24 N         -10.9723  -16.4555   19.9175 N.ar    1  UNL1       -0.2192
     25 C         -10.5776  -15.8798   21.2452 C.ar    1  UNL1        0.1396
@<TRIPOS>BOND
     1     1     2    1
     2     2     3   ar
     3     3     4   ar
     4     4    19    1
     5    19    20    1
     6    20    21   ar
     7    21    22   ar
     8    22    23   ar
     9    23    24   ar
    10    24    25   ar
    11     4     5   ar
    12     5     6   ar
    13     6     8    1
    14     8     9    2
    15     8    10   am
    16    10    12    1
    17    12    13   ar
    18    13    14   ar
    19    14    15    1
    20    14    16   ar
    21    16    17   ar
    22    17    18   ar
    23     6     7   ar
    24     7     2   ar
    25    25    20   ar
    26    18    12   ar
    27    10    11    1
@<TRIPOS>MOLECULE
*****
 25 27 0 0 0
SMALL
GASTEIGER

@<TRIPOS>ATOM
      1 C          -7.8710  -14.9118   27.8444 C.3     1  UNL1        0.0522
      2 C          -7.9074  -15.3452   26.4088 C.ar    1  UNL1        0.0625
      3 C          -9.2206  -15.6448   25.7488 C.ar    1  UNL1        0.0522
      4 C          -9.2570  -16.0782   24.3133 C.ar    1  UNL1        0.1483
      5 C          -7.9801  -16.2121   23.5377 C.ar    1  UNL1        0.0612
      6 C          -6.6669  -15.9125   24.1977 C.ar    1  UNL1        0.1374
      7 N          -6.6305  -15.4791   25.6332 N.ar    1  UNL1       -0.2449
      8 C          -5.3899  -16.0463   23.4221 C.2     1  UNL1        0.2684
      9 O          -4.5998  -14.8234   23.0613 O.2     1  UNL1       -0.2681
     10 N          -4.9030  -17.4031   23.0073 N.am    1  UNL1       -0.2645
     11 H          -5.4215  -18.2058   23.2441 H       1  UNL1        0.1566
     12 C          -3.6260  -17.5370   22.2317 C.ar    1  UNL1        0.1367
     13 C          -3.1918  -18.8815   21.7281 C.ar    1  UNL1        0.0641
     14 C          -1.9149  -19.0153   20.9525 C.ar    1  UNL1        0.1445
     15 F          -1.4807  -20.3599   20.4488 F       1  UNL1       -0.2040
     16 C          -1.0722  -17.8046   20.6806 C.ar    1  UNL1        0.0504
     17 C          -1.5063  -16.4600   21.1842 C.ar    1  UNL1        0.1026
     18 N          -2.7833  -16.3262   21.9598 N.ar    1  UNL1       -0.2289
     19 O         -10.5703  -16.3778   23.6533 O.3     1  UNL1       -0.4502
     20 C         -10.6028  -17.1202   22.3504 C.ar    1  UNL1        0.1835
     21 C         -10.7092  -16.3645   21.0590 C.ar    1  UNL1        0.1396
     22 N         -10.7417  -17.1070   19.7560 N.ar    1  UNL1       -0.2192
     23 C         -10.6678  -18.6051   19.7445 C.ar    1  UNL1        0.1991
     24 N         -10.5615  -19.3608   21.0358 N.ar    1  UNL1       -0.2192
     25 C         -10.5290  -18.6183   22.3388 C.ar    1  UNL1        0.1396
@<TRIPOS>BOND
     1     1     2    1
     2     2     3   ar
     3     3     4   ar
     4     4    19    1
     5    19    20    1
     6    20    21   ar
     7    21    22   ar
     8    22    23   ar
     9    23    24   ar
    10    24    25   ar
    11     4     5   ar
    12     5     6   ar
    13     6     8    1
    14     8     9    2
    15     8    10   am
    16    10    12    1
    17    12    13   ar
    18    13    14   ar
    19    14    15    1
    20    14    16   ar
    21    16    17   ar
    22    17    18   ar
    23     6     7   ar
    24     7     2   ar
    25    25    20   ar
    26    18    12   ar
    27    10    11    1
@<TRIPOS>MOLECULE
*****
 25 27 0 0 0
SMALL
GASTEIGER

@<TRIPOS>ATOM
      1 C         -13.0484  -17.8070   21.5377 C.3     1  UNL1        0.0522
      2 C         -11.6306  -17.5535   21.9569 C.ar    1  UNL1        0.0625
      3 C         -11.3427  -16.6565   23.1242 C.ar    1  UNL1        0.0522
      4 C          -9.9250  -16.4029   23.5434 C.ar    1  UNL1        0.1483
      5 C          -8.7952  -17.0463   22.7953 C.ar    1  UNL1        0.0612
      6 C          -9.0831  -17.9432   21.6280 C.ar    1  UNL1        0.1374
      7 N         -10.5009  -18.1968   21.2088 N.ar    1  UNL1       -0.2449
      8 C          -7.9533  -18.5865   20.8799 C.2     1  UNL1        0.2684
      9 O          -8.2074  -19.2387   19.5532 O.2     1  UNL1       -0.2681
     10 N          -6.5694  -18.5778   21.4585 N.am    1  UNL1       -0.2645
     11 H          -6.4026  -18.1497   22.3292 H       1  UNL1        0.1566
     12 C          -5.4396  -19.2211   20.7103 C.ar    1  UNL1        0.1367
     13 C          -4.3379  -18.3757   20.1432 C.ar    1  UNL1        0.0641
     14 C          -3.2082  -19.0191   19.3951 C.ar    1  UNL1        0.1445
     15 F          -2.1065  -18.1737   18.8280 F       1  UNL1       -0.2040
     16 C          -3.1801  -20.5079   19.2141 C.ar    1  UNL1        0.0504
     17 C          -4.2818  -21.3533   19.7812 C.ar    1  UNL1        0.1026
     18 N          -5.4115  -20.7099   20.5293 N.ar    1  UNL1       -0.2289
     19 O          -9.6371  -15.5060   24.7107 O.3     1  UNL1       -0.4502
     20 C          -8.2461  -15.4203   25.2656 C.ar    1  UNL1        0.1835
     21 C          -7.1318  -14.8839   24.4167 C.ar    1  UNL1        0.1396
     22 N          -5.7408  -14.7982   24.9716 N.ar    1  UNL1       -0.2192
     23 C          -5.4642  -15.2490   26.3753 C.ar    1  UNL1        0.1991
     24 N          -6.5785  -15.7855   27.2241 N.ar    1  UNL1       -0.2192
     25 C          -7.9695  -15.8711   26.6692 C.ar    1  UNL1        0.1396
@<TRIPOS>BOND
     1     1     2    1
     2     2     3   ar
     3     3     4   ar
     4     4    19    1
     5    19    20    1
     6    20    21   ar
     7    21    22   ar
     8    22    23   ar
     9    23    24   ar
    10    24    25   ar
    11     4     5   ar
    12     5     6   ar
    13     6     8    1
    14     8     9    2
    15     8    10   am
    16    10    12    1
    17    12    13   ar
    18    13    14   ar
    19    14    15    1
    20    14    16   ar
    21    16    17   ar
    22    17    18   ar
    23     6     7   ar
    24     7     2   ar
    25    25    20   ar
    26    18    12   ar
    27    10    11    1
@<TRIPOS>MOLECULE
*****
 25 27 0 0 0
SMALL
GASTEIGER

@<TRIPOS>ATOM
      1 C         -11.3658  -20.0790   21.1299 C.3     1  UNL1        0.0522
      2 C         -10.2069  -19.2820   21.6512 C.ar    1  UNL1        0.0625
      3 C         -10.4304  -18.2278   22.6945 C.ar    1  UNL1        0.0522
      4 C          -9.2715  -17.4308   23.2158 C.ar    1  UNL1        0.1483
      5 C          -7.8890  -17.6882   22.6938 C.ar    1  UNL1        0.0612
      6 C          -7.6655  -18.7424   21.6506 C.ar    1  UNL1        0.1374
      7 N          -8.8244  -19.5394   21.1292 N.ar    1  UNL1       -0.2449
      8 C          -6.2830  -18.9998   21.1285 C.2     1  UNL1        0.2684
      9 O          -6.0586  -20.0579   20.0892 O.2     1  UNL1       -0.2681
     10 N          -5.1248  -18.1991   21.6458 N.am    1  UNL1       -0.2645
     11 H          -5.2721  -17.5047   22.3279 H       1  UNL1        0.1566
     12 C          -3.7423  -18.4565   21.1238 C.ar    1  UNL1        0.1367
     13 C          -3.3638  -18.0000   19.7460 C.ar    1  UNL1        0.0641
     14 C          -1.9813  -18.2574   19.2241 C.ar    1  UNL1        0.1445
     15 F          -1.6027  -17.8008   17.8463 F       1  UNL1       -0.2040
     16 C          -0.9774  -18.9713   20.0798 C.ar    1  UNL1        0.0504
     17 C          -1.3559  -19.4279   21.4576 C.ar    1  UNL1        0.1026
     18 N          -2.7384  -19.1705   21.9795 N.ar    1  UNL1       -0.2289
     19 O          -9.4951  -16.3765   24.2592 O.3     1  UNL1       -0.4502
     20 C          -8.3662  -15.9531   25.1515 C.ar    1  UNL1        0.1835
     21 C          -8.3764  -16.3291   26.6036 C.ar    1  UNL1        0.1396
     22 N          -7.2475  -15.9056   27.4959 N.ar    1  UNL1       -0.2192
     23 C          -6.1083  -15.1062   26.9361 C.ar    1  UNL1        0.1991
     24 N          -6.0981  -14.7303   25.4840 N.ar    1  UNL1       -0.2192
     25 C          -7.2270  -15.1538   24.5917 C.ar    1  UNL1        0.1396
@<TRIPOS>BOND
     1     1     2    1
     2     2     3   ar
     3     3     4   ar
     4     4    19    1
     5    19    20    1
     6    20    21   ar
     7    21    22   ar
     8    22    23   ar
     9    23    24   ar
    10    24    25   ar
    11     4     5   ar
    12     5     6   ar
    13     6     8    1
    14     8     9    2
    15     8    10   am
    16    10    12    1
    17    12    13   ar
    18    13    14   ar
    19    14    15    1
    20    14    16   ar
    21    16    17   ar
    22    17    18   ar
    23     6     7   ar
    24     7     2   ar
    25    25    20   ar
    26    18    12   ar
    27    10    11    1
@<TRIPOS>MOLECULE
*****
 25 27 0 0 0
SMALL
GASTEIGER

@<TRIPOS>ATOM
      1 C          -9.4544   -7.7462   18.6942 C.3     1  UNL1        0.0522
      2 C         -10.5934   -6.7750   18.7915 C.ar    1  UNL1        0.0625
      3 C         -10.3181   -5.3120   18.9748 C.ar    1  UNL1        0.0522
      4 C         -11.4571   -4.3409   19.0721 C.ar    1  UNL1        0.1483
      5 C         -12.8715   -4.8327   18.9859 C.ar    1  UNL1        0.0612
      6 C         -13.1469   -6.2958   18.8026 C.ar    1  UNL1        0.1374
      7 N         -12.0079   -7.2669   18.7053 N.ar    1  UNL1       -0.2449
      8 C         -14.5614   -6.7877   18.7165 C.2     1  UNL1        0.2684
      9 O         -15.5912   -5.9845   17.9787 O.2     1  UNL1       -0.2681
     10 N         -14.9460   -8.0829   19.3681 N.am    1  UNL1       -0.2645
     11 H         -14.2701   -8.6101   19.8523 H       1  UNL1        0.1566
     12 C         -16.3604   -8.5748   19.2819 C.ar    1  UNL1        0.1367
     13 C         -17.4142   -7.9879   20.1736 C.ar    1  UNL1        0.0641
     14 C         -18.8286   -8.4799   20.0874 C.ar    1  UNL1        0.1445
     15 F         -19.8825   -7.8930   20.9791 F       1  UNL1       -0.2040
     16 C         -19.1892   -9.5587   19.1096 C.ar    1  UNL1        0.0504
     17 C         -18.1354  -10.1456   18.2180 C.ar    1  UNL1        0.1026
     18 N         -16.7210   -9.6537   18.3042 N.ar    1  UNL1       -0.2289
     19 O         -11.1817   -2.8778   19.2554 O.3     1  UNL1       -0.4502
     20 C         -11.6088   -1.8967   18.2042 C.ar    1  UNL1        0.1835
     21 C         -10.6701   -1.5331   17.0920 C.ar    1  UNL1        0.1396
     22 N         -11.0972   -0.5520   16.0408 N.ar    1  UNL1       -0.2192
     23 C         -12.4629    0.0654   16.1017 C.ar    1  UNL1        0.1991
     24 N         -13.4015   -0.2982   17.2137 N.ar    1  UNL1       -0.2192
     25 C         -12.9744   -1.2793   18.2650 C.ar    1  UNL1        0.1396
@<TRIPOS>BOND
     1     1     2    1
     2     2     3   ar
     3     3     4   ar
     4     4    19    1
     5    19    20    1
     6    20    21   ar
     7    21    22   ar
     8    22    23   ar
     9    23    24   ar
    10    24    25   ar
    11     4     5   ar
    12     5     6   ar
    13     6     8    1
    14     8     9    2
    15     8    10   am
    16    10    12    1
    17    12    13   ar
    18    13    14   ar
    19    14    15    1
    20    14    16   ar
    21    16    17   ar
    22    17    18   ar
    23     6     7   ar
    24     7     2   ar
    25    25    20   ar
    26    18    12   ar
    27    10    11    1
@<TRIPOS>MOLECULE
*****
 25 27 0 0 0
SMALL
GASTEIGER

@<TRIPOS>ATOM
      1 C          -9.2892   -6.5539   19.2869 C.3     1  UNL1        0.0522
      2 C         -10.6747   -6.1506   18.8774 C.ar    1  UNL1        0.0625
      3 C         -11.5968   -7.1583   18.2575 C.ar    1  UNL1        0.0522
      4 C         -12.9823   -6.7549   17.8479 C.ar    1  UNL1        0.1483
      5 C         -13.4457   -5.3440   18.0584 C.ar    1  UNL1        0.0612
      6 C         -12.5237   -4.3363   18.6783 C.ar    1  UNL1        0.1374
      7 N         -11.1382   -4.7396   19.0879 N.ar    1  UNL1       -0.2449
      8 C         -12.9871   -2.9253   18.8888 C.2     1  UNL1        0.2684
      9 O         -12.0121   -1.8733   19.3279 O.2     1  UNL1       -0.2681
     10 N         -14.4254   -2.5663   18.6602 N.am    1  UNL1       -0.2645
     11 H         -15.0653   -3.2567   18.3721 H       1  UNL1        0.1566
     12 C         -14.8889   -1.1552   18.8707 C.ar    1  UNL1        0.1367
     13 C         -15.8308   -0.8347   19.9932 C.ar    1  UNL1        0.0641
     14 C         -16.2941    0.5763   20.2036 C.ar    1  UNL1        0.1445
     15 F         -17.2361    0.8969   21.3261 F       1  UNL1       -0.2040
     16 C         -15.8156    1.6668   19.2915 C.ar    1  UNL1        0.0504
     17 C         -14.8737    1.3463   18.1691 C.ar    1  UNL1        0.1026
     18 N         -14.4103   -0.0647   17.9587 N.ar    1  UNL1       -0.2289
     19 O         -13.9044   -7.7627   17.2280 O.3     1  UNL1       -0.4502
     20 C         -14.9322   -8.4574   18.0712 C.ar    1  UNL1        0.1835
     21 C         -15.2323   -9.9093   17.8433 C.ar    1  UNL1        0.1396
     22 N         -16.2601  -10.6040   18.6865 N.ar    1  UNL1       -0.2192
     23 C         -16.9878   -9.8468   19.7576 C.ar    1  UNL1        0.1991
     24 N         -16.6876   -8.3949   19.9855 N.ar    1  UNL1       -0.2192
     25 C         -15.6598   -7.7002   19.1422 C.ar    1  UNL1        0.1396
@<TRIPOS>BOND
     1     1     2    1
     2     2     3   ar
     3     3     4   ar
     4     4    19    1
     5    19    20    1
     6    20    21   ar
     7    21    22   ar
     8    22    23   ar
     9    23    24   ar
    10    24    25   ar
    11     4     5   ar
    12     5     6   ar
    13     6     8    1
    14     8     9    2
    15     8    10   am
    16    10    12    1
    17    12    13   ar
    18    13    14   ar
    19    14    15    1
    20    14    16   ar
    21    16    17   ar
    22    17    18   ar
    23     6     7   ar
    24     7     2   ar
    25    25    20   ar
    26    18    12   ar
    27    10    11    1
@<TRIPOS>MOLECULE
*****
 25 27 0 0 0
SMALL
GASTEIGER

@<TRIPOS>ATOM
      1 C          -9.1983   -6.1277   18.8264 C.3     1  UNL1        0.0522
      2 C         -10.4876   -5.3614   18.8513 C.ar    1  UNL1        0.0625
      3 C         -10.4709   -3.8706   19.0153 C.ar    1  UNL1        0.0522
      4 C         -11.7602   -3.1043   19.0401 C.ar    1  UNL1        0.1483
      5 C         -13.0662   -3.8290   18.9011 C.ar    1  UNL1        0.0612
      6 C         -13.0828   -5.3199   18.7371 C.ar    1  UNL1        0.1374
      7 N         -11.7935   -6.0861   18.7122 N.ar    1  UNL1       -0.2449
      8 C         -14.3887   -6.0446   18.5980 C.2     1  UNL1        0.2684
      9 O         -15.3083   -5.7211   17.4580 O.2     1  UNL1       -0.2681
     10 N         -14.7751   -7.0929   19.5990 N.am    1  UNL1       -0.2645
     11 H         -14.1715   -7.3052   20.3472 H       1  UNL1        0.1566
     12 C         -16.0810   -7.8176   19.4599 C.ar    1  UNL1        0.1367
     13 C         -16.0974   -9.2647   19.0654 C.ar    1  UNL1        0.0641
     14 C         -17.4033   -9.9894   18.9264 C.ar    1  UNL1        0.1445
     15 F         -17.4198  -11.4365   18.5319 F       1  UNL1       -0.2040
     16 C         -18.6929   -9.2670   19.1818 C.ar    1  UNL1        0.0504
     17 C         -18.6765   -7.8199   19.5762 C.ar    1  UNL1        0.1026
     18 N         -17.3706   -7.0952   19.7153 N.ar    1  UNL1       -0.2289
     19 O         -11.7436   -1.6134   19.2041 O.3     1  UNL1       -0.4502
     20 C         -12.3143   -0.7344   18.1309 C.ar    1  UNL1        0.1835
     21 C         -13.7771   -0.4022   18.1328 C.ar    1  UNL1        0.1396
     22 N         -14.3479    0.4768   17.0596 N.ar    1  UNL1       -0.2192
     23 C         -13.4559    1.0235   15.9846 C.ar    1  UNL1        0.1991
     24 N         -11.9932    0.6912   15.9828 N.ar    1  UNL1       -0.2192
     25 C         -11.4224   -0.1878   17.0560 C.ar    1  UNL1        0.1396
@<TRIPOS>BOND
     1     1     2    1
     2     2     3   ar
     3     3     4   ar
     4     4    19    1
     5    19    20    1
     6    20    21   ar
     7    21    22   ar
     8    22    23   ar
     9    23    24   ar
    10    24    25   ar
    11     4     5   ar
    12     5     6   ar
    13     6     8    1
    14     8     9    2
    15     8    10   am
    16    10    12    1
    17    12    13   ar
    18    13    14   ar
    19    14    15    1
    20    14    16   ar
    21    16    17   ar
    22    17    18   ar
    23     6     7   ar
    24     7     2   ar
    25    25    20   ar
    26    18    12   ar
    27    10    11    1
@<TRIPOS>MOLECULE
*****
 25 27 0 0 0
SMALL
GASTEIGER

@<TRIPOS>ATOM
      1 C          -0.8255    7.5578   34.9279 C.3     1  UNL1        0.0522
      2 C           0.0847    6.3676   34.9971 C.ar    1  UNL1        0.0625
      3 C           0.7379    5.9974   36.2956 C.ar    1  UNL1        0.0522
      4 C           1.6482    4.8072   36.3648 C.ar    1  UNL1        0.1483
      5 C           1.9053    3.9871   35.1355 C.ar    1  UNL1        0.0612
      6 C           1.2520    4.3573   33.8369 C.ar    1  UNL1        0.1374
      7 N           0.3418    5.5475   33.7677 N.ar    1  UNL1       -0.2449
      8 C           1.5091    3.5372   32.6075 C.2     1  UNL1        0.2684
      9 O           2.4378    4.0478   31.5460 O.2     1  UNL1       -0.2681
     10 N           0.8374    2.2065   32.4396 N.am    1  UNL1       -0.2645
     11 H           0.2279    1.8714   33.1363 H       1  UNL1        0.1566
     12 C           1.0944    1.3864   31.2101 C.ar    1  UNL1        0.1367
     13 C           0.2648    1.6003   29.9789 C.ar    1  UNL1        0.0641
     14 C           0.5219    0.7802   28.7496 C.ar    1  UNL1        0.1445
     15 F          -0.3078    0.9941   27.5183 F       1  UNL1       -0.2040
     16 C           1.6086   -0.2537   28.7515 C.ar    1  UNL1        0.0504
     17 C           2.4382   -0.4676   29.9827 C.ar    1  UNL1        0.1026
     18 N           2.1811    0.3525   31.2120 N.ar    1  UNL1       -0.2289
     19 O           2.3014    4.4371   37.6634 O.3     1  UNL1       -0.4502
     20 C           2.0227    3.1029   38.2897 C.ar    1  UNL1        0.1835
     21 C           3.1531    2.1619   38.5843 C.ar    1  UNL1        0.1396
     22 N           2.8744    0.8277   39.2106 N.ar    1  UNL1       -0.2192
     23 C           1.4653    0.4344   39.5421 C.ar    1  UNL1        0.1991
     24 N           0.3350    1.3754   39.2475 N.ar    1  UNL1       -0.2192
     25 C           0.6137    2.7097   38.6212 C.ar    1  UNL1        0.1396
@<TRIPOS>BOND
     1     1     2    1
     2     2     3   ar
     3     3     4   ar
     4     4    19    1
     5    19    20    1
     6    20    21   ar
     7    21    22   ar
     8    22    23   ar
     9    23    24   ar
    10    24    25   ar
    11     4     5   ar
    12     5     6   ar
    13     6     8    1
    14     8     9    2
    15     8    10   am
    16    10    12    1
    17    12    13   ar
    18    13    14   ar
    19    14    15    1
    20    14    16   ar
    21    16    17   ar
    22    17    18   ar
    23     6     7   ar
    24     7     2   ar
    25    25    20   ar
    26    18    12   ar
    27    10    11    1
@<TRIPOS>MOLECULE
*****
 25 27 0 0 0
SMALL
GASTEIGER

@<TRIPOS>ATOM
      1 C           4.8271   -0.3792   36.0780 C.3     1  UNL1        0.0522
      2 C           4.8828   -0.5501   34.5888 C.ar    1  UNL1        0.0625
      3 C           6.0693   -1.2125   33.9537 C.ar    1  UNL1        0.0522
      4 C           6.1249   -1.3834   32.4645 C.ar    1  UNL1        0.1483
      5 C           4.9941   -0.8919   31.6104 C.ar    1  UNL1        0.0612
      6 C           3.8076   -0.2295   32.2455 C.ar    1  UNL1        0.1374
      7 N           3.7519   -0.0586   33.7347 N.ar    1  UNL1       -0.2449
      8 C           2.6766    0.2620   31.3914 C.2     1  UNL1        0.2684
      9 O           1.7207    1.2855   31.9289 O.2     1  UNL1       -0.2681
     10 N           2.5016   -0.2698   29.9998 N.am    1  UNL1       -0.2645
     11 H           3.1290   -0.9415   29.6471 H       1  UNL1        0.1566
     12 C           1.3707    0.2217   29.1457 C.ar    1  UNL1        0.1367
     13 C           1.6308    1.2250   28.0614 C.ar    1  UNL1        0.0641
     14 C           0.4999    1.7165   27.2074 C.ar    1  UNL1        0.1445
     15 F           0.7600    2.7198   26.1230 F       1  UNL1       -0.2040
     16 C          -0.8912    1.2047   27.4376 C.ar    1  UNL1        0.0504
     17 C          -1.1513    0.2015   28.5220 C.ar    1  UNL1        0.1026
     18 N          -0.0204   -0.2900   29.3760 N.ar    1  UNL1       -0.2289
     19 O           7.3115   -2.0458   31.8295 O.3     1  UNL1       -0.4502
     20 C           7.1185   -3.2416   30.9446 C.ar    1  UNL1        0.1835
     21 C           7.0275   -3.0673   29.4575 C.ar    1  UNL1        0.1396
     22 N           6.8345   -4.2630   28.5727 N.ar    1  UNL1       -0.2192
     23 C           6.7324   -5.6331   29.1749 C.ar    1  UNL1        0.1991
     24 N           6.8234   -5.8073   30.6620 N.ar    1  UNL1       -0.2192
     25 C           7.0164   -4.6116   31.5468 C.ar    1  UNL1        0.1396
@<TRIPOS>BOND
     1     1     2    1
     2     2     3   ar
     3     3     4   ar
     4     4    19    1
     5    19    20    1
     6    20    21   ar
     7    21    22   ar
     8    22    23   ar
     9    23    24   ar
    10    24    25   ar
    11     4     5   ar
    12     5     6   ar
    13     6     8    1
    14     8     9    2
    15     8    10   am
    16    10    12    1
    17    12    13   ar
    18    13    14   ar
    19    14    15    1
    20    14    16   ar
    21    16    17   ar
    22    17    18   ar
    23     6     7   ar
    24     7     2   ar
    25    25    20   ar
    26    18    12   ar
    27    10    11    1
