@<TRIPOS>MOLECULE
*****
 16 17 0 0 0
SMALL
GASTEIGER

@<TRIPOS>ATOM
      1 C         -11.2376  -15.5841   19.4077 C.3     1  UNL1        0.0899
      2 N         -11.3528  -16.3163   20.7117 N.3     1  UNL1       -0.2674
      3 C         -12.5702  -17.1785   20.8688 C.3     1  UNL1        0.0986
      4 C         -12.9707  -18.0268   22.0392 C.2     1  UNL1       -0.0134
      5 C         -12.2529  -18.2224   23.3417 C.2     1  UNL1       -0.0289
      6 C         -10.9572  -17.6181   23.7954 C.3     1  UNL1        0.0315
      7 C         -10.0593  -16.6688   23.0587 C.3     1  UNL1        0.0427
      8 C         -10.2353  -16.0895   21.6864 C.3     1  UNL1        0.0771
      9 C          -8.8217  -16.2425   23.7913 C.ar    1  UNL1       -0.0199
     10 C          -7.5825  -15.8845   23.0254 C.ar    1  UNL1       -0.0033
     11 C          -6.3449  -15.4582   23.7580 C.ar    1  UNL1        0.0119
     12 C          -6.3465  -15.3900   25.2564 C.ar    1  UNL1        0.0682
     13 CL         -5.1089  -14.9637   25.9890 Cl      1  UNL1       -0.0814
     14 C          -7.5855  -15.7480   26.0223 C.ar    1  UNL1        0.0679
     15 CL         -7.5870  -15.6797   27.5207 Cl      1  UNL1       -0.0814
     16 C          -8.8231  -16.1743   25.2898 C.ar    1  UNL1        0.0080
@<TRIPOS>BOND
     1     1     2    1
     2     2     3    1
     3     3     4    1
     4     4     5    2
     5     5     6    1
     6     6     7    1
     7     7     9    1
     8     9    10   ar
     9    10    11   ar
    10    11    12   ar
    11    12    13    1
    12    12    14   ar
    13    14    15    1
    14    14    16   ar
    15     7     8    1
    16     8     2    1
    17    16     9   ar
@<TRIPOS>MOLECULE
*****
 16 17 0 0 0
SMALL
GASTEIGER

@<TRIPOS>ATOM
      1 C          -3.4522  -17.4091   22.9126 C.3     1  UNL1        0.0899
      2 N          -4.2737  -18.4041   22.1476 N.3     1  UNL1       -0.2674
      3 C          -3.5216  -19.2485   21.1619 C.3     1  UNL1        0.0986
      4 C          -4.0488  -20.3203   20.2547 C.2     1  UNL1       -0.0134
      5 C          -5.4582  -20.8126   20.1089 C.2     1  UNL1       -0.0289
      6 C          -6.6885  -20.3546   20.8345 C.3     1  UNL1        0.0315
      7 C          -6.8133  -19.2912   21.8850 C.3     1  UNL1        0.0427
      8 C          -5.7387  -18.4231   22.4694 C.3     1  UNL1        0.0771
      9 C          -8.1956  -19.0660   22.4222 C.ar    1  UNL1       -0.0199
     10 C          -8.8501  -20.1147   23.2720 C.ar    1  UNL1       -0.0033
     11 C         -10.2325  -19.8896   23.8091 C.ar    1  UNL1        0.0119
     12 C         -10.9603  -18.6158   23.4965 C.ar    1  UNL1        0.0682
     13 CL        -12.3426  -18.3907   24.0336 Cl      1  UNL1       -0.0814
     14 C         -10.3058  -17.5671   22.6467 C.ar    1  UNL1        0.0679
     15 CL        -11.0337  -16.2934   22.3342 Cl      1  UNL1       -0.0814
     16 C          -8.9235  -17.7922   22.1096 C.ar    1  UNL1        0.0080
@<TRIPOS>BOND
     1     1     2    1
     2     2     3    1
     3     3     4    1
     4     4     5    2
     5     5     6    1
     6     6     7    1
     7     7     9    1
     8     9    10   ar
     9    10    11   ar
    10    11    12   ar
    11    12    13    1
    12    12    14   ar
    13    14    15    1
    14    14    16   ar
    15     7     8    1
    16     8     2    1
    17    16     9   ar
@<TRIPOS>MOLECULE
*****
 16 17 0 0 0
SMALL
GASTEIGER

@<TRIPOS>ATOM
      1 C          -5.0264  -15.6915   23.7706 C.3     1  UNL1        0.0899
      2 N          -5.5400  -16.9938   23.2318 N.3     1  UNL1       -0.2674
      3 C          -4.4982  -17.9386   22.7102 C.3     1  UNL1        0.0986
      4 C          -4.6866  -19.3020   22.1139 C.2     1  UNL1       -0.0134
      5 C          -5.9633  -20.0575   21.8919 C.2     1  UNL1       -0.0289
      6 C          -7.3670  -19.6361   22.2114 C.3     1  UNL1        0.0315
      7 C          -7.8405  -18.3551   22.8319 C.3     1  UNL1        0.0427
      8 C          -7.0276  -17.1793   23.2860 C.3     1  UNL1        0.0771
      9 C          -9.3233  -18.2341   23.0235 C.ar    1  UNL1       -0.0199
     10 C          -9.9847  -18.8966   24.1956 C.ar    1  UNL1       -0.0033
     11 C         -11.4675  -18.7755   24.3872 C.ar    1  UNL1        0.0119
     12 C         -12.2889  -17.9920   23.4067 C.ar    1  UNL1        0.0682
     13 CL        -13.7717  -17.8710   23.5984 Cl      1  UNL1       -0.0814
     14 C         -11.6276  -17.3296   22.2346 C.ar    1  UNL1        0.0679
     15 CL        -12.4490  -16.5461   21.2542 Cl      1  UNL1       -0.0814
     16 C         -10.1448  -17.4506   22.0430 C.ar    1  UNL1        0.0080
@<TRIPOS>BOND
     1     1     2    1
     2     2     3    1
     3     3     4    1
     4     4     5    2
     5     5     6    1
     6     6     7    1
     7     7     9    1
     8     9    10   ar
     9    10    11   ar
    10    11    12   ar
    11    12    13    1
    12    12    14   ar
    13    14    15    1
    14    14    16   ar
    15     7     8    1
    16     8     2    1
    17    16     9   ar
@<TRIPOS>MOLECULE
*****
 16 17 0 0 0
SMALL
GASTEIGER

@<TRIPOS>ATOM
      1 C          -3.6172  -17.8323   23.9553 C.3     1  UNL1        0.0899
      2 N          -4.0311  -18.6123   22.7428 N.3     1  UNL1       -0.2674
      3 C          -2.9230  -19.3005   22.0020 C.3     1  UNL1        0.0986
      4 C          -3.0085  -20.1472   20.7670 C.2     1  UNL1       -0.0134
      5 C          -4.2231  -20.5151   19.9674 C.2     1  UNL1       -0.0289
      6 C          -5.6523  -20.1270   20.2055 C.3     1  UNL1        0.0315
      7 C          -6.2198  -19.2751   21.3021 C.3     1  UNL1        0.0427
      8 C          -5.4984  -18.6010   22.4312 C.3     1  UNL1        0.0771
      9 C          -7.7053  -19.0703   21.2644 C.ar    1  UNL1       -0.0199
     10 C          -8.4711  -19.3621   20.0080 C.ar    1  UNL1       -0.0033
     11 C          -9.9566  -19.1573   19.9703 C.ar    1  UNL1        0.0119
     12 C         -10.6763  -18.6606   21.1891 C.ar    1  UNL1        0.0682
     13 CL        -12.1617  -18.4558   21.1514 Cl      1  UNL1       -0.0814
     14 C          -9.9105  -18.3687   22.4455 C.ar    1  UNL1        0.0679
     15 CL        -10.6302  -17.8720   23.6641 Cl      1  UNL1       -0.0814
     16 C          -8.4251  -18.5735   22.4831 C.ar    1  UNL1        0.0080
@<TRIPOS>BOND
     1     1     2    1
     2     2     3    1
     3     3     4    1
     4     4     5    2
     5     5     6    1
     6     6     7    1
     7     7     9    1
     8     9    10   ar
     9    10    11   ar
    10    11    12   ar
    11    12    13    1
    12    12    14   ar
    13    14    15    1
    14    14    16   ar
    15     7     8    1
    16     8     2    1
    17    16     9   ar
@<TRIPOS>MOLECULE
*****
 16 17 0 0 0
SMALL
GASTEIGER

@<TRIPOS>ATOM
      1 C         -12.5670   -2.3416   19.0020 C.3     1  UNL1        0.0899
      2 N         -11.9727   -3.7175   18.9412 N.3     1  UNL1       -0.2674
      3 C         -10.4746   -3.7819   18.9819 C.3     1  UNL1        0.0986
      4 C          -9.5890   -4.9917   18.9392 C.2     1  UNL1       -0.0134
      5 C          -9.9826   -6.4361   18.8453 C.2     1  UNL1       -0.0289
      6 C         -11.3592   -7.0273   18.7708 C.3     1  UNL1        0.0315
      7 C         -12.6820   -6.3201   18.7719 C.3     1  UNL1        0.0427
      8 C         -12.9551   -4.8473   18.8477 C.3     1  UNL1        0.0771
      9 C         -13.8918   -7.2028   18.6857 C.ar    1  UNL1       -0.0199
     10 C         -13.8196   -8.5041   17.9431 C.ar    1  UNL1       -0.0033
     11 C         -15.0294   -9.3867   17.8570 C.ar    1  UNL1        0.0119
     12 C         -16.3114   -8.9680   18.5135 C.ar    1  UNL1        0.0682
     13 CL        -17.5212   -9.8506   18.4273 Cl      1  UNL1       -0.0814
     14 C         -16.3838   -7.6667   19.2561 C.ar    1  UNL1        0.0679
     15 CL        -17.6658   -7.2480   19.9125 Cl      1  UNL1       -0.0814
     16 C         -15.1740   -6.7841   19.3422 C.ar    1  UNL1        0.0080
@<TRIPOS>BOND
     1     1     2    1
     2     2     3    1
     3     3     4    1
     4     4     5    2
     5     5     6    1
     6     6     7    1
     7     7     9    1
     8     9    10   ar
     9    10    11   ar
    10    11    12   ar
    11    12    13    1
    12    12    14   ar
    13    14    15    1
    14    14    16   ar
    15     7     8    1
    16     8     2    1
    17    16     9   ar
@<TRIPOS>MOLECULE
*****
 16 17 0 0 0
SMALL
GASTEIGER

@<TRIPOS>ATOM
      1 C         -18.8719   -7.7842   20.3777 C.3     1  UNL1        0.0899
      2 N         -17.7370   -8.4611   19.6679 N.3     1  UNL1       -0.2674
      3 C         -18.0093   -9.8555   19.1866 C.3     1  UNL1        0.0986
      4 C         -17.0918  -10.7872   18.4519 C.2     1  UNL1       -0.0134
      5 C         -15.6752  -10.5548   18.0169 C.2     1  UNL1       -0.0289
      6 C         -14.8263   -9.3331   18.2092 C.3     1  UNL1        0.0315
      7 C         -15.1844   -8.0423   18.8841 C.3     1  UNL1        0.0427
      8 C         -16.4796   -7.6542   19.5332 C.3     1  UNL1        0.0771
      9 C         -14.1042   -7.0019   18.9137 C.ar    1  UNL1       -0.0199
     10 C         -12.8162   -7.2369   18.1816 C.ar    1  UNL1       -0.0033
     11 C         -11.7360   -6.1965   18.2112 C.ar    1  UNL1        0.0119
     12 C         -11.9438   -4.9212   18.9729 C.ar    1  UNL1        0.0682
     13 CL        -10.8636   -3.8808   19.0025 Cl      1  UNL1       -0.0814
     14 C         -13.2318   -4.6861   19.7050 C.ar    1  UNL1        0.0679
     15 CL        -13.4395   -3.4108   20.4667 Cl      1  UNL1       -0.0814
     16 C         -14.3119   -5.7265   19.6754 C.ar    1  UNL1        0.0080
@<TRIPOS>BOND
     1     1     2    1
     2     2     3    1
     3     3     4    1
     4     4     5    2
     5     5     6    1
     6     6     7    1
     7     7     9    1
     8     9    10   ar
     9    10    11   ar
    10    11    12   ar
    11    12    13    1
    12    12    14   ar
    13    14    15    1
    14    14    16   ar
    15     7     8    1
    16     8     2    1
    17    16     9   ar
@<TRIPOS>MOLECULE
*****
 16 17 0 0 0
SMALL
GASTEIGER

@<TRIPOS>ATOM
      1 C         -12.4962    1.4117   17.2325 C.3     1  UNL1        0.0899
      2 N         -13.2715    0.4222   18.0509 N.3     1  UNL1       -0.2674
      3 C         -14.5818    0.9110   18.5935 C.3     1  UNL1        0.0986
      4 C         -15.5780    0.1730   19.4377 C.2     1  UNL1       -0.0134
      5 C         -15.5103   -1.2359   19.9479 C.2     1  UNL1       -0.0289
      6 C         -14.4294   -2.2550   19.7398 C.3     1  UNL1        0.0315
      7 C         -13.1494   -2.1166   18.9701 C.3     1  UNL1        0.0427
      8 C         -12.6340   -0.9253   18.2185 C.3     1  UNL1        0.0771
      9 C         -12.2681   -3.3303   18.9493 C.ar    1  UNL1       -0.0199
     10 C         -10.7771   -3.1738   18.9002 C.ar    1  UNL1       -0.0033
     11 C          -9.8958   -4.3875   18.8794 C.ar    1  UNL1        0.0119
     12 C         -10.5056   -5.7576   18.9078 C.ar    1  UNL1        0.0682
     13 CL         -9.6244   -6.9713   18.8870 Cl      1  UNL1       -0.0814
     14 C         -11.9967   -5.9142   18.9570 C.ar    1  UNL1        0.0679
     15 CL        -12.6064   -7.2843   18.9854 Cl      1  UNL1       -0.0814
     16 C         -12.8779   -4.7005   18.9777 C.ar    1  UNL1        0.0080
@<TRIPOS>BOND
     1     1     2    1
     2     2     3    1
     3     3     4    1
     4     4     5    2
     5     5     6    1
     6     6     7    1
     7     7     9    1
     8     9    10   ar
     9    10    11   ar
    10    11    12   ar
    11    12    13    1
    12    12    14   ar
    13    14    15    1
    14    14    16   ar
    15     7     8    1
    16     8     2    1
    17    16     9   ar
@<TRIPOS>MOLECULE
*****
 16 17 0 0 0
SMALL
GASTEIGER

@<TRIPOS>ATOM
      1 C           6.6519   -0.1632   17.3043 C.3     1  UNL1        0.0899
      2 N           5.6656   -1.0606   17.9913 N.3     1  UNL1       -0.2674
      3 C           6.0583   -2.5050   18.0894 C.3     1  UNL1        0.0986
      4 C           5.2994   -3.6403   18.7097 C.2     1  UNL1       -0.0134
      5 C           3.9604   -3.6119   19.3852 C.2     1  UNL1       -0.0289
      6 C           3.0496   -2.4410   19.6071 C.3     1  UNL1        0.0315
      7 C           3.2529   -1.0093   19.2084 C.3     1  UNL1        0.0427
      8 C           4.4170   -0.3949   18.4894 C.3     1  UNL1        0.0771
      9 C           2.1454   -0.0674   19.5777 C.ar    1  UNL1       -0.0199
     10 C           1.5354   -0.1268   20.9468 C.ar    1  UNL1       -0.0033
     11 C           0.4279    0.8151   21.3160 C.ar    1  UNL1        0.0119
     12 C          -0.0696    1.8164   20.3162 C.ar    1  UNL1        0.0682
     13 CL         -1.1771    2.7583   20.6854 Cl      1  UNL1       -0.0814
     14 C           0.5404    1.8759   18.9470 C.ar    1  UNL1        0.0679
     15 CL          0.0429    2.8773   17.9472 Cl      1  UNL1       -0.0814
     16 C           1.6478    0.9340   18.5778 C.ar    1  UNL1        0.0080
@<TRIPOS>BOND
     1     1     2    1
     2     2     3    1
     3     3     4    1
     4     4     5    2
     5     5     6    1
     6     6     7    1
     7     7     9    1
     8     9    10   ar
     9    10    11   ar
    10    11    12   ar
    11    12    13    1
    12    12    14   ar
    13    14    15    1
    14    14    16   ar
    15     7     8    1
    16     8     2    1
    17    16     9   ar
@<TRIPOS>MOLECULE
*****
 16 17 0 0 0
SMALL
GASTEIGER

@<TRIPOS>ATOM
      1 C           4.2190   -4.4378   18.8929 C.3     1  UNL1        0.0899
      2 N           4.0566   -3.5572   20.0962 N.3     1  UNL1       -0.2674
      3 C           4.7481   -4.0243   21.3428 C.3     1  UNL1        0.0986
      4 C           4.7779   -3.3755   22.6948 C.2     1  UNL1       -0.0134
      5 C           4.1236   -2.0993   23.1344 C.2     1  UNL1       -0.0289
      6 C           3.2779   -1.1567   22.3305 C.3     1  UNL1        0.0315
      7 C           2.8776   -1.2576   20.8884 C.3     1  UNL1        0.0427
      8 C           3.2241   -2.3258   19.8941 C.3     1  UNL1        0.0771
      9 C           2.0170   -0.1426   20.3724 C.ar    1  UNL1       -0.0199
     10 C           2.0037    0.1781   18.9071 C.ar    1  UNL1       -0.0033
     11 C           1.1430    1.2930   18.3911 C.ar    1  UNL1        0.0119
     12 C           0.2957    2.0872   19.3404 C.ar    1  UNL1        0.0682
     13 CL         -0.5650    3.2022   18.8245 Cl      1  UNL1       -0.0814
     14 C           0.3089    1.7666   20.8057 C.ar    1  UNL1        0.0679
     15 CL         -0.5384    2.5607   21.7550 Cl      1  UNL1       -0.0814
     16 C           1.1696    0.6516   21.3217 C.ar    1  UNL1        0.0080
@<TRIPOS>BOND
     1     1     2    1
     2     2     3    1
     3     3     4    1
     4     4     5    2
     5     5     6    1
     6     6     7    1
     7     7     9    1
     8     9    10   ar
     9    10    11   ar
    10    11    12   ar
    11    12    13    1
    12    12    14   ar
    13    14    15    1
    14    14    16   ar
    15     7     8    1
    16     8     2    1
    17    16     9   ar
