@<TRIPOS>MOLECULE
*****
 25 27 0 0 0
SMALL
GASTEIGER

@<TRIPOS>ATOM
      1 O          -6.6611  -17.0033   22.8103 O.2     1  UNL1       -0.2726
      2 C          -5.7662  -18.1737   22.5287 C.2     1  UNL1        0.2511
      3 N          -6.2769  -19.3316   21.7234 N.am    1  UNL1       -0.2823
      4 H          -5.6895  -20.0998   21.5386 H       1  UNL1        0.1549
      5 C          -7.6825  -19.3191   21.1998 C.ar    1  UNL1        0.0503
      6 C          -7.9457  -19.6054   19.7511 C.ar    1  UNL1        0.0147
      7 C          -9.3512  -19.5929   19.2275 C.ar    1  UNL1        0.0013
      8 C         -10.4936  -19.2941   20.1525 C.ar    1  UNL1        0.0001
      9 C         -10.2304  -19.0078   21.6012 C.ar    1  UNL1        0.0012
     10 C          -8.8248  -19.0203   22.1248 C.ar    1  UNL1        0.0147
     11 C         -11.3727  -18.7089   22.5263 C.ar    1  UNL1        0.0000
     12 C         -11.3259  -19.1756   23.9510 C.ar    1  UNL1        0.0000
     13 C         -12.4682  -18.8768   24.8761 C.ar    1  UNL1        0.0000
     14 C         -13.6574  -18.1113   24.3764 C.ar    1  UNL1        0.0000
     15 C         -13.7043  -17.6447   22.9516 C.ar    1  UNL1        0.0000
     16 C         -12.5620  -17.9435   22.0266 C.ar    1  UNL1        0.0000
     17 C          -4.3606  -18.1862   23.0524 C.3     1  UNL1        0.2141
     18 N          -3.2269  -17.7591   22.1679 N.ar    1  UNL1       -0.2155
     19 C          -2.5429  -16.4245   22.1940 C.ar    1  UNL1        0.2037
     20 N          -1.4714  -16.4322   21.1443 N.ar    1  UNL1       -0.1391
     21 C          -1.4932  -17.7717   20.4695 C.ar    1  UNL1        0.4880
     22 N          -2.5781  -18.5918   21.1021 N.ar    1  UNL1       -0.0790
     23 N          -0.5888  -18.2134   19.3573 N.pl3   1  UNL1        0.1230
     24 O           0.6463  -19.0070   19.6653 O.2     1  UNL1        0.0448
     25 O          -0.9195  -17.8616   17.9372 O.co2   1  UNL1       -0.5734
@<TRIPOS>UNITY_ATOM_ATTR
23 1
charge 1
25 1
charge -1
@<TRIPOS>BOND
     1     1     2    2
     2     2    17    1
     3    17    18    1
     4    18    19   ar
     5    19    20   ar
     6    20    21   ar
     7    21    23    1
     8    23    24    2
     9    23    25    1
    10    21    22   ar
    11     2     3   am
    12     3     5    1
    13     5     6   ar
    14     6     7   ar
    15     7     8   ar
    16     8     9   ar
    17     9    11    1
    18    11    12   ar
    19    12    13   ar
    20    13    14   ar
    21    14    15   ar
    22    15    16   ar
    23     9    10   ar
    24    22    18   ar
    25    10     5   ar
    26    16    11   ar
    27     3     4    1
@<TRIPOS>MOLECULE
*****
 25 27 0 0 0
SMALL
GASTEIGER

@<TRIPOS>ATOM
      1 O          -6.7057  -16.9398   22.7248 O.2     1  UNL1       -0.2726
      2 C          -5.8064  -18.1197   22.5029 C.2     1  UNL1        0.2511
      3 N          -6.3041  -19.3081   21.7348 N.am    1  UNL1       -0.2823
      4 H          -5.7138  -20.0824   21.5892 H       1  UNL1        0.1549
      5 C          -7.7011  -19.3166   21.1885 C.ar    1  UNL1        0.0503
      6 C          -7.9395  -19.6424   19.7439 C.ar    1  UNL1        0.0147
      7 C          -9.3364  -19.6510   19.1976 C.ar    1  UNL1        0.0013
      8 C         -10.4950  -19.3337   20.0960 C.ar    1  UNL1        0.0001
      9 C         -10.2566  -19.0079   21.5406 C.ar    1  UNL1        0.0012
     10 C          -8.8596  -18.9993   22.0869 C.ar    1  UNL1        0.0147
     11 C         -11.4151  -18.6906   22.4390 C.ar    1  UNL1        0.0000
     12 C         -12.5985  -17.9422   21.9009 C.ar    1  UNL1        0.0000
     13 C         -13.7570  -17.6250   22.7993 C.ar    1  UNL1        0.0000
     14 C         -13.7322  -18.0560   24.2358 C.ar    1  UNL1        0.0000
     15 C         -12.5489  -18.8043   24.7739 C.ar    1  UNL1        0.0000
     16 C         -11.3903  -19.1216   23.8755 C.ar    1  UNL1        0.0000
     17 C          -4.4094  -18.1111   23.0492 C.3     1  UNL1        0.2141
     18 N          -3.2641  -18.5515   22.1866 N.ar    1  UNL1       -0.2155
     19 C          -2.8294  -19.9681   21.9538 C.ar    1  UNL1        0.2037
     20 N          -1.6490  -19.9447   21.0286 N.ar    1  UNL1       -0.1391
     21 C          -1.3541  -18.5136   20.6895 C.ar    1  UNL1        0.4880
     22 N          -2.3523  -17.6526   21.4052 N.ar    1  UNL1       -0.0790
     23 N          -0.2541  -18.0287   19.7923 N.pl3   1  UNL1        0.1230
     24 O          -0.4951  -17.8893   18.3183 O.2     1  UNL1        0.0448
     25 O           1.0868  -17.6832   20.3691 O.co2   1  UNL1       -0.5734
@<TRIPOS>UNITY_ATOM_ATTR
23 1
charge 1
25 1
charge -1
@<TRIPOS>BOND
     1     1     2    2
     2     2    17    1
     3    17    18    1
     4    18    19   ar
     5    19    20   ar
     6    20    21   ar
     7    21    23    1
     8    23    24    2
     9    23    25    1
    10    21    22   ar
    11     2     3   am
    12     3     5    1
    13     5     6   ar
    14     6     7   ar
    15     7     8   ar
    16     8     9   ar
    17     9    11    1
    18    11    12   ar
    19    12    13   ar
    20    13    14   ar
    21    14    15   ar
    22    15    16   ar
    23     9    10   ar
    24    22    18   ar
    25    10     5   ar
    26    16    11   ar
    27     3     4    1
@<TRIPOS>MOLECULE
*****
 25 27 0 0 0
SMALL
GASTEIGER

@<TRIPOS>ATOM
      1 O          -7.9181  -18.5562   20.3082 O.2     1  UNL1       -0.2726
      2 C          -6.4952  -18.6946   20.7623 C.2     1  UNL1        0.2511
      3 N          -6.0536  -18.0622   22.0488 N.am    1  UNL1       -0.2823
      4 H          -5.1197  -18.1531   22.3468 H       1  UNL1        0.1549
      5 C          -7.0349  -17.2914   22.8812 C.ar    1  UNL1        0.0503
      6 C          -6.5692  -16.1256   23.7022 C.ar    1  UNL1        0.0147
      7 C          -7.5506  -15.3549   24.5346 C.ar    1  UNL1        0.0013
      8 C          -8.9976  -15.7500   24.5460 C.ar    1  UNL1        0.0001
      9 C          -9.4632  -16.9158   23.7251 C.ar    1  UNL1        0.0012
     10 C          -8.4819  -17.6865   22.8927 C.ar    1  UNL1        0.0147
     11 C         -10.9102  -17.3108   23.7365 C.ar    1  UNL1        0.0000
     12 C         -11.3794  -18.4141   24.6380 C.ar    1  UNL1        0.0000
     13 C         -12.8264  -18.8091   24.6494 C.ar    1  UNL1        0.0000
     14 C         -13.8042  -18.1010   23.7594 C.ar    1  UNL1        0.0000
     15 C         -13.3351  -16.9977   22.8579 C.ar    1  UNL1        0.0000
     16 C         -11.8881  -16.6026   22.8465 C.ar    1  UNL1        0.0000
     17 C          -5.5139  -19.4654   19.9298 C.3     1  UNL1        0.2141
     18 N          -4.0535  -19.4344   20.2711 N.ar    1  UNL1       -0.2155
     19 C          -3.3479  -20.3658   21.2114 C.ar    1  UNL1        0.2037
     20 N          -1.9007  -19.9736   21.2534 N.ar    1  UNL1       -0.1391
     21 C          -1.7119  -18.7996   20.3390 C.ar    1  UNL1        0.4880
     22 N          -3.0425  -18.4663   19.7318 N.ar    1  UNL1       -0.0790
     23 N          -0.4196  -18.0844   20.0776 N.pl3   1  UNL1        0.1230
     24 O          -0.3643  -16.5869   20.1441 O.2     1  UNL1        0.0448
     25 O           0.8175  -18.8668   19.7496 O.co2   1  UNL1       -0.5734
@<TRIPOS>UNITY_ATOM_ATTR
23 1
charge 1
25 1
charge -1
@<TRIPOS>BOND
     1     1     2    2
     2     2    17    1
     3    17    18    1
     4    18    19   ar
     5    19    20   ar
     6    20    21   ar
     7    21    23    1
     8    23    24    2
     9    23    25    1
    10    21    22   ar
    11     2     3   am
    12     3     5    1
    13     5     6   ar
    14     6     7   ar
    15     7     8   ar
    16     8     9   ar
    17     9    11    1
    18    11    12   ar
    19    12    13   ar
    20    13    14   ar
    21    14    15   ar
    22    15    16   ar
    23     9    10   ar
    24    22    18   ar
    25    10     5   ar
    26    16    11   ar
    27     3     4    1
@<TRIPOS>MOLECULE
*****
 25 27 0 0 0
SMALL
GASTEIGER

@<TRIPOS>ATOM
      1 O          -6.2823  -18.1368   21.7462 O.2     1  UNL1       -0.2726
      2 C          -6.7318  -18.8123   20.4847 C.2     1  UNL1        0.2511
      3 N          -8.1942  -19.0259   20.2283 N.am    1  UNL1       -0.2823
      4 H          -8.4892  -19.4693   19.4003 H       1  UNL1        0.1549
      5 C          -9.2071  -18.5640   21.2337 C.ar    1  UNL1        0.0503
      6 C         -10.6712  -18.6624   20.9227 C.ar    1  UNL1        0.0147
      7 C         -11.6841  -18.2004   21.9280 C.ar    1  UNL1        0.0013
      8 C         -11.2329  -17.6401   23.2442 C.ar    1  UNL1        0.0001
      9 C          -9.7688  -17.5418   23.5552 C.ar    1  UNL1        0.0012
     10 C          -8.7559  -18.0037   22.5499 C.ar    1  UNL1        0.0147
     11 C          -9.3176  -16.9815   24.8714 C.ar    1  UNL1        0.0000
     12 C          -9.4015  -17.8204   26.1120 C.ar    1  UNL1        0.0000
     13 C          -8.9503  -17.2601   27.4282 C.ar    1  UNL1        0.0000
     14 C          -8.4152  -15.8609   27.5039 C.ar    1  UNL1        0.0000
     15 C          -8.3313  -15.0219   26.2633 C.ar    1  UNL1        0.0000
     16 C          -8.7825  -15.5822   24.9471 C.ar    1  UNL1        0.0000
     17 C          -5.7188  -19.2743   19.4793 C.3     1  UNL1        0.2141
     18 N          -4.2691  -19.3519   19.8566 N.ar    1  UNL1       -0.2155
     19 C          -3.6064  -20.4850   20.5825 C.ar    1  UNL1        0.2037
     20 N          -2.1554  -20.1434   20.7488 N.ar    1  UNL1       -0.1391
     21 C          -1.9212  -18.7991   20.1256 C.ar    1  UNL1        0.4880
     22 N          -3.2276  -18.3100   19.5743 N.ar    1  UNL1       -0.0790
     23 N          -0.6108  -18.0718   20.0646 N.pl3   1  UNL1        0.1230
     24 O          -0.5616  -16.5929   20.3107 O.2     1  UNL1        0.0448
     25 O           0.6505  -18.8233   19.7576 O.co2   1  UNL1       -0.5734
@<TRIPOS>UNITY_ATOM_ATTR
23 1
charge 1
25 1
charge -1
@<TRIPOS>BOND
     1     1     2    2
     2     2    17    1
     3    17    18    1
     4    18    19   ar
     5    19    20   ar
     6    20    21   ar
     7    21    23    1
     8    23    24    2
     9    23    25    1
    10    21    22   ar
    11     2     3   am
    12     3     5    1
    13     5     6   ar
    14     6     7   ar
    15     7     8   ar
    16     8     9   ar
    17     9    11    1
    18    11    12   ar
    19    12    13   ar
    20    13    14   ar
    21    14    15   ar
    22    15    16   ar
    23     9    10   ar
    24    22    18   ar
    25    10     5   ar
    26    16    11   ar
    27     3     4    1
@<TRIPOS>MOLECULE
*****
 25 27 0 0 0
SMALL
GASTEIGER

@<TRIPOS>ATOM
      1 O          -5.9770  -21.4693   19.8169 O.2     1  UNL1       -0.2726
      2 C          -5.4501  -20.1723   20.3558 C.2     1  UNL1        0.2511
      3 N          -6.3889  -19.0320   20.6168 N.am    1  UNL1       -0.2823
      4 H          -6.0430  -18.1808   20.9705 H       1  UNL1        0.1549
      5 C          -7.8546  -19.1885   20.3390 C.ar    1  UNL1        0.0503
      6 C          -8.3170  -19.6475   18.9879 C.ar    1  UNL1        0.0147
      7 C          -9.7827  -19.8040   18.7101 C.ar    1  UNL1        0.0013
      8 C         -10.7860  -19.5014   19.7834 C.ar    1  UNL1        0.0001
      9 C         -10.3236  -19.0424   21.1344 C.ar    1  UNL1        0.0012
     10 C          -8.8579  -18.8859   21.4122 C.ar    1  UNL1        0.0147
     11 C         -11.3268  -18.7398   22.2077 C.ar    1  UNL1        0.0000
     12 C         -12.5515  -17.9363   21.8846 C.ar    1  UNL1        0.0000
     13 C         -13.5548  -17.6338   22.9579 C.ar    1  UNL1        0.0000
     14 C         -13.3334  -18.1347   24.3543 C.ar    1  UNL1        0.0000
     15 C         -12.1087  -18.9382   24.6774 C.ar    1  UNL1        0.0000
     16 C         -11.1054  -19.2408   23.6041 C.ar    1  UNL1        0.0000
     17 C          -3.9843  -20.0158   20.6336 C.3     1  UNL1        0.2141
     18 N          -3.5251  -19.1676   21.7823 N.ar    1  UNL1       -0.2155
     19 C          -2.1758  -18.5271   21.9212 C.ar    1  UNL1        0.2037
     20 N          -2.1513  -17.7746   23.2185 N.ar    1  UNL1       -0.1391
     21 C          -3.4855  -17.9499   23.8815 C.ar    1  UNL1        0.4880
     22 N          -4.3345  -18.8109   22.9938 N.ar    1  UNL1       -0.0790
     23 N          -3.8981  -17.3668   25.2004 N.pl3   1  UNL1        0.1230
     24 O          -4.8378  -16.1984   25.2428 O.2     1  UNL1        0.0448
     25 O          -3.3709  -17.9520   26.4770 O.co2   1  UNL1       -0.5734
@<TRIPOS>UNITY_ATOM_ATTR
23 1
charge 1
25 1
charge -1
@<TRIPOS>BOND
     1     1     2    2
     2     2    17    1
     3    17    18    1
     4    18    19   ar
     5    19    20   ar
     6    20    21   ar
     7    21    23    1
     8    23    24    2
     9    23    25    1
    10    21    22   ar
    11     2     3   am
    12     3     5    1
    13     5     6   ar
    14     6     7   ar
    15     7     8   ar
    16     8     9   ar
    17     9    11    1
    18    11    12   ar
    19    12    13   ar
    20    13    14   ar
    21    14    15   ar
    22    15    16   ar
    23     9    10   ar
    24    22    18   ar
    25    10     5   ar
    26    16    11   ar
    27     3     4    1
@<TRIPOS>MOLECULE
*****
 25 27 0 0 0
SMALL
GASTEIGER

@<TRIPOS>ATOM
      1 O          -9.0791  -20.4541   18.3349 O.2     1  UNL1       -0.2726
      2 C          -9.3787  -19.3834   19.3418 C.2     1  UNL1        0.2511
      3 N          -8.3158  -18.9384   20.3021 N.am    1  UNL1       -0.2823
      4 H          -8.5124  -18.2357   20.9630 H       1  UNL1        0.1549
      5 C          -6.9533  -19.5641   20.2555 C.ar    1  UNL1        0.0503
      6 C          -6.8152  -21.0553   20.1719 C.ar    1  UNL1        0.0147
      7 C          -5.4527  -21.6809   20.1252 C.ar    1  UNL1        0.0013
      8 C          -4.2283  -20.8153   20.1623 C.ar    1  UNL1        0.0001
      9 C          -4.3663  -19.3240   20.2459 C.ar    1  UNL1        0.0012
     10 C          -5.7288  -18.6984   20.2925 C.ar    1  UNL1        0.0147
     11 C          -3.1419  -18.4584   20.2829 C.ar    1  UNL1        0.0000
     12 C          -2.1275  -18.5466   19.1815 C.ar    1  UNL1        0.0000
     13 C          -0.9030  -17.6809   19.2185 C.ar    1  UNL1        0.0000
     14 C          -0.6930  -16.7270   20.3569 C.ar    1  UNL1        0.0000
     15 C          -1.7074  -16.6389   21.4583 C.ar    1  UNL1        0.0000
     16 C          -2.9319  -17.5045   21.4213 C.ar    1  UNL1        0.0000
     17 C         -10.7412  -18.7577   19.3884 C.3     1  UNL1        0.2141
     18 N         -11.3345  -18.3496   20.7043 N.ar    1  UNL1       -0.2155
     19 C         -12.2045  -17.1517   20.9455 C.ar    1  UNL1        0.2037
     20 N         -12.5696  -17.1294   22.4002 N.ar    1  UNL1       -0.1391
     21 C         -11.9252  -18.3135   23.0581 C.ar    1  UNL1        0.4880
     22 N         -11.1619  -19.0676   22.0099 N.ar    1  UNL1       -0.0790
     23 N         -12.0264  -18.6792   24.5093 N.pl3   1  UNL1        0.1230
     24 O         -13.3513  -18.6112   25.2092 O.2     1  UNL1        0.0448
     25 O         -10.8027  -19.1130   25.2604 O.co2   1  UNL1       -0.5734
@<TRIPOS>UNITY_ATOM_ATTR
23 1
charge 1
25 1
charge -1
@<TRIPOS>BOND
     1     1     2    2
     2     2    17    1
     3    17    18    1
     4    18    19   ar
     5    19    20   ar
     6    20    21   ar
     7    21    23    1
     8    23    24    2
     9    23    25    1
    10    21    22   ar
    11     2     3   am
    12     3     5    1
    13     5     6   ar
    14     6     7   ar
    15     7     8   ar
    16     8     9   ar
    17     9    11    1
    18    11    12   ar
    19    12    13   ar
    20    13    14   ar
    21    14    15   ar
    22    15    16   ar
    23     9    10   ar
    24    22    18   ar
    25    10     5   ar
    26    16    11   ar
    27     3     4    1
@<TRIPOS>MOLECULE
*****
 25 27 0 0 0
SMALL
GASTEIGER

@<TRIPOS>ATOM
      1 O          -6.0980  -17.0978   23.1412 O.2     1  UNL1       -0.2726
      2 C          -7.4374  -17.7293   22.9018 C.2     1  UNL1        0.2511
      3 N          -7.5551  -18.9165   21.9926 N.am    1  UNL1       -0.2823
      4 H          -8.4342  -19.3309   21.8355 H       1  UNL1        0.1549
      5 C          -6.3334  -19.4723   21.3228 C.ar    1  UNL1        0.0503
      6 C          -6.3658  -20.8478   20.7254 C.ar    1  UNL1        0.0147
      7 C          -5.1442  -21.4035   20.0556 C.ar    1  UNL1        0.0013
      8 C          -3.8901  -20.5837   19.9832 C.ar    1  UNL1        0.0001
      9 C          -3.8577  -19.2082   20.5806 C.ar    1  UNL1        0.0012
     10 C          -5.0793  -18.6525   21.2504 C.ar    1  UNL1        0.0147
     11 C          -2.6036  -18.3885   20.5082 C.ar    1  UNL1        0.0000
     12 C          -1.4563  -18.8464   19.6574 C.ar    1  UNL1        0.0000
     13 C          -0.2022  -18.0267   19.5850 C.ar    1  UNL1        0.0000
     14 C          -0.0954  -16.7489   20.3633 C.ar    1  UNL1        0.0000
     15 C          -1.2427  -16.2910   21.2141 C.ar    1  UNL1        0.0000
     16 C          -2.4968  -17.1107   21.2865 C.ar    1  UNL1        0.0000
     17 C          -8.6591  -17.1735   23.5716 C.3     1  UNL1        0.2141
     18 N          -9.8196  -16.7043   22.7452 N.ar    1  UNL1       -0.2155
     19 C         -11.2301  -16.5297   23.2248 C.ar    1  UNL1        0.2037
     20 N         -12.0556  -16.0448   22.0702 N.ar    1  UNL1       -0.1391
     21 C         -11.1554  -15.9197   20.8768 C.ar    1  UNL1        0.4880
     22 N          -9.7734  -16.3273   21.2941 N.ar    1  UNL1       -0.0790
     23 N         -11.5651  -15.4665   19.5069 N.pl3   1  UNL1        0.1230
     24 O         -10.5712  -14.7845   18.6140 O.2     1  UNL1        0.0448
     25 O         -12.9687  -15.6953   19.0299 O.co2   1  UNL1       -0.5734
@<TRIPOS>UNITY_ATOM_ATTR
23 1
charge 1
25 1
charge -1
@<TRIPOS>BOND
     1     1     2    2
     2     2    17    1
     3    17    18    1
     4    18    19   ar
     5    19    20   ar
     6    20    21   ar
     7    21    23    1
     8    23    24    2
     9    23    25    1
    10    21    22   ar
    11     2     3   am
    12     3     5    1
    13     5     6   ar
    14     6     7   ar
    15     7     8   ar
    16     8     9   ar
    17     9    11    1
    18    11    12   ar
    19    12    13   ar
    20    13    14   ar
    21    14    15   ar
    22    15    16   ar
    23     9    10   ar
    24    22    18   ar
    25    10     5   ar
    26    16    11   ar
    27     3     4    1
@<TRIPOS>MOLECULE
*****
 25 27 0 0 0
SMALL
GASTEIGER

@<TRIPOS>ATOM
      1 O         -13.1930   -7.9971   16.4766 O.2     1  UNL1       -0.2726
      2 C         -13.7664   -8.3509   17.8168 C.2     1  UNL1        0.2511
      3 N         -13.2780   -7.6505   19.0500 N.am    1  UNL1       -0.2823
      4 H         -13.6544   -7.8827   19.9296 H       1  UNL1        0.1549
      5 C         -12.2162   -6.5963   18.9431 C.ar    1  UNL1        0.0503
      6 C         -10.7683   -6.9790   19.0271 C.ar    1  UNL1        0.0147
      7 C          -9.7066   -5.9249   18.9202 C.ar    1  UNL1        0.0013
      8 C         -10.0927   -4.4881   18.7293 C.ar    1  UNL1        0.0001
      9 C         -11.5406   -4.1054   18.6453 C.ar    1  UNL1        0.0012
     10 C         -12.6024   -5.1595   18.7522 C.ar    1  UNL1        0.0147
     11 C         -11.9268   -2.6686   18.4544 C.ar    1  UNL1        0.0000
     12 C         -10.9898   -1.7261   17.7590 C.ar    1  UNL1        0.0000
     13 C         -11.3759   -0.2893   17.5681 C.ar    1  UNL1        0.0000
     14 C         -12.6991    0.2051   18.0727 C.ar    1  UNL1        0.0000
     15 C         -13.6362   -0.7374   18.7681 C.ar    1  UNL1        0.0000
     16 C         -13.2500   -2.1742   18.9590 C.ar    1  UNL1        0.0000
     17 C         -14.8282   -9.4050   17.9237 C.3     1  UNL1        0.2141
     18 N         -16.1463   -9.0799   18.5617 N.ar    1  UNL1       -0.2155
     19 C         -17.1414  -10.0730   19.0847 C.ar    1  UNL1        0.2037
     20 N         -18.3108   -9.3115   19.6349 N.ar    1  UNL1       -0.1391
     21 C         -18.0384   -7.8478   19.4519 C.ar    1  UNL1        0.4880
     22 N         -16.7006   -7.7047   18.7886 N.ar    1  UNL1       -0.0790
     23 N         -18.9446   -6.7245   19.8605 N.pl3   1  UNL1        0.1230
     24 O         -18.5657   -5.3059   19.5541 O.2     1  UNL1        0.0448
     25 O         -20.2297   -7.0199   20.5755 O.co2   1  UNL1       -0.5734
@<TRIPOS>UNITY_ATOM_ATTR
23 1
charge 1
25 1
charge -1
@<TRIPOS>BOND
     1     1     2    2
     2     2    17    1
     3    17    18    1
     4    18    19   ar
     5    19    20   ar
     6    20    21   ar
     7    21    23    1
     8    23    24    2
     9    23    25    1
    10    21    22   ar
    11     2     3   am
    12     3     5    1
    13     5     6   ar
    14     6     7   ar
    15     7     8   ar
    16     8     9   ar
    17     9    11    1
    18    11    12   ar
    19    12    13   ar
    20    13    14   ar
    21    14    15   ar
    22    15    16   ar
    23     9    10   ar
    24    22    18   ar
    25    10     5   ar
    26    16    11   ar
    27     3     4    1
@<TRIPOS>MOLECULE
*****
 25 27 0 0 0
SMALL
GASTEIGER

@<TRIPOS>ATOM
      1 O          -5.9119  -16.6058   23.1189 O.2     1  UNL1       -0.2726
      2 C          -7.2442  -17.2902   23.1991 C.2     1  UNL1        0.2511
      3 N          -7.4690  -18.5818   22.4702 N.am    1  UNL1       -0.2823
      4 H          -8.3435  -19.0310   22.5229 H       1  UNL1        0.1549
      5 C          -6.3614  -19.1890   21.6611 C.ar    1  UNL1        0.0503
      6 C          -6.5567  -20.5236   21.0049 C.ar    1  UNL1        0.0147
      7 C          -5.4492  -21.1307   20.1958 C.ar    1  UNL1        0.0013
      8 C          -4.1464  -20.4032   20.0429 C.ar    1  UNL1        0.0001
      9 C          -3.9511  -19.0686   20.6990 C.ar    1  UNL1        0.0012
     10 C          -5.0586  -18.4615   21.5081 C.ar    1  UNL1        0.0147
     11 C          -2.6483  -18.3411   20.5461 C.ar    1  UNL1        0.0000
     12 C          -1.5759  -18.9015   19.6596 C.ar    1  UNL1        0.0000
     13 C          -0.2730  -18.1740   19.5067 C.ar    1  UNL1        0.0000
     14 C          -0.0426  -16.8861   20.2401 C.ar    1  UNL1        0.0000
     15 C          -1.1150  -16.3256   21.1266 C.ar    1  UNL1        0.0000
     16 C          -2.4178  -17.0531   21.2795 C.ar    1  UNL1        0.0000
     17 C          -8.3518  -16.6830   24.0083 C.3     1  UNL1        0.2141
     18 N          -9.6734  -17.3842   24.1157 N.ar    1  UNL1       -0.2155
     19 C          -9.9946  -18.5239   25.0365 C.ar    1  UNL1        0.2037
     20 N         -11.4256  -18.9128   24.8111 N.ar    1  UNL1       -0.1391
     21 C         -11.9890  -18.0134   23.7510 C.ar    1  UNL1        0.4880
     22 N         -10.9061  -17.0687   23.3212 N.ar    1  UNL1       -0.0790
     23 N         -13.3893  -18.0521   23.2148 N.pl3   1  UNL1        0.1230
     24 O         -13.6310  -17.9329   21.7392 O.2     1  UNL1        0.0448
     25 O         -14.5480  -18.2098   24.1543 O.co2   1  UNL1       -0.5734
@<TRIPOS>UNITY_ATOM_ATTR
23 1
charge 1
25 1
charge -1
@<TRIPOS>BOND
     1     1     2    2
     2     2    17    1
     3    17    18    1
     4    18    19   ar
     5    19    20   ar
     6    20    21   ar
     7    21    23    1
     8    23    24    2
     9    23    25    1
    10    21    22   ar
    11     2     3   am
    12     3     5    1
    13     5     6   ar
    14     6     7   ar
    15     7     8   ar
    16     8     9   ar
    17     9    11    1
    18    11    12   ar
    19    12    13   ar
    20    13    14   ar
    21    14    15   ar
    22    15    16   ar
    23     9    10   ar
    24    22    18   ar
    25    10     5   ar
    26    16    11   ar
    27     3     4    1
