@<TRIPOS>MOLECULE
*****
 29 32 0 0 0
SMALL
GASTEIGER

@<TRIPOS>ATOM
      1 N          -5.9053  -18.0443   22.4557 N.ar    1  UNL1       -0.3028
      2 C          -6.9446  -19.1014   22.2261 C.ar    1  UNL1        0.0833
      3 C          -8.1773  -18.7123   22.9871 C.ar    1  UNL1        0.0579
      4 C          -7.8999  -17.4149   23.6869 C.ar    1  UNL1        0.0207
      5 C          -8.7445  -16.5561   24.5808 C.ar    1  UNL1        0.0016
      6 C          -8.1850  -15.2844   25.1462 C.ar    1  UNL1        0.0001
      7 C          -6.7808  -14.8716   24.8177 C.ar    1  UNL1        0.0015
      8 C          -5.9362  -15.7304   23.9239 C.ar    1  UNL1        0.0175
      9 C          -6.4958  -17.0020   23.3585 C.ar    1  UNL1        0.0642
     10 C          -1.7464  -18.0067   20.7374 C.ar    1  UNL1        0.0163
     11 C          -1.9886  -17.4955   22.1266 C.ar    1  UNL1        0.0028
     12 C          -3.3749  -17.5081   22.6993 C.ar    1  UNL1        0.0198
     13 C          -4.5190  -18.0318   21.8829 C.ar    1  UNL1        0.0916
     14 C          -4.2768  -18.5430   20.4936 C.ar    1  UNL1        0.1561
     15 F          -5.4209  -19.0668   19.6771 F       1  UNL1       -0.2026
     16 C          -2.8905  -18.5304   19.9209 C.ar    1  UNL1        0.0323
     17 O           0.4124  -16.7101   20.0988 O.co2   1  UNL1       -0.5446
     18 C          -0.3601  -17.9941   20.1646 C.2     1  UNL1        0.0729
     19 O           0.2535  -19.2655   19.6578 O.co2   1  UNL1       -0.5446
     20 C          -9.4619  -19.4851   23.0392 C.2     1  UNL1        0.1987
     21 O          -9.4666  -20.8996   23.5381 O.2     1  UNL1       -0.2865
     22 C         -10.7419  -18.8432   22.5921 C.ar    1  UNL1        0.0601
     23 C         -10.9522  -18.5192   21.1427 C.ar    1  UNL1        0.0615
     24 CL         -9.8824  -18.8370   20.1404 Cl      1  UNL1       -0.0821
     25 C         -12.2321  -17.8774   20.6957 C.ar    1  UNL1        0.0115
     26 C         -13.3017  -17.5596   21.6981 C.ar    1  UNL1        0.0017
     27 C         -13.0914  -17.8836   23.1475 C.ar    1  UNL1        0.0115
     28 C         -11.8115  -18.5255   23.5946 C.ar    1  UNL1        0.0615
     29 CL        -11.6013  -18.8495   25.0440 Cl      1  UNL1       -0.0821
@<TRIPOS>UNITY_ATOM_ATTR
17 1
charge -1
@<TRIPOS>BOND
     1    17    18   ar
     2    18    19   ar
     3    18    10    1
     4    10    11   ar
     5    11    12   ar
     6    12    13   ar
     7    13     1    1
     8     1     2   ar
     9     2     3   ar
    10     3    20    1
    11    20    21    2
    12    20    22    1
    13    22    23   ar
    14    23    24    1
    15    23    25   ar
    16    25    26   ar
    17    26    27   ar
    18    27    28   ar
    19    28    29    1
    20     3     4   ar
    21     4     5   ar
    22     5     6   ar
    23     6     7   ar
    24     7     8   ar
    25     8     9   ar
    26    13    14   ar
    27    14    15    1
    28    14    16   ar
    29    16    10   ar
    30     9     1   ar
    31    28    22   ar
    32     9     4   ar
@<TRIPOS>MOLECULE
*****
 29 32 0 0 0
SMALL
GASTEIGER

@<TRIPOS>ATOM
      1 N          -5.8952  -18.0406   22.4481 N.ar    1  UNL1       -0.3028
      2 C          -6.9348  -19.0970   22.2176 C.ar    1  UNL1        0.0833
      3 C          -8.1680  -18.7072   22.9775 C.ar    1  UNL1        0.0579
      4 C          -7.8905  -17.4100   23.6776 C.ar    1  UNL1        0.0207
      5 C          -8.7354  -16.5507   24.5708 C.ar    1  UNL1        0.0016
      6 C          -8.1756  -15.2794   25.1367 C.ar    1  UNL1        0.0001
      7 C          -6.7709  -14.8674   24.8096 C.ar    1  UNL1        0.0015
      8 C          -5.9260  -15.7267   23.9164 C.ar    1  UNL1        0.0175
      9 C          -6.4858  -16.9980   23.3504 C.ar    1  UNL1        0.0642
     10 C          -1.7347  -18.0053   20.7336 C.ar    1  UNL1        0.0163
     11 C          -1.9773  -17.4972   22.1239 C.ar    1  UNL1        0.0028
     12 C          -3.3641  -17.5090   22.6954 C.ar    1  UNL1        0.0198
     13 C          -4.5083  -18.0288   21.8766 C.ar    1  UNL1        0.0916
     14 C          -4.2657  -18.5369   20.4862 C.ar    1  UNL1        0.1561
     15 F          -5.4100  -19.0568   19.6674 F       1  UNL1       -0.2026
     16 C          -2.8789  -18.5252   19.9148 C.ar    1  UNL1        0.0323
     17 O           0.4245  -16.7095   20.0944 O.co2   1  UNL1       -0.5446
     18 C          -0.3479  -17.9935   20.1621 C.2     1  UNL1        0.0729
     19 O           0.2666  -19.2658   19.6584 O.co2   1  UNL1       -0.5446
     20 C          -9.4531  -19.4792   23.0284 C.2     1  UNL1        0.1987
     21 O          -9.4595  -20.8928   23.5299 O.2     1  UNL1       -0.2865
     22 C         -10.7318  -18.8375   22.5776 C.ar    1  UNL1        0.0601
     23 C         -11.8040  -18.5189   23.5771 C.ar    1  UNL1        0.0615
     24 CL        -11.5974  -18.8420   25.0273 Cl      1  UNL1       -0.0821
     25 C         -13.0827  -17.8772   23.1265 C.ar    1  UNL1        0.0115
     26 C         -13.2893  -17.5541   21.6763 C.ar    1  UNL1        0.0017
     27 C         -12.2171  -17.8727   20.6769 C.ar    1  UNL1        0.0115
     28 C         -10.9384  -18.5144   21.1275 C.ar    1  UNL1        0.0615
     29 CL         -9.8662  -18.8330   20.1280 Cl      1  UNL1       -0.0821
@<TRIPOS>UNITY_ATOM_ATTR
17 1
charge -1
@<TRIPOS>BOND
     1    17    18   ar
     2    18    19   ar
     3    18    10    1
     4    10    11   ar
     5    11    12   ar
     6    12    13   ar
     7    13     1    1
     8     1     2   ar
     9     2     3   ar
    10     3    20    1
    11    20    21    2
    12    20    22    1
    13    22    23   ar
    14    23    24    1
    15    23    25   ar
    16    25    26   ar
    17    26    27   ar
    18    27    28   ar
    19    28    29    1
    20     3     4   ar
    21     4     5   ar
    22     5     6   ar
    23     6     7   ar
    24     7     8   ar
    25     8     9   ar
    26    13    14   ar
    27    14    15    1
    28    14    16   ar
    29    16    10   ar
    30     9     1   ar
    31    28    22   ar
    32     9     4   ar
@<TRIPOS>MOLECULE
*****
 29 32 0 0 0
SMALL
GASTEIGER

@<TRIPOS>ATOM
      1 N          -6.0227  -18.1891   21.6436 N.ar    1  UNL1       -0.3028
      2 C          -6.5914  -17.5472   22.8743 C.ar    1  UNL1        0.0833
      3 C          -8.0733  -17.7791   22.8753 C.ar    1  UNL1        0.0579
      4 C          -8.4206  -18.5643   21.6452 C.ar    1  UNL1        0.0207
      5 C          -9.7270  -19.0812   21.1200 C.ar    1  UNL1        0.0016
      6 C          -9.7661  -19.8515   19.8336 C.ar    1  UNL1        0.0001
      7 C          -8.4987  -20.1050   19.0724 C.ar    1  UNL1        0.0015
      8 C          -7.1922  -19.5880   19.5976 C.ar    1  UNL1        0.0175
      9 C          -7.1532  -18.8177   20.8840 C.ar    1  UNL1        0.0642
     10 C          -1.6863  -18.2233   20.4413 C.ar    1  UNL1        0.0163
     11 C          -2.7562  -18.2869   19.3918 C.ar    1  UNL1        0.0028
     12 C          -4.2016  -18.2755   19.7926 C.ar    1  UNL1        0.0198
     13 C          -4.5773  -18.2005   21.2428 C.ar    1  UNL1        0.0916
     14 C          -3.5074  -18.1369   22.2924 C.ar    1  UNL1        0.1561
     15 F          -3.8830  -18.0619   23.7426 F       1  UNL1       -0.2026
     16 C          -2.0620  -18.1483   21.8916 C.ar    1  UNL1        0.0323
     17 O           0.5419  -16.9553   20.0210 O.co2   1  UNL1       -0.5446
     18 C          -0.2409  -18.2346   20.0405 C.2     1  UNL1        0.0729
     19 O           0.4216  -19.5253   19.6594 O.co2   1  UNL1       -0.5446
     20 C          -9.0386  -17.3084   23.9225 C.2     1  UNL1        0.1987
     21 O          -8.5319  -16.6160   25.1527 O.2     1  UNL1       -0.2865
     22 C         -10.5109  -17.5302   23.7393 C.ar    1  UNL1        0.0601
     23 C         -11.2017  -18.6330   24.4854 C.ar    1  UNL1        0.0615
     24 CL        -10.4203  -19.5140   25.4145 Cl      1  UNL1       -0.0821
     25 C         -12.6739  -18.8548   24.3023 C.ar    1  UNL1        0.0115
     26 C         -13.4552  -17.9738   23.3732 C.ar    1  UNL1        0.0017
     27 C         -12.7644  -16.8709   22.6272 C.ar    1  UNL1        0.0115
     28 C         -11.2922  -16.6491   22.8102 C.ar    1  UNL1        0.0615
     29 CL        -10.6014  -15.5463   22.0642 Cl      1  UNL1       -0.0821
@<TRIPOS>UNITY_ATOM_ATTR
17 1
charge -1
@<TRIPOS>BOND
     1    17    18   ar
     2    18    19   ar
     3    18    10    1
     4    10    11   ar
     5    11    12   ar
     6    12    13   ar
     7    13     1    1
     8     1     2   ar
     9     2     3   ar
    10     3    20    1
    11    20    21    2
    12    20    22    1
    13    22    23   ar
    14    23    24    1
    15    23    25   ar
    16    25    26   ar
    17    26    27   ar
    18    27    28   ar
    19    28    29    1
    20     3     4   ar
    21     4     5   ar
    22     5     6   ar
    23     6     7   ar
    24     7     8   ar
    25     8     9   ar
    26    13    14   ar
    27    14    15    1
    28    14    16   ar
    29    16    10   ar
    30     9     1   ar
    31    28    22   ar
    32     9     4   ar
@<TRIPOS>MOLECULE
*****
 29 32 0 0 0
SMALL
GASTEIGER

@<TRIPOS>ATOM
      1 N          -6.0311  -18.1911   21.6465 N.ar    1  UNL1       -0.3028
      2 C          -6.5986  -17.5502   22.8782 C.ar    1  UNL1        0.0833
      3 C          -8.0808  -17.7805   22.8796 C.ar    1  UNL1        0.0579
      4 C          -8.4294  -18.5636   21.6487 C.ar    1  UNL1        0.0207
      5 C          -9.7367  -19.0784   21.1233 C.ar    1  UNL1        0.0016
      6 C          -9.7771  -19.8470   19.8359 C.ar    1  UNL1        0.0001
      7 C          -8.5103  -20.1008   19.0737 C.ar    1  UNL1        0.0015
      8 C          -7.2031  -19.5860   19.5991 C.ar    1  UNL1        0.0175
      9 C          -7.1626  -18.8174   20.8865 C.ar    1  UNL1        0.0642
     10 C          -1.6953  -18.2284   20.4423 C.ar    1  UNL1        0.0163
     11 C          -2.7647  -18.3604   19.3988 C.ar    1  UNL1        0.0028
     12 C          -4.2100  -18.3480   19.8002 C.ar    1  UNL1        0.0198
     13 C          -4.5859  -18.2035   21.2451 C.ar    1  UNL1        0.0916
     14 C          -3.5164  -18.0715   22.2887 C.ar    1  UNL1        0.1561
     15 F          -3.8923  -17.9271   23.7336 F       1  UNL1       -0.2026
     16 C          -2.0712  -18.0840   21.8873 C.ar    1  UNL1        0.0323
     17 O           0.5368  -16.9638   20.0322 O.co2   1  UNL1       -0.5446
     18 C          -0.2501  -18.2408   20.0409 C.2     1  UNL1        0.0729
     19 O           0.4082  -19.5302   19.6483 O.co2   1  UNL1       -0.5446
     20 C          -9.0452  -17.3101   23.9278 C.2     1  UNL1        0.1987
     21 O          -8.5370  -16.6218   25.1598 O.2     1  UNL1       -0.2865
     22 C         -10.5179  -17.5281   23.7440 C.ar    1  UNL1        0.0601
     23 C         -11.2972  -16.6429   22.8172 C.ar    1  UNL1        0.0615
     24 CL        -10.6038  -15.5397   22.0741 Cl      1  UNL1       -0.0821
     25 C         -12.7698  -16.8609   22.6334 C.ar    1  UNL1        0.0115
     26 C         -13.4631  -17.9641   23.3765 C.ar    1  UNL1        0.0017
     27 C         -12.6838  -18.8493   24.3033 C.ar    1  UNL1        0.0115
     28 C         -11.2112  -18.6314   24.4871 C.ar    1  UNL1        0.0615
     29 CL        -10.4319  -19.5166   25.4139 Cl      1  UNL1       -0.0821
@<TRIPOS>UNITY_ATOM_ATTR
17 1
charge -1
@<TRIPOS>BOND
     1    17    18   ar
     2    18    19   ar
     3    18    10    1
     4    10    11   ar
     5    11    12   ar
     6    12    13   ar
     7    13     1    1
     8     1     2   ar
     9     2     3   ar
    10     3    20    1
    11    20    21    2
    12    20    22    1
    13    22    23   ar
    14    23    24    1
    15    23    25   ar
    16    25    26   ar
    17    26    27   ar
    18    27    28   ar
    19    28    29    1
    20     3     4   ar
    21     4     5   ar
    22     5     6   ar
    23     6     7   ar
    24     7     8   ar
    25     8     9   ar
    26    13    14   ar
    27    14    15    1
    28    14    16   ar
    29    16    10   ar
    30     9     1   ar
    31    28    22   ar
    32     9     4   ar
@<TRIPOS>MOLECULE
*****
 29 32 0 0 0
SMALL
GASTEIGER

@<TRIPOS>ATOM
      1 N          -7.2135  -16.9465   22.9924 N.ar    1  UNL1       -0.3028
      2 C          -6.0401  -17.6367   22.3626 C.ar    1  UNL1        0.0833
      3 C          -4.8392  -17.3911   23.2271 C.ar    1  UNL1        0.0579
      4 C          -5.2704  -16.5491   24.3912 C.ar    1  UNL1        0.0207
      5 C          -4.5164  -15.9971   25.5646 C.ar    1  UNL1        0.0016
      6 C          -5.2299  -15.1704   26.5929 C.ar    1  UNL1        0.0001
      7 C          -6.6974  -14.8957   26.4478 C.ar    1  UNL1        0.0015
      8 C          -7.4514  -15.4477   25.2744 C.ar    1  UNL1        0.0175
      9 C          -6.7379  -16.2744   24.2462 C.ar    1  UNL1        0.0642
     10 C         -11.4222  -16.9005   21.4000 C.ar    1  UNL1        0.0163
     11 C         -10.9444  -18.0597   22.2233 C.ar    1  UNL1        0.0028
     12 C          -9.5415  -18.0751   22.7541 C.ar    1  UNL1        0.0198
     13 C          -8.6164  -16.9312   22.4616 C.ar    1  UNL1        0.0916
     14 C          -9.0942  -15.7718   21.6383 C.ar    1  UNL1        0.1561
     15 F          -8.1691  -14.6279   21.3458 F       1  UNL1       -0.2026
     16 C         -10.4971  -15.7565   21.1075 C.ar    1  UNL1        0.0323
     17 O         -13.8394  -17.8527   21.4030 O.co2   1  UNL1       -0.5446
     18 C         -12.8251  -16.8851   20.8693 C.2     1  UNL1        0.0729
     19 O         -13.2135  -15.9023   19.8048 O.co2   1  UNL1       -0.5446
     20 C          -3.4507  -17.8983   22.9723 C.2     1  UNL1        0.1987
     21 O          -2.5663  -18.2739   24.1240 O.2     1  UNL1       -0.2865
     22 C          -2.9467  -18.0300   21.5656 C.ar    1  UNL1        0.0601
     23 C          -3.3125  -19.2328   20.7474 C.ar    1  UNL1        0.0615
     24 CL         -4.1822  -20.3039   21.3358 Cl      1  UNL1       -0.0821
     25 C          -2.8085  -19.3645   19.3407 C.ar    1  UNL1        0.0115
     26 C          -1.9387  -18.2934   18.7523 C.ar    1  UNL1        0.0017
     27 C          -1.5730  -17.0906   19.5706 C.ar    1  UNL1        0.0115
     28 C          -2.0769  -16.9589   20.9772 C.ar    1  UNL1        0.0615
     29 CL         -1.7112  -15.7561   21.7954 Cl      1  UNL1       -0.0821
@<TRIPOS>UNITY_ATOM_ATTR
17 1
charge -1
@<TRIPOS>BOND
     1    17    18   ar
     2    18    19   ar
     3    18    10    1
     4    10    11   ar
     5    11    12   ar
     6    12    13   ar
     7    13     1    1
     8     1     2   ar
     9     2     3   ar
    10     3    20    1
    11    20    21    2
    12    20    22    1
    13    22    23   ar
    14    23    24    1
    15    23    25   ar
    16    25    26   ar
    17    26    27   ar
    18    27    28   ar
    19    28    29    1
    20     3     4   ar
    21     4     5   ar
    22     5     6   ar
    23     6     7   ar
    24     7     8   ar
    25     8     9   ar
    26    13    14   ar
    27    14    15    1
    28    14    16   ar
    29    16    10   ar
    30     9     1   ar
    31    28    22   ar
    32     9     4   ar
@<TRIPOS>MOLECULE
*****
 29 32 0 0 0
SMALL
GASTEIGER

@<TRIPOS>ATOM
      1 N          -5.7847  -17.2378   23.0815 N.ar    1  UNL1       -0.3028
      2 C          -7.0833  -17.8053   22.5902 C.ar    1  UNL1        0.0833
      3 C          -8.1558  -17.4204   23.5657 C.ar    1  UNL1        0.0579
      4 C          -7.5200  -16.6150   24.6598 C.ar    1  UNL1        0.0207
      5 C          -8.0862  -15.9699   25.8899 C.ar    1  UNL1        0.0016
      6 C          -7.1868  -15.2118   26.8208 C.ar    1  UNL1        0.0001
      7 C          -5.7213  -15.0990   26.5215 C.ar    1  UNL1        0.0015
      8 C          -5.1552  -15.7441   25.2914 C.ar    1  UNL1        0.0175
      9 C          -6.0545  -16.5021   24.3606 C.ar    1  UNL1        0.0642
     10 C          -1.7816  -17.6666   21.0710 C.ar    1  UNL1        0.0163
     11 C          -2.6770  -18.8606   21.2217 C.ar    1  UNL1        0.0028
     12 C          -4.0113  -18.7176   21.8918 C.ar    1  UNL1        0.0198
     13 C          -4.4503  -17.3807   22.4113 C.ar    1  UNL1        0.0916
     14 C          -3.5549  -16.1867   22.2607 C.ar    1  UNL1        0.1561
     15 F          -3.9938  -14.8497   22.7802 F       1  UNL1       -0.2026
     16 C          -2.2205  -16.3297   21.5906 C.ar    1  UNL1        0.0323
     17 O           0.4830  -16.6354   20.3241 O.co2   1  UNL1       -0.5446
     18 C          -0.4472  -17.8096   20.4009 C.2     1  UNL1        0.0729
     19 O          -0.0432  -19.1267   19.8076 O.co2   1  UNL1       -0.5446
     20 C          -9.6091  -17.7781   23.4648 C.2     1  UNL1        0.1987
     21 O         -10.3263  -18.3449   24.6539 O.2     1  UNL1       -0.2865
     22 C         -10.3451  -17.5689   22.1746 C.ar    1  UNL1        0.0601
     23 C         -11.2547  -16.3871   22.0130 C.ar    1  UNL1        0.0615
     24 CL        -11.4281  -15.4145   23.1418 Cl      1  UNL1       -0.0821
     25 C         -11.9907  -16.1779   20.7229 C.ar    1  UNL1        0.0115
     26 C         -11.8172  -17.1506   19.5943 C.ar    1  UNL1        0.0017
     27 C         -10.9077  -18.3324   19.7558 C.ar    1  UNL1        0.0115
     28 C         -10.1716  -18.5416   21.0459 C.ar    1  UNL1        0.0615
     29 CL         -9.2621  -19.7234   21.2074 Cl      1  UNL1       -0.0821
@<TRIPOS>UNITY_ATOM_ATTR
17 1
charge -1
@<TRIPOS>BOND
     1    17    18   ar
     2    18    19   ar
     3    18    10    1
     4    10    11   ar
     5    11    12   ar
     6    12    13   ar
     7    13     1    1
     8     1     2   ar
     9     2     3   ar
    10     3    20    1
    11    20    21    2
    12    20    22    1
    13    22    23   ar
    14    23    24    1
    15    23    25   ar
    16    25    26   ar
    17    26    27   ar
    18    27    28   ar
    19    28    29    1
    20     3     4   ar
    21     4     5   ar
    22     5     6   ar
    23     6     7   ar
    24     7     8   ar
    25     8     9   ar
    26    13    14   ar
    27    14    15    1
    28    14    16   ar
    29    16    10   ar
    30     9     1   ar
    31    28    22   ar
    32     9     4   ar
@<TRIPOS>MOLECULE
*****
 29 32 0 0 0
SMALL
GASTEIGER

@<TRIPOS>ATOM
      1 N          -7.2399  -16.9308   23.0350 N.ar    1  UNL1       -0.3028
      2 C          -6.0581  -17.6026   22.4011 C.ar    1  UNL1        0.0833
      3 C          -4.8624  -17.3562   23.2726 C.ar    1  UNL1        0.0579
      4 C          -5.3052  -16.5322   24.4452 C.ar    1  UNL1        0.0207
      5 C          -4.5602  -15.9873   25.6276 C.ar    1  UNL1        0.0016
      6 C          -5.2847  -15.1795   26.6631 C.ar    1  UNL1        0.0001
      7 C          -6.7542  -14.9165   26.5163 C.ar    1  UNL1        0.0015
      8 C          -7.4991  -15.4614   25.3339 C.ar    1  UNL1        0.0175
      9 C          -6.7746  -16.2692   24.2983 C.ar    1  UNL1        0.0642
     10 C         -11.4436  -16.9045   21.4290 C.ar    1  UNL1        0.0163
     11 C         -10.5076  -15.7797   21.0993 C.ar    1  UNL1        0.0028
     12 C          -9.1064  -15.7884   21.6346 C.ar    1  UNL1        0.0198
     13 C          -8.6411  -16.9220   22.4997 C.ar    1  UNL1        0.0916
     14 C          -9.5771  -18.0469   22.8294 C.ar    1  UNL1        0.1561
     15 F          -9.1118  -19.1805   23.6945 F       1  UNL1       -0.2026
     16 C         -10.9783  -18.0381   22.2941 C.ar    1  UNL1        0.0323
     17 O         -13.2316  -15.9212   19.8211 O.co2   1  UNL1       -0.5446
     18 C         -12.8447  -16.8957   20.8937 C.2     1  UNL1        0.0729
     19 O         -13.8589  -17.8615   21.4309 O.co2   1  UNL1       -0.5446
     20 C          -3.4685  -17.8477   23.0166 C.2     1  UNL1        0.1987
     21 O          -2.5633  -18.1698   24.1684 O.2     1  UNL1       -0.2865
     22 C          -2.9797  -18.0170   21.6085 C.ar    1  UNL1        0.0601
     23 C          -2.0972  -16.9734   20.9904 C.ar    1  UNL1        0.0615
     24 CL         -1.7034  -15.7605   21.7803 Cl      1  UNL1       -0.0821
     25 C          -1.6084  -17.1426   19.5824 C.ar    1  UNL1        0.0115
     26 C          -2.0022  -18.3555   18.7925 C.ar    1  UNL1        0.0017
     27 C          -2.8847  -19.3991   19.4107 C.ar    1  UNL1        0.0115
     28 C          -3.3734  -19.2299   20.8186 C.ar    1  UNL1        0.0615
     29 CL         -4.2560  -20.2735   21.4368 Cl      1  UNL1       -0.0821
@<TRIPOS>UNITY_ATOM_ATTR
17 1
charge -1
@<TRIPOS>BOND
     1    17    18   ar
     2    18    19   ar
     3    18    10    1
     4    10    11   ar
     5    11    12   ar
     6    12    13   ar
     7    13     1    1
     8     1     2   ar
     9     2     3   ar
    10     3    20    1
    11    20    21    2
    12    20    22    1
    13    22    23   ar
    14    23    24    1
    15    23    25   ar
    16    25    26   ar
    17    26    27   ar
    18    27    28   ar
    19    28    29    1
    20     3     4   ar
    21     4     5   ar
    22     5     6   ar
    23     6     7   ar
    24     7     8   ar
    25     8     9   ar
    26    13    14   ar
    27    14    15    1
    28    14    16   ar
    29    16    10   ar
    30     9     1   ar
    31    28    22   ar
    32     9     4   ar
@<TRIPOS>MOLECULE
*****
 29 32 0 0 0
SMALL
GASTEIGER

@<TRIPOS>ATOM
      1 N           1.4568    1.4905   22.0860 N.ar    1  UNL1       -0.3028
      2 C           1.9602    1.6046   23.4944 C.ar    1  UNL1        0.0833
      3 C           0.9708    2.4174   24.2758 C.ar    1  UNL1        0.0579
      4 C          -0.1439    2.8057   23.3503 C.ar    1  UNL1        0.0207
      5 C          -1.3937    3.6069   23.5651 C.ar    1  UNL1        0.0016
      6 C          -2.3431    3.8352   22.4265 C.ar    1  UNL1        0.0001
      7 C          -2.0428    3.2623   21.0731 C.ar    1  UNL1        0.0015
      8 C          -0.7930    2.4612   20.8583 C.ar    1  UNL1        0.0175
      9 C           0.1564    2.2329   21.9969 C.ar    1  UNL1        0.0642
     10 C           3.4908   -0.6948   18.7189 C.ar    1  UNL1        0.0163
     11 C           2.9605   -1.4581   19.8963 C.ar    1  UNL1        0.0028
     12 C           2.2825   -0.7296   21.0186 C.ar    1  UNL1        0.0198
     13 C           2.1348    0.7621   20.9637 C.ar    1  UNL1        0.0916
     14 C           2.6652    1.5253   19.7863 C.ar    1  UNL1        0.1561
     15 F           2.5176    3.0170   19.7312 F       1  UNL1       -0.2026
     16 C           3.3432    0.7968   18.6639 C.ar    1  UNL1        0.0323
     17 O           5.1554   -2.5125   17.8973 O.co2   1  UNL1       -0.5446
     18 C           4.1688   -1.4233   17.5966 C.2     1  UNL1        0.0729
     19 O           3.8603   -1.0626   16.1737 O.co2   1  UNL1       -0.5446
     20 C           1.0775    2.7786   25.7278 C.2     1  UNL1        0.1987
     21 O           1.5608    4.1409   26.1283 O.2     1  UNL1       -0.2865
     22 C           0.7009    1.7773   26.7793 C.ar    1  UNL1        0.0601
     23 C          -0.7051    1.7289   27.2997 C.ar    1  UNL1        0.0615
     24 CL         -1.7345    2.6819   26.7684 Cl      1  UNL1       -0.0821
     25 C          -1.0817    0.7277   28.3512 C.ar    1  UNL1        0.0115
     26 C          -0.0523   -0.2252   28.8823 C.ar    1  UNL1        0.0017
     27 C           1.3538   -0.1769   28.3620 C.ar    1  UNL1        0.0115
     28 C           1.7304    0.8243   27.3105 C.ar    1  UNL1        0.0615
     29 CL          3.1364    0.8726   26.7902 Cl      1  UNL1       -0.0821
@<TRIPOS>UNITY_ATOM_ATTR
17 1
charge -1
@<TRIPOS>BOND
     1    17    18   ar
     2    18    19   ar
     3    18    10    1
     4    10    11   ar
     5    11    12   ar
     6    12    13   ar
     7    13     1    1
     8     1     2   ar
     9     2     3   ar
    10     3    20    1
    11    20    21    2
    12    20    22    1
    13    22    23   ar
    14    23    24    1
    15    23    25   ar
    16    25    26   ar
    17    26    27   ar
    18    27    28   ar
    19    28    29    1
    20     3     4   ar
    21     4     5   ar
    22     5     6   ar
    23     6     7   ar
    24     7     8   ar
    25     8     9   ar
    26    13    14   ar
    27    14    15    1
    28    14    16   ar
    29    16    10   ar
    30     9     1   ar
    31    28    22   ar
    32     9     4   ar
@<TRIPOS>MOLECULE
*****
 29 32 0 0 0
SMALL
GASTEIGER

@<TRIPOS>ATOM
      1 N           0.9058    1.5402   20.6213 N.ar    1  UNL1       -0.3028
      2 C           0.0795    2.5317   19.8570 C.ar    1  UNL1        0.0833
      3 C          -0.7485    3.3022   20.8422 C.ar    1  UNL1        0.0579
      4 C          -0.4339    2.7870   22.2154 C.ar    1  UNL1        0.0207
      5 C          -0.9463    3.1688   23.5724 C.ar    1  UNL1        0.0016
      6 C          -0.4364    2.4615   24.7929 C.ar    1  UNL1        0.0001
      7 C           0.5861    1.3725   24.6564 C.ar    1  UNL1        0.0015
      8 C           1.0985    0.9907   23.2994 C.ar    1  UNL1        0.0175
      9 C           0.5885    1.6980   22.0789 C.ar    1  UNL1        0.0642
     10 C           3.8244   -1.3928   18.8521 C.ar    1  UNL1        0.0163
     11 C           2.8000   -1.8594   19.8435 C.ar    1  UNL1        0.0028
     12 C           1.8272   -0.8817   20.4332 C.ar    1  UNL1        0.0198
     13 C           1.8787    0.5625   20.0316 C.ar    1  UNL1        0.0916
     14 C           2.9031    1.0292   19.0402 C.ar    1  UNL1        0.1561
     15 F           2.9547    2.4735   18.6385 F       1  UNL1       -0.2026
     16 C           3.8760    0.0515   18.4505 C.ar    1  UNL1        0.0323
     17 O           4.6975   -3.8272   18.6055 O.co2   1  UNL1       -0.5446
     18 C           4.7973   -2.3704   18.2624 C.2     1  UNL1        0.0729
     19 O           5.8698   -1.8913   17.3297 O.co2   1  UNL1       -0.5446
     20 C          -1.7204    4.3960   20.5123 C.2     1  UNL1        0.1987
     21 O          -1.4236    5.8100   20.9153 O.2     1  UNL1       -0.2865
     22 C          -2.9894    4.0758   19.7791 C.ar    1  UNL1        0.0601
     23 C          -4.2110    3.6568   20.5420 C.ar    1  UNL1        0.0615
     24 CL         -4.1637    3.5580   22.0381 Cl      1  UNL1       -0.0821
     25 C          -5.4799    3.3366   19.8090 C.ar    1  UNL1        0.0115
     26 C          -5.5271    3.4355   18.3130 C.ar    1  UNL1        0.0017
     27 C          -4.3055    3.8545   17.5501 C.ar    1  UNL1        0.0115
     28 C          -3.0366    4.1747   18.2831 C.ar    1  UNL1        0.0615
     29 CL         -1.8150    4.5937   17.5202 Cl      1  UNL1       -0.0821
@<TRIPOS>UNITY_ATOM_ATTR
17 1
charge -1
@<TRIPOS>BOND
     1    17    18   ar
     2    18    19   ar
     3    18    10    1
     4    10    11   ar
     5    11    12   ar
     6    12    13   ar
     7    13     1    1
     8     1     2   ar
     9     2     3   ar
    10     3    20    1
    11    20    21    2
    12    20    22    1
    13    22    23   ar
    14    23    24    1
    15    23    25   ar
    16    25    26   ar
    17    26    27   ar
    18    27    28   ar
    19    28    29    1
    20     3     4   ar
    21     4     5   ar
    22     5     6   ar
    23     6     7   ar
    24     7     8   ar
    25     8     9   ar
    26    13    14   ar
    27    14    15    1
    28    14    16   ar
    29    16    10   ar
    30     9     1   ar
    31    28    22   ar
    32     9     4   ar
