@<TRIPOS>MOLECULE
*****
 30 33 0 0 0
SMALL
GASTEIGER

@<TRIPOS>ATOM
      1 N          -5.8852  -18.1014   22.4162 N.ar    1  UNL1       -0.3008
      2 C          -6.9208  -19.1678   22.2155 C.ar    1  UNL1        0.0834
      3 C          -8.1589  -18.7567   22.9559 C.ar    1  UNL1        0.0580
      4 C          -7.8884  -17.4362   23.6142 C.ar    1  UNL1        0.0229
      5 C          -8.7401  -16.5503   24.4742 C.ar    1  UNL1        0.0017
      6 C          -8.1866  -15.2595   25.0007 C.ar    1  UNL1        0.0024
      7 C          -6.7813  -14.8545   24.6672 C.ar    1  UNL1        0.0311
      8 C          -5.9296  -15.7404   23.8071 C.ar    1  UNL1        0.1561
      9 F          -4.5244  -15.3354   23.4736 F       1  UNL1       -0.2026
     10 C          -6.4831  -17.0313   23.2806 C.ar    1  UNL1        0.0917
     11 C          -1.7160  -18.1110   20.7225 C.ar    1  UNL1        0.0163
     12 C          -2.8989  -18.1951   19.8040 C.ar    1  UNL1        0.0028
     13 C          -4.2886  -18.1919   20.3686 C.ar    1  UNL1        0.0198
     14 C          -4.4955  -18.1046   21.8516 C.ar    1  UNL1        0.0916
     15 C          -3.3125  -18.0205   22.7702 C.ar    1  UNL1        0.1561
     16 F          -3.5193  -17.9332   24.2533 F       1  UNL1       -0.2026
     17 C          -1.9228  -18.0237   22.2056 C.ar    1  UNL1        0.0323
     18 O           0.4440  -16.8313   20.0544 O.co2   1  UNL1       -0.5446
     19 C          -0.3263  -18.1142   20.1580 C.2     1  UNL1        0.0729
     20 O           0.2930  -19.4003   19.6970 O.co2   1  UNL1       -0.5446
     21 C          -9.4422  -19.5301   23.0258 C.2     1  UNL1        0.1987
     22 O          -9.4403  -20.9420   23.5323 O.2     1  UNL1       -0.2865
     23 C         -10.7274  -18.8917   22.5891 C.ar    1  UNL1        0.0601
     24 C         -11.7856  -18.5671   23.6015 C.ar    1  UNL1        0.0615
     25 CL        -11.5584  -18.8810   25.0506 Cl      1  UNL1       -0.0821
     26 C         -13.0708  -17.9288   23.1649 C.ar    1  UNL1        0.0115
     27 C         -13.2978  -17.6149   21.7158 C.ar    1  UNL1        0.0017
     28 C         -12.2397  -17.9395   20.7033 C.ar    1  UNL1        0.0115
     29 C         -10.9545  -18.5779   21.1399 C.ar    1  UNL1        0.0615
     30 CL         -9.8964  -18.9025   20.1275 Cl      1  UNL1       -0.0821
@<TRIPOS>UNITY_ATOM_ATTR
18 1
charge -1
@<TRIPOS>BOND
     1    18    19   ar
     2    19    20   ar
     3    19    11    1
     4    11    12   ar
     5    12    13   ar
     6    13    14   ar
     7    14     1    1
     8     1     2   ar
     9     2     3   ar
    10     3    21    1
    11    21    22    2
    12    21    23    1
    13    23    24   ar
    14    24    25    1
    15    24    26   ar
    16    26    27   ar
    17    27    28   ar
    18    28    29   ar
    19    29    30    1
    20     3     4   ar
    21     4     5   ar
    22     5     6   ar
    23     6     7   ar
    24     7     8   ar
    25     8     9    1
    26     8    10   ar
    27    14    15   ar
    28    15    16    1
    29    15    17   ar
    30    17    11   ar
    31    10     1   ar
    32    29    23   ar
    33    10     4   ar
@<TRIPOS>MOLECULE
*****
 30 33 0 0 0
SMALL
GASTEIGER

@<TRIPOS>ATOM
      1 N          -5.8965  -18.1042   22.4200 N.ar    1  UNL1       -0.3008
      2 C          -6.9323  -19.1706   22.2208 C.ar    1  UNL1        0.0834
      3 C          -8.1703  -18.7582   22.9607 C.ar    1  UNL1        0.0580
      4 C          -7.8996  -17.4369   23.6171 C.ar    1  UNL1        0.0229
      5 C          -8.7511  -16.5497   24.4759 C.ar    1  UNL1        0.0017
      6 C          -8.1973  -15.2582   25.0005 C.ar    1  UNL1        0.0024
      7 C          -6.7920  -14.8539   24.6664 C.ar    1  UNL1        0.0311
      8 C          -5.9405  -15.7412   23.8076 C.ar    1  UNL1        0.1561
      9 F          -4.5351  -15.3370   23.4734 F       1  UNL1       -0.2026
     10 C          -6.4942  -17.0327   23.2829 C.ar    1  UNL1        0.0917
     11 C          -1.7274  -18.1169   20.7262 C.ar    1  UNL1        0.0163
     12 C          -2.9103  -18.2038   19.8080 C.ar    1  UNL1        0.0028
     13 C          -4.3000  -18.1995   20.3726 C.ar    1  UNL1        0.0198
     14 C          -4.5068  -18.1084   21.8554 C.ar    1  UNL1        0.0916
     15 C          -3.3239  -18.0216   22.7737 C.ar    1  UNL1        0.1561
     16 F          -3.5306  -17.9305   24.2566 F       1  UNL1       -0.2026
     17 C          -1.9342  -18.0258   22.2091 C.ar    1  UNL1        0.0323
     18 O           0.2800  -19.4075   19.6993 O.co2   1  UNL1       -0.5446
     19 C          -0.3377  -18.1212   20.1616 C.2     1  UNL1        0.0729
     20 O           0.4342  -16.8391   20.0593 O.co2   1  UNL1       -0.5446
     21 C          -9.4537  -19.5314   23.0317 C.2     1  UNL1        0.1987
     22 O          -9.4519  -20.9431   23.5384 O.2     1  UNL1       -0.2865
     23 C         -10.7392  -18.8927   22.5958 C.ar    1  UNL1        0.0601
     24 C         -10.9688  -18.5824   21.1464 C.ar    1  UNL1        0.0615
     25 CL         -9.9130  -18.9108   20.1327 Cl      1  UNL1       -0.0821
     26 C         -12.2541  -17.9438   20.7105 C.ar    1  UNL1        0.0115
     27 C         -13.3099  -17.6154   21.7242 C.ar    1  UNL1        0.0017
     28 C         -13.0803  -17.9257   23.1736 C.ar    1  UNL1        0.0115
     29 C         -11.7950  -18.5643   23.6095 C.ar    1  UNL1        0.0615
     30 CL        -11.5654  -18.8746   25.0590 Cl      1  UNL1       -0.0821
@<TRIPOS>UNITY_ATOM_ATTR
18 1
charge -1
@<TRIPOS>BOND
     1    18    19   ar
     2    19    20   ar
     3    19    11    1
     4    11    12   ar
     5    12    13   ar
     6    13    14   ar
     7    14     1    1
     8     1     2   ar
     9     2     3   ar
    10     3    21    1
    11    21    22    2
    12    21    23    1
    13    23    24   ar
    14    24    25    1
    15    24    26   ar
    16    26    27   ar
    17    27    28   ar
    18    28    29   ar
    19    29    30    1
    20     3     4   ar
    21     4     5   ar
    22     5     6   ar
    23     6     7   ar
    24     7     8   ar
    25     8     9    1
    26     8    10   ar
    27    14    15   ar
    28    15    16    1
    29    15    17   ar
    30    17    11   ar
    31    10     1   ar
    32    29    23   ar
    33    10     4   ar
@<TRIPOS>MOLECULE
*****
 30 33 0 0 0
SMALL
GASTEIGER

@<TRIPOS>ATOM
      1 N          -7.2205  -16.9496   22.9894 N.ar    1  UNL1       -0.3008
      2 C          -6.0473  -17.6408   22.3602 C.ar    1  UNL1        0.0834
      3 C          -4.8466  -17.3961   23.2254 C.ar    1  UNL1        0.0580
      4 C          -5.2778  -16.5538   24.3893 C.ar    1  UNL1        0.0229
      5 C          -4.5240  -16.0024   25.5630 C.ar    1  UNL1        0.0017
      6 C          -5.2373  -15.1751   26.5909 C.ar    1  UNL1        0.0024
      7 C          -6.7045  -14.8991   26.4450 C.ar    1  UNL1        0.0311
      8 C          -7.4583  -15.4504   25.2713 C.ar    1  UNL1        0.1561
      9 F          -8.9254  -15.1744   25.1254 F       1  UNL1       -0.2026
     10 C          -6.7449  -16.2778   24.2434 C.ar    1  UNL1        0.0917
     11 C         -11.4282  -16.8999   21.3947 C.ar    1  UNL1        0.0163
     12 C         -10.9474  -18.0662   22.2061 C.ar    1  UNL1        0.0028
     13 C          -9.5448  -18.0827   22.7377 C.ar    1  UNL1        0.0198
     14 C          -8.6231  -16.9330   22.4578 C.ar    1  UNL1        0.0916
     15 C          -9.1039  -15.7666   21.6464 C.ar    1  UNL1        0.1561
     16 F          -8.1822  -14.6168   21.3665 F       1  UNL1       -0.2026
     17 C         -10.5065  -15.7501   21.1148 C.ar    1  UNL1        0.0323
     18 O         -13.2203  -15.8936   19.8055 O.co2   1  UNL1       -0.5446
     19 C         -12.8308  -16.8833   20.8632 C.2     1  UNL1        0.0729
     20 O         -13.8438  -17.8565   21.3894 O.co2   1  UNL1       -0.5446
     21 C          -3.4585  -17.9046   22.9714 C.2     1  UNL1        0.1987
     22 O          -2.5785  -18.2904   24.1232 O.2     1  UNL1       -0.2865
     23 C          -2.9503  -18.0274   21.5654 C.ar    1  UNL1        0.0601
     24 C          -3.3118  -19.2260   20.7392 C.ar    1  UNL1        0.0615
     25 CL         -4.1816  -20.3018   21.3190 Cl      1  UNL1       -0.0821
     26 C          -2.8037  -19.3488   19.3333 C.ar    1  UNL1        0.0115
     27 C          -1.9340  -18.2729   18.7535 C.ar    1  UNL1        0.0017
     28 C          -1.5724  -17.0743   19.5797 C.ar    1  UNL1        0.0115
     29 C          -2.0806  -16.9515   20.9856 C.ar    1  UNL1        0.0615
     30 CL         -1.7190  -15.7529   21.8118 Cl      1  UNL1       -0.0821
@<TRIPOS>UNITY_ATOM_ATTR
18 1
charge -1
@<TRIPOS>BOND
     1    18    19   ar
     2    19    20   ar
     3    19    11    1
     4    11    12   ar
     5    12    13   ar
     6    13    14   ar
     7    14     1    1
     8     1     2   ar
     9     2     3   ar
    10     3    21    1
    11    21    22    2
    12    21    23    1
    13    23    24   ar
    14    24    25    1
    15    24    26   ar
    16    26    27   ar
    17    27    28   ar
    18    28    29   ar
    19    29    30    1
    20     3     4   ar
    21     4     5   ar
    22     5     6   ar
    23     6     7   ar
    24     7     8   ar
    25     8     9    1
    26     8    10   ar
    27    14    15   ar
    28    15    16    1
    29    15    17   ar
    30    17    11   ar
    31    10     1   ar
    32    29    23   ar
    33    10     4   ar
@<TRIPOS>MOLECULE
*****
 30 33 0 0 0
SMALL
GASTEIGER

@<TRIPOS>ATOM
      1 N          -7.2280  -16.9585   22.9926 N.ar    1  UNL1       -0.3008
      2 C          -6.0537  -17.6483   22.3641 C.ar    1  UNL1        0.0834
      3 C          -4.8519  -17.3947   23.2250 C.ar    1  UNL1        0.0580
      4 C          -5.2834  -16.5481   24.3857 C.ar    1  UNL1        0.0229
      5 C          -4.5289  -15.9879   25.5548 C.ar    1  UNL1        0.0017
      6 C          -5.2429  -15.1582   26.5802 C.ar    1  UNL1        0.0024
      7 C          -6.7115  -14.8886   26.4366 C.ar    1  UNL1        0.0311
      8 C          -7.4660  -15.4488   25.2675 C.ar    1  UNL1        0.1561
      9 F          -8.9346  -15.1792   25.1239 F       1  UNL1       -0.2026
     10 C          -6.7520  -16.2786   24.2421 C.ar    1  UNL1        0.0917
     11 C         -11.4399  -16.9334   21.4083 C.ar    1  UNL1        0.0163
     12 C         -10.5238  -15.7808   21.1215 C.ar    1  UNL1        0.0028
     13 C          -9.1199  -15.7892   21.6497 C.ar    1  UNL1        0.0198
     14 C          -8.6320  -16.9501   22.4645 C.ar    1  UNL1        0.0916
     15 C          -9.5481  -18.1028   22.7513 C.ar    1  UNL1        0.1561
     16 F          -9.0602  -19.2638   23.5662 F       1  UNL1       -0.2026
     17 C         -10.9520  -18.0944   22.2232 C.ar    1  UNL1        0.0323
     18 O         -13.2392  -15.9437   19.8168 O.co2   1  UNL1       -0.5446
     19 C         -12.8438  -16.9250   20.8802 C.2     1  UNL1        0.0729
     20 O         -13.8523  -17.8979   21.4154 O.co2   1  UNL1       -0.5446
     21 C          -3.4624  -17.8990   22.9701 C.2     1  UNL1        0.1987
     22 O          -2.5786  -18.2770   24.1216 O.2     1  UNL1       -0.2865
     23 C          -2.9566  -18.0255   21.5636 C.ar    1  UNL1        0.0601
     24 C          -2.0844  -16.9532   20.9809 C.ar    1  UNL1        0.0615
     25 CL         -1.7179  -15.7545   21.8049 Cl      1  UNL1       -0.0821
     26 C          -1.5787  -17.0795   19.5745 C.ar    1  UNL1        0.0115
     27 C          -1.9452  -18.2782   18.7506 C.ar    1  UNL1        0.0017
     28 C          -2.8174  -19.3505   19.3332 C.ar    1  UNL1        0.0115
     29 C          -3.3232  -19.2242   20.7397 C.ar    1  UNL1        0.0615
     30 CL         -4.1954  -20.2964   21.3223 Cl      1  UNL1       -0.0821
@<TRIPOS>UNITY_ATOM_ATTR
18 1
charge -1
@<TRIPOS>BOND
     1    18    19   ar
     2    19    20   ar
     3    19    11    1
     4    11    12   ar
     5    12    13   ar
     6    13    14   ar
     7    14     1    1
     8     1     2   ar
     9     2     3   ar
    10     3    21    1
    11    21    22    2
    12    21    23    1
    13    23    24   ar
    14    24    25    1
    15    24    26   ar
    16    26    27   ar
    17    27    28   ar
    18    28    29   ar
    19    29    30    1
    20     3     4   ar
    21     4     5   ar
    22     5     6   ar
    23     6     7   ar
    24     7     8   ar
    25     8     9    1
    26     8    10   ar
    27    14    15   ar
    28    15    16    1
    29    15    17   ar
    30    17    11   ar
    31    10     1   ar
    32    29    23   ar
    33    10     4   ar
@<TRIPOS>MOLECULE
*****
 30 33 0 0 0
SMALL
GASTEIGER

@<TRIPOS>ATOM
      1 N         -13.9309   -5.5844   18.3715 N.ar    1  UNL1       -0.3008
      2 C         -14.4878   -4.2141   18.1223 C.ar    1  UNL1        0.0834
      3 C         -13.3506   -3.2368   18.1652 C.ar    1  UNL1        0.0580
      4 C         -12.0910   -4.0032   18.4409 C.ar    1  UNL1        0.0229
      5 C         -10.6637   -3.5673   18.5923 C.ar    1  UNL1        0.0017
      6 C          -9.5952   -4.5823   18.8712 C.ar    1  UNL1        0.0024
      7 C          -9.9538   -6.0332   18.9987 C.ar    1  UNL1        0.0311
      8 C         -11.3810   -6.4691   18.8473 C.ar    1  UNL1        0.1561
      9 F         -11.7397   -7.9200   18.9748 F       1  UNL1       -0.2026
     10 C         -12.4496   -5.4540   18.5684 C.ar    1  UNL1        0.0917
     11 C         -16.2900   -9.4142   18.5049 C.ar    1  UNL1        0.0163
     12 C         -16.5713   -8.3251   19.4973 C.ar    1  UNL1        0.0028
     13 C         -15.7849   -7.0485   19.4527 C.ar    1  UNL1        0.0198
     14 C         -14.7173   -6.8610   18.4160 C.ar    1  UNL1        0.0916
     15 C         -14.4360   -7.9501   17.4236 C.ar    1  UNL1        0.1561
     16 F         -13.3684   -7.7626   16.3868 F       1  UNL1       -0.2026
     17 C         -15.2224   -9.2267   17.4681 C.ar    1  UNL1        0.0323
     18 O         -16.4101  -11.9677   18.9682 O.co2   1  UNL1       -0.5446
     19 C         -17.0764  -10.6908   18.5494 C.2     1  UNL1        0.0729
     20 O         -18.5289  -10.6903   18.1752 O.co2   1  UNL1       -0.5446
     21 C         -13.4548   -1.7536   17.9671 C.2     1  UNL1        0.1987
     22 O         -12.3075   -0.9942   17.3698 O.2     1  UNL1       -0.2865
     23 C         -14.7065   -1.0297   18.3664 C.ar    1  UNL1        0.0601
     24 C         -15.2469   -1.1774   19.7578 C.ar    1  UNL1        0.0615
     25 CL        -14.5356   -2.0490   20.7500 Cl      1  UNL1       -0.0821
     26 C         -16.4985   -0.4535   20.1572 C.ar    1  UNL1        0.0115
     27 C         -17.2097    0.4181   19.1650 C.ar    1  UNL1        0.0017
     28 C         -16.6693    0.5658   17.7735 C.ar    1  UNL1        0.0115
     29 C         -15.4177   -0.1581   17.3742 C.ar    1  UNL1        0.0615
     30 CL        -14.8774   -0.0103   15.9827 Cl      1  UNL1       -0.0821
@<TRIPOS>UNITY_ATOM_ATTR
18 1
charge -1
@<TRIPOS>BOND
     1    18    19   ar
     2    19    20   ar
     3    19    11    1
     4    11    12   ar
     5    12    13   ar
     6    13    14   ar
     7    14     1    1
     8     1     2   ar
     9     2     3   ar
    10     3    21    1
    11    21    22    2
    12    21    23    1
    13    23    24   ar
    14    24    25    1
    15    24    26   ar
    16    26    27   ar
    17    27    28   ar
    18    28    29   ar
    19    29    30    1
    20     3     4   ar
    21     4     5   ar
    22     5     6   ar
    23     6     7   ar
    24     7     8   ar
    25     8     9    1
    26     8    10   ar
    27    14    15   ar
    28    15    16    1
    29    15    17   ar
    30    17    11   ar
    31    10     1   ar
    32    29    23   ar
    33    10     4   ar
@<TRIPOS>MOLECULE
*****
 30 33 0 0 0
SMALL
GASTEIGER

@<TRIPOS>ATOM
      1 N           1.4478    1.5181   22.1621 N.ar    1  UNL1       -0.3008
      2 C           1.9304    1.6120   23.5792 C.ar    1  UNL1        0.0834
      3 C           0.9497    2.4465   24.3484 C.ar    1  UNL1        0.0580
      4 C          -0.1390    2.8683   23.4068 C.ar    1  UNL1        0.0229
      5 C          -1.3709    3.7008   23.6052 C.ar    1  UNL1        0.0017
      6 C          -2.2950    3.9594   22.4523 C.ar    1  UNL1        0.0024
      7 C          -1.9871    3.3856   21.1011 C.ar    1  UNL1        0.0311
      8 C          -0.7553    2.5532   20.9026 C.ar    1  UNL1        0.1561
      9 F          -0.4474    1.9793   19.5514 F       1  UNL1       -0.2026
     10 C           0.1688    2.2945   22.0555 C.ar    1  UNL1        0.0917
     11 C           3.4800   -0.7031   18.8174 C.ar    1  UNL1        0.0163
     12 C           2.8434   -1.4621   19.9437 C.ar    1  UNL1        0.0028
     13 C           2.1660   -0.7217   21.0586 C.ar    1  UNL1        0.0198
     14 C           2.1252    0.7777   21.0472 C.ar    1  UNL1        0.0916
     15 C           2.7618    1.5367   19.9208 C.ar    1  UNL1        0.1561
     16 F           2.7211    3.0361   19.9093 F       1  UNL1       -0.2026
     17 C           3.4392    0.7963   18.8059 C.ar    1  UNL1        0.0323
     18 O           5.0702   -2.5929   18.0115 O.co2   1  UNL1       -0.5446
     19 C           4.1574   -1.4435   17.7025 C.2     1  UNL1        0.0729
     20 O           3.9220   -1.0344   16.2787 O.co2   1  UNL1       -0.5446
     21 C           1.0416    2.7976   25.8039 C.2     1  UNL1        0.1987
     22 O           1.5118    4.1602   26.2185 O.2     1  UNL1       -0.2865
     23 C           0.6633    1.7859   26.8448 C.ar    1  UNL1        0.0601
     24 C           1.6934    0.8319   27.3729 C.ar    1  UNL1        0.0615
     25 CL          3.1018    0.8896   26.8600 Cl      1  UNL1       -0.0821
     26 C           1.3151   -0.1798   28.4137 C.ar    1  UNL1        0.0115
     27 C          -0.0933   -0.2374   28.9265 C.ar    1  UNL1        0.0017
     28 C          -1.1234    0.7165   28.3985 C.ar    1  UNL1        0.0115
     29 C          -0.7452    1.7282   27.3576 C.ar    1  UNL1        0.0615
     30 CL         -1.7753    2.6822   26.8296 Cl      1  UNL1       -0.0821
@<TRIPOS>UNITY_ATOM_ATTR
18 1
charge -1
@<TRIPOS>BOND
     1    18    19   ar
     2    19    20   ar
     3    19    11    1
     4    11    12   ar
     5    12    13   ar
     6    13    14   ar
     7    14     1    1
     8     1     2   ar
     9     2     3   ar
    10     3    21    1
    11    21    22    2
    12    21    23    1
    13    23    24   ar
    14    24    25    1
    15    24    26   ar
    16    26    27   ar
    17    27    28   ar
    18    28    29   ar
    19    29    30    1
    20     3     4   ar
    21     4     5   ar
    22     5     6   ar
    23     6     7   ar
    24     7     8   ar
    25     8     9    1
    26     8    10   ar
    27    14    15   ar
    28    15    16    1
    29    15    17   ar
    30    17    11   ar
    31    10     1   ar
    32    29    23   ar
    33    10     4   ar
@<TRIPOS>MOLECULE
*****
 30 33 0 0 0
SMALL
GASTEIGER

@<TRIPOS>ATOM
      1 N          -6.0098  -18.1036   21.6874 N.ar    1  UNL1       -0.3008
      2 C          -6.5923  -17.3732   22.8609 C.ar    1  UNL1        0.0834
      3 C          -8.0701  -17.6297   22.8794 C.ar    1  UNL1        0.0580
      4 C          -8.4009  -18.5187   21.7174 C.ar    1  UNL1        0.0229
      5 C          -9.6970  -19.0992   21.2349 C.ar    1  UNL1        0.0017
      6 C          -9.7198  -19.9727   20.0157 C.ar    1  UNL1        0.0024
      7 C          -8.4464  -20.2655   19.2789 C.ar    1  UNL1        0.0311
      8 C          -7.1503  -19.6850   19.7614 C.ar    1  UNL1        0.1561
      9 F          -5.8769  -19.9778   19.0247 F       1  UNL1       -0.2026
     10 C          -7.1275  -18.8115   20.9806 C.ar    1  UNL1        0.0917
     11 C          -1.6706  -18.1609   20.4963 C.ar    1  UNL1        0.0163
     12 C          -2.7356  -18.0555   19.4452 C.ar    1  UNL1        0.0028
     13 C          -4.1819  -18.0364   19.8423 C.ar    1  UNL1        0.0198
     14 C          -4.5634  -18.1227   21.2903 C.ar    1  UNL1        0.0916
     15 C          -3.4984  -18.2281   22.3415 C.ar    1  UNL1        0.1561
     16 F          -3.8798  -18.3145   23.7896 F       1  UNL1       -0.2026
     17 C          -2.0520  -18.2473   21.9444 C.ar    1  UNL1        0.0323
     18 O           0.4244  -19.4695   19.6912 O.co2   1  UNL1       -0.5446
     19 C          -0.2242  -18.1800   20.0992 C.2     1  UNL1        0.0729
     20 O           0.5734  -16.9097   20.1101 O.co2   1  UNL1       -0.5446
     21 C          -9.0458  -17.0918   23.8837 C.2     1  UNL1        0.1987
     22 O          -8.5593  -16.2499   25.0258 O.2     1  UNL1       -0.2865
     23 C         -10.5083  -17.3958   23.7458 C.ar    1  UNL1        0.0601
     24 C         -11.3554  -16.5940   22.8027 C.ar    1  UNL1        0.0615
     25 CL        -10.7399  -15.4881   21.9974 Cl      1  UNL1       -0.0821
     26 C         -12.8177  -16.8979   22.6648 C.ar    1  UNL1        0.0115
     27 C         -13.4331  -18.0037   23.4701 C.ar    1  UNL1        0.0017
     28 C         -12.5860  -18.8055   24.4133 C.ar    1  UNL1        0.0115
     29 C         -11.1236  -18.5016   24.5512 C.ar    1  UNL1        0.0615
     30 CL        -10.2766  -19.3034   25.4943 Cl      1  UNL1       -0.0821
@<TRIPOS>UNITY_ATOM_ATTR
18 1
charge -1
@<TRIPOS>BOND
     1    18    19   ar
     2    19    20   ar
     3    19    11    1
     4    11    12   ar
     5    12    13   ar
     6    13    14   ar
     7    14     1    1
     8     1     2   ar
     9     2     3   ar
    10     3    21    1
    11    21    22    2
    12    21    23    1
    13    23    24   ar
    14    24    25    1
    15    24    26   ar
    16    26    27   ar
    17    27    28   ar
    18    28    29   ar
    19    29    30    1
    20     3     4   ar
    21     4     5   ar
    22     5     6   ar
    23     6     7   ar
    24     7     8   ar
    25     8     9    1
    26     8    10   ar
    27    14    15   ar
    28    15    16    1
    29    15    17   ar
    30    17    11   ar
    31    10     1   ar
    32    29    23   ar
    33    10     4   ar
@<TRIPOS>MOLECULE
*****
 30 33 0 0 0
SMALL
GASTEIGER

@<TRIPOS>ATOM
      1 N         -13.4848   -3.4796   17.6882 N.ar    1  UNL1       -0.3008
      2 C         -14.6765   -4.3089   17.3110 C.ar    1  UNL1        0.0834
      3 C         -14.3256   -5.7508   17.5292 C.ar    1  UNL1        0.0580
      4 C         -12.9171   -5.8128   18.0413 C.ar    1  UNL1        0.0229
      5 C         -12.0406   -6.9660   18.4308 C.ar    1  UNL1        0.0017
      6 C         -10.6444   -6.7155   18.9186 C.ar    1  UNL1        0.0024
      7 C         -10.1248   -5.3118   19.0168 C.ar    1  UNL1        0.0311
      8 C         -11.0013   -4.1586   18.6273 C.ar    1  UNL1        0.1561
      9 F         -10.4816   -2.7549   18.7255 F       1  UNL1       -0.2026
     10 C         -12.3974   -4.4091   18.1395 C.ar    1  UNL1        0.0917
     11 C         -13.2186    1.0085   17.4990 C.ar    1  UNL1        0.0163
     12 C         -12.6375    0.1755   16.3952 C.ar    1  UNL1        0.0028
     13 C         -12.7263   -1.3205   16.4583 C.ar    1  UNL1        0.0198
     14 C         -13.3961   -1.9836   17.6251 C.ar    1  UNL1        0.0916
     15 C         -13.9772   -1.1506   18.7290 C.ar    1  UNL1        0.1561
     16 F         -14.6470   -1.8136   19.8959 F       1  UNL1       -0.2026
     17 C         -13.8884    0.3455   18.6659 C.ar    1  UNL1        0.0323
     18 O         -11.8223    3.1653   17.1140 O.co2   1  UNL1       -0.5446
     19 C         -13.1299    2.5046   17.4359 C.2     1  UNL1        0.0729
     20 O         -14.3486    3.3398   17.6948 O.co2   1  UNL1       -0.5446
     21 C         -15.2253   -6.9247   17.2793 C.2     1  UNL1        0.1987
     22 O         -15.1383   -7.6737   15.9827 O.2     1  UNL1       -0.2865
     23 C         -16.2121   -7.3497   18.3262 C.ar    1  UNL1        0.0601
     24 C         -15.9566   -8.5829   19.1410 C.ar    1  UNL1        0.0615
     25 CL        -14.7143   -9.3911   18.9091 Cl      1  UNL1       -0.0821
     26 C         -16.9432   -9.0079   20.1878 C.ar    1  UNL1        0.0115
     27 C         -18.1854   -8.1997   20.4198 C.ar    1  UNL1        0.0017
     28 C         -18.4409   -6.9666   19.6049 C.ar    1  UNL1        0.0115
     29 C         -17.4543   -6.5415   18.5581 C.ar    1  UNL1        0.0615
     30 CL        -17.7097   -5.3084   17.7432 Cl      1  UNL1       -0.0821
@<TRIPOS>UNITY_ATOM_ATTR
18 1
charge -1
@<TRIPOS>BOND
     1    18    19   ar
     2    19    20   ar
     3    19    11    1
     4    11    12   ar
     5    12    13   ar
     6    13    14   ar
     7    14     1    1
     8     1     2   ar
     9     2     3   ar
    10     3    21    1
    11    21    22    2
    12    21    23    1
    13    23    24   ar
    14    24    25    1
    15    24    26   ar
    16    26    27   ar
    17    27    28   ar
    18    28    29   ar
    19    29    30    1
    20     3     4   ar
    21     4     5   ar
    22     5     6   ar
    23     6     7   ar
    24     7     8   ar
    25     8     9    1
    26     8    10   ar
    27    14    15   ar
    28    15    16    1
    29    15    17   ar
    30    17    11   ar
    31    10     1   ar
    32    29    23   ar
    33    10     4   ar
@<TRIPOS>MOLECULE
*****
 30 33 0 0 0
SMALL
GASTEIGER

@<TRIPOS>ATOM
      1 N           1.2453    1.8428   20.5707 N.ar    1  UNL1       -0.3008
      2 C           0.3443    2.8579   19.9319 C.ar    1  UNL1        0.0834
      3 C          -0.5562    3.4127   20.9955 C.ar    1  UNL1        0.0580
      4 C          -0.2119    2.7405   22.2915 C.ar    1  UNL1        0.0229
      5 C          -0.7683    2.8866   23.6768 C.ar    1  UNL1        0.0017
      6 C          -0.2114    2.0624   24.7994 C.ar    1  UNL1        0.0024
      7 C           0.9020    1.0922   24.5369 C.ar    1  UNL1        0.0311
      8 C           1.4585    0.9461   23.1516 C.ar    1  UNL1        0.1561
      9 F           2.5718   -0.0242   22.8891 F       1  UNL1       -0.2026
     10 C           0.9015    1.7703   22.0289 C.ar    1  UNL1        0.0917
     11 C           4.4217   -0.5627   18.4792 C.ar    1  UNL1        0.0163
     12 C           4.5902    0.9185   18.6453 C.ar    1  UNL1        0.0028
     13 C           3.5314    1.7203   19.3424 C.ar    1  UNL1        0.0198
     14 C           2.3041    1.0410   19.8735 C.ar    1  UNL1        0.0916
     15 C           2.1355   -0.4403   19.7074 C.ar    1  UNL1        0.1561
     16 F           0.9082   -1.1197   20.2385 F       1  UNL1       -0.2026
     17 C           3.1944   -1.2421   19.0103 C.ar    1  UNL1        0.0323
     18 O           5.4369   -2.8632   17.8259 O.co2   1  UNL1       -0.5446
     19 C           5.4805   -1.3645   17.7820 C.2     1  UNL1        0.0729
     20 O           6.5829   -0.6676   17.0411 O.co2   1  UNL1       -0.5446
     21 C          -1.6152    4.4565   20.7978 C.2     1  UNL1        0.1987
     22 O          -1.4363    5.8265   21.3815 O.2     1  UNL1       -0.2865
     23 C          -2.8533    4.1301   20.0162 C.ar    1  UNL1        0.0601
     24 C          -4.0683    3.6039   20.7211 C.ar    1  UNL1        0.0615
     25 CL         -4.0451    3.4040   22.2076 Cl      1  UNL1       -0.0821
     26 C          -5.3063    3.2775   19.9397 C.ar    1  UNL1        0.0115
     27 C          -5.3294    3.4775   18.4532 C.ar    1  UNL1        0.0017
     28 C          -4.1144    4.0037   17.7483 C.ar    1  UNL1        0.0115
     29 C          -2.8764    4.3301   18.5298 C.ar    1  UNL1        0.0615
     30 CL         -1.6614    4.8563   17.8249 Cl      1  UNL1       -0.0821
@<TRIPOS>UNITY_ATOM_ATTR
18 1
charge -1
@<TRIPOS>BOND
     1    18    19   ar
     2    19    20   ar
     3    19    11    1
     4    11    12   ar
     5    12    13   ar
     6    13    14   ar
     7    14     1    1
     8     1     2   ar
     9     2     3   ar
    10     3    21    1
    11    21    22    2
    12    21    23    1
    13    23    24   ar
    14    24    25    1
    15    24    26   ar
    16    26    27   ar
    17    27    28   ar
    18    28    29   ar
    19    29    30    1
    20     3     4   ar
    21     4     5   ar
    22     5     6   ar
    23     6     7   ar
    24     7     8   ar
    25     8     9    1
    26     8    10   ar
    27    14    15   ar
    28    15    16    1
    29    15    17   ar
    30    17    11   ar
    31    10     1   ar
    32    29    23   ar
    33    10     4   ar
