@<TRIPOS>MOLECULE
*****
 22 23 0 0 0
SMALL
GASTEIGER

@<TRIPOS>ATOM
      1 C          -9.7566  -18.8509   22.4621 C.ar    1  UNL1        0.0366
      2 C         -10.6108  -19.4698   21.3957 C.ar    1  UNL1        0.0007
      3 C         -11.9884  -18.9367   21.1348 C.ar    1  UNL1       -0.0002
      4 C         -12.5118  -17.7847   21.9403 C.ar    1  UNL1       -0.0000
      5 C         -11.6576  -17.1658   23.0067 C.ar    1  UNL1       -0.0002
      6 C         -10.2800  -17.6989   23.2675 C.ar    1  UNL1        0.0009
      7 C          -9.4258  -17.0799   24.3340 C.ar    1  UNL1       -0.0001
      8 C          -8.5321  -15.9221   24.0011 C.ar    1  UNL1        0.0009
      9 C          -7.6779  -15.3031   25.0674 C.ar    1  UNL1        0.0114
     10 C          -7.7174  -15.8419   26.4668 C.ar    1  UNL1        0.0577
     11 CL         -6.8632  -15.2229   27.5332 Cl      1  UNL1       -0.0822
     12 C          -8.6111  -16.9997   26.7997 C.ar    1  UNL1        0.0114
     13 C          -9.4653  -17.6187   25.7333 C.ar    1  UNL1        0.0009
     14 C          -8.3791  -19.3840   22.7229 C.3     1  UNL1        0.2829
     15 S          -7.2342  -18.9633   21.8499 S.O     1  UNL1        0.0447
     16 O          -7.2733  -17.6376   21.1489 O.co2   1  UNL1       -0.6807
     17 C          -6.0503  -19.8681   21.6777 C.3     1  UNL1        0.3397
     18 N          -4.9818  -18.6042   19.6749 N.am    1  UNL1       -0.3246
     19 C          -4.8328  -19.3798   20.9501 C.2     1  UNL1        0.2798
     20 O          -3.4662  -19.6673   21.4978 O.2     1  UNL1       -0.2697
     21 H          -4.1827  -18.2837   19.1974 H       1  UNL1        0.1451
     22 H          -5.8787  -18.4155   19.3155 H       1  UNL1        0.1451
@<TRIPOS>UNITY_ATOM_ATTR
15 1
charge 1
16 1
charge -1
@<TRIPOS>BOND
     1    18    19   am
     2    19    20    2
     3    19    17    1
     4    17    15    1
     5    15    16    2
     6    15    14    1
     7    14     1    1
     8     1     2   ar
     9     2     3   ar
    10     3     4   ar
    11     4     5   ar
    12     5     6   ar
    13     6     7    1
    14     7     8   ar
    15     8     9   ar
    16     9    10   ar
    17    10    11    1
    18    10    12   ar
    19    12    13   ar
    20     6     1   ar
    21    13     7   ar
    22    18    21    1
    23    18    22    1
@<TRIPOS>MOLECULE
*****
 22 23 0 0 0
SMALL
GASTEIGER

@<TRIPOS>ATOM
      1 C         -11.6119  -16.7795   22.6470 C.ar    1  UNL1        0.0366
      2 C         -13.0613  -17.1653   22.6280 C.ar    1  UNL1        0.0007
      3 C         -13.5915  -18.1394   23.6380 C.ar    1  UNL1       -0.0002
      4 C         -12.6722  -18.7276   24.6670 C.ar    1  UNL1       -0.0000
      5 C         -11.2229  -18.3418   24.6861 C.ar    1  UNL1       -0.0002
      6 C         -10.6927  -17.3677   23.6761 C.ar    1  UNL1        0.0009
      7 C          -9.2433  -16.9819   23.6951 C.ar    1  UNL1       -0.0001
      8 C          -8.2569  -17.7297   22.8479 C.ar    1  UNL1        0.0009
      9 C          -6.8075  -17.3440   22.8670 C.ar    1  UNL1        0.0114
     10 C          -6.3444  -16.2102   23.7332 C.ar    1  UNL1        0.0577
     11 CL         -4.8950  -15.8245   23.7523 Cl      1  UNL1       -0.0822
     12 C          -7.3308  -15.4624   24.5804 C.ar    1  UNL1        0.0114
     13 C          -8.7803  -15.8482   24.5614 C.ar    1  UNL1        0.0009
     14 C         -11.0818  -15.8054   21.6370 C.3     1  UNL1        0.2829
     15 S         -11.0781  -16.1630   20.1803 S.O     1  UNL1        0.0447
     16 O         -10.7431  -15.1221   19.1534 O.co2   1  UNL1       -0.6807
     17 C         -11.4093  -17.5614   19.7504 C.3     1  UNL1        0.3397
     18 N         -10.8648  -19.8162   20.9206 N.am    1  UNL1       -0.3246
     19 C         -10.4506  -18.6799   20.0333 C.2     1  UNL1        0.2798
     20 O          -9.0779  -18.6621   19.4290 O.2     1  UNL1       -0.2697
     21 H         -10.2357  -20.5503   21.1063 H       1  UNL1        0.1451
     22 H         -11.7658  -19.8279   21.3172 H       1  UNL1        0.1451
@<TRIPOS>UNITY_ATOM_ATTR
15 1
charge 1
16 1
charge -1
@<TRIPOS>BOND
     1    18    19   am
     2    19    20    2
     3    19    17    1
     4    17    15    1
     5    15    16    2
     6    15    14    1
     7    14     1    1
     8     1     2   ar
     9     2     3   ar
    10     3     4   ar
    11     4     5   ar
    12     5     6   ar
    13     6     7    1
    14     7     8   ar
    15     8     9   ar
    16     9    10   ar
    17    10    11    1
    18    10    12   ar
    19    12    13   ar
    20     6     1   ar
    21    13     7   ar
    22    18    21    1
    23    18    22    1
@<TRIPOS>MOLECULE
*****
 22 23 0 0 0
SMALL
GASTEIGER

@<TRIPOS>ATOM
      1 C          -8.9462  -18.2347   21.7480 C.ar    1  UNL1        0.0366
      2 C         -10.4290  -18.0626   21.6008 C.ar    1  UNL1        0.0007
      3 C         -11.1432  -18.6771   20.4336 C.ar    1  UNL1       -0.0002
      4 C         -10.3745  -19.4637   19.4136 C.ar    1  UNL1       -0.0000
      5 C          -8.8918  -19.6358   19.5609 C.ar    1  UNL1       -0.0002
      6 C          -8.1776  -19.0213   20.7281 C.ar    1  UNL1        0.0009
      7 C          -6.6948  -19.1934   20.8753 C.ar    1  UNL1       -0.0001
      8 C          -5.7944  -18.9832   19.6941 C.ar    1  UNL1        0.0009
      9 C          -4.3117  -19.1554   19.8412 C.ar    1  UNL1        0.0114
     10 C          -3.7291  -19.5377   21.1696 C.ar    1  UNL1        0.0577
     11 CL         -2.2464  -19.7098   21.3167 Cl      1  UNL1       -0.0822
     12 C          -4.6294  -19.7478   22.3508 C.ar    1  UNL1        0.0114
     13 C          -6.1123  -19.5757   22.2036 C.ar    1  UNL1        0.0009
     14 C          -8.2321  -17.6201   22.9152 C.3     1  UNL1        0.2829
     15 S          -7.8785  -16.1626   22.8953 S.O     1  UNL1        0.0447
     16 O          -7.9784  -15.3839   21.6171 O.co2   1  UNL1       -0.6807
     17 C          -7.4250  -15.4836   24.1536 C.3     1  UNL1        0.3397
     18 N          -5.0896  -15.0066   23.1200 N.am    1  UNL1       -0.3246
     19 C          -5.9855  -15.0959   24.3197 C.2     1  UNL1        0.2798
     20 O          -5.4419  -14.7977   25.6855 O.2     1  UNL1       -0.2697
     21 H          -4.1448  -14.7522   23.2290 H       1  UNL1        0.1451
     22 H          -5.4464  -15.2024   22.2235 H       1  UNL1        0.1451
@<TRIPOS>UNITY_ATOM_ATTR
15 1
charge 1
16 1
charge -1
@<TRIPOS>BOND
     1    18    19   am
     2    19    20    2
     3    19    17    1
     4    17    15    1
     5    15    16    2
     6    15    14    1
     7    14     1    1
     8     1     2   ar
     9     2     3   ar
    10     3     4   ar
    11     4     5   ar
    12     5     6   ar
    13     6     7    1
    14     7     8   ar
    15     8     9   ar
    16     9    10   ar
    17    10    11    1
    18    10    12   ar
    19    12    13   ar
    20     6     1   ar
    21    13     7   ar
    22    18    21    1
    23    18    22    1
@<TRIPOS>MOLECULE
*****
 22 23 0 0 0
SMALL
GASTEIGER

@<TRIPOS>ATOM
      1 C          -9.3135  -18.4494   21.7003 C.ar    1  UNL1        0.0366
      2 C         -10.0842  -18.9307   20.5068 C.ar    1  UNL1        0.0007
      3 C         -11.0159  -17.9989   19.7901 C.ar    1  UNL1       -0.0002
      4 C         -11.1770  -16.5859   20.2668 C.ar    1  UNL1       -0.0000
      5 C         -10.4063  -16.1046   21.4603 C.ar    1  UNL1       -0.0002
      6 C          -9.4746  -17.0364   22.1770 C.ar    1  UNL1        0.0009
      7 C          -8.7039  -16.5550   23.3705 C.ar    1  UNL1       -0.0001
      8 C          -9.2703  -16.7280   24.7486 C.ar    1  UNL1        0.0009
      9 C          -8.4997  -16.2467   25.9421 C.ar    1  UNL1        0.0114
     10 C          -7.1625  -15.5924   25.7575 C.ar    1  UNL1        0.0577
     11 CL         -6.3919  -15.1111   26.9510 Cl      1  UNL1       -0.0822
     12 C          -6.5961  -15.4194   24.3794 C.ar    1  UNL1        0.0114
     13 C          -7.3668  -15.9008   23.1859 C.ar    1  UNL1        0.0009
     14 C          -8.3818  -19.3812   22.4170 C.3     1  UNL1        0.2829
     15 S          -7.0867  -19.7856   21.7774 S.O     1  UNL1        0.0447
     16 O          -6.3466  -20.9902   22.2786 O.co2   1  UNL1       -0.6807
     17 C          -6.5317  -18.9854   20.6365 C.3     1  UNL1        0.3397
     18 N          -4.6766  -20.7079   20.0520 N.am    1  UNL1       -0.3246
     19 C          -5.1634  -19.2900   20.1024 C.2     1  UNL1        0.2798
     20 O          -4.2821  -18.1768   19.6187 O.2     1  UNL1       -0.2697
     21 H          -3.7786  -20.9079   19.7014 H       1  UNL1        0.1451
     22 H          -5.2551  -21.4386   20.3694 H       1  UNL1        0.1451
@<TRIPOS>UNITY_ATOM_ATTR
15 1
charge 1
16 1
charge -1
@<TRIPOS>BOND
     1    18    19   am
     2    19    20    2
     3    19    17    1
     4    17    15    1
     5    15    16    2
     6    15    14    1
     7    14     1    1
     8     1     2   ar
     9     2     3   ar
    10     3     4   ar
    11     4     5   ar
    12     5     6   ar
    13     6     7    1
    14     7     8   ar
    15     8     9   ar
    16     9    10   ar
    17    10    11    1
    18    10    12   ar
    19    12    13   ar
    20     6     1   ar
    21    13     7   ar
    22    18    21    1
    23    18    22    1
@<TRIPOS>MOLECULE
*****
 22 23 0 0 0
SMALL
GASTEIGER

@<TRIPOS>ATOM
      1 C          -6.9576  -16.2192   23.8825 C.ar    1  UNL1        0.0366
      2 C          -8.0490  -15.7143   24.7791 C.ar    1  UNL1        0.0007
      3 C          -7.7205  -15.2256   26.1586 C.ar    1  UNL1       -0.0002
      4 C          -6.3005  -15.2418   26.6417 C.ar    1  UNL1       -0.0000
      5 C          -5.2091  -15.7466   25.7451 C.ar    1  UNL1       -0.0002
      6 C          -5.5376  -16.2353   24.3655 C.ar    1  UNL1        0.0009
      7 C          -4.4461  -16.7402   23.4690 C.ar    1  UNL1       -0.0001
      8 C          -3.5592  -15.7693   22.7472 C.ar    1  UNL1        0.0009
      9 C          -2.4677  -16.2741   21.8507 C.ar    1  UNL1        0.0114
     10 C          -2.2630  -17.7498   21.6759 C.ar    1  UNL1        0.0577
     11 CL         -1.1715  -18.2546   20.7794 Cl      1  UNL1       -0.0822
     12 C          -3.1499  -18.7207   22.3977 C.ar    1  UNL1        0.0114
     13 C          -4.2414  -18.2158   23.2942 C.ar    1  UNL1        0.0009
     14 C          -7.2861  -16.7079   22.5029 C.3     1  UNL1        0.2829
     15 S          -8.4168  -17.6720   22.2983 S.O     1  UNL1        0.0447
     16 O          -9.5697  -17.2991   21.4140 O.co2   1  UNL1       -0.6807
     17 C          -8.3947  -19.0091   22.9778 C.3     1  UNL1        0.3397
     18 N         -10.5579  -18.3858   24.2749 N.am    1  UNL1       -0.3246
     19 C          -9.4572  -19.3603   23.9768 C.2     1  UNL1        0.2798
     20 O          -9.4190  -20.6859   24.6776 O.2     1  UNL1       -0.2697
     21 H         -11.2552  -18.6163   24.9305 H       1  UNL1        0.1451
     22 H         -10.5830  -17.5157   23.8149 H       1  UNL1        0.1451
@<TRIPOS>UNITY_ATOM_ATTR
15 1
charge 1
16 1
charge -1
@<TRIPOS>BOND
     1    18    19   am
     2    19    20    2
     3    19    17    1
     4    17    15    1
     5    15    16    2
     6    15    14    1
     7    14     1    1
     8     1     2   ar
     9     2     3   ar
    10     3     4   ar
    11     4     5   ar
    12     5     6   ar
    13     6     7    1
    14     7     8   ar
    15     8     9   ar
    16     9    10   ar
    17    10    11    1
    18    10    12   ar
    19    12    13   ar
    20     6     1   ar
    21    13     7   ar
    22    18    21    1
    23    18    22    1
@<TRIPOS>MOLECULE
*****
 22 23 0 0 0
SMALL
GASTEIGER

@<TRIPOS>ATOM
      1 C          -9.6947  -17.3074   21.6202 C.ar    1  UNL1        0.0366
      2 C         -10.6157  -17.5810   20.4683 C.ar    1  UNL1        0.0007
      3 C         -12.0261  -17.0713   20.4982 C.ar    1  UNL1       -0.0002
      4 C         -12.5156  -16.2880   21.6800 C.ar    1  UNL1       -0.0000
      5 C         -11.5946  -16.0144   22.8319 C.ar    1  UNL1       -0.0002
      6 C         -10.1842  -16.5241   22.8020 C.ar    1  UNL1        0.0009
      7 C          -9.2633  -16.2505   23.9540 C.ar    1  UNL1       -0.0001
      8 C          -9.4196  -17.0125   25.2365 C.ar    1  UNL1        0.0009
      9 C          -8.4987  -16.7389   26.3885 C.ar    1  UNL1        0.0114
     10 C          -7.4214  -15.7032   26.2580 C.ar    1  UNL1        0.0577
     11 CL         -6.5005  -15.4296   27.4100 Cl      1  UNL1       -0.0822
     12 C          -7.2651  -14.9412   24.9755 C.ar    1  UNL1        0.0114
     13 C          -8.1861  -15.2148   23.8234 C.ar    1  UNL1        0.0009
     14 C          -8.2843  -17.8171   21.5902 C.3     1  UNL1        0.2829
     15 S          -8.0199  -19.2935   21.6057 S.O     1  UNL1        0.0447
     16 O          -7.6528  -20.0030   20.3361 O.co2   1  UNL1       -0.6807
     17 C          -8.1225  -20.0604   22.8907 C.3     1  UNL1        0.3397
     18 N         -10.6972  -20.3191   22.6574 N.am    1  UNL1       -0.3246
     19 C          -9.4653  -20.3046   23.5132 C.2     1  UNL1        0.2798
     20 O          -9.5762  -20.5344   24.9913 O.2     1  UNL1       -0.2697
     21 H         -11.5785  -20.4794   23.0659 H       1  UNL1        0.1451
     22 H         -10.6244  -20.1683   21.6872 H       1  UNL1        0.1451
@<TRIPOS>UNITY_ATOM_ATTR
15 1
charge 1
16 1
charge -1
@<TRIPOS>BOND
     1    18    19   am
     2    19    20    2
     3    19    17    1
     4    17    15    1
     5    15    16    2
     6    15    14    1
     7    14     1    1
     8     1     2   ar
     9     2     3   ar
    10     3     4   ar
    11     4     5   ar
    12     5     6   ar
    13     6     7    1
    14     7     8   ar
    15     8     9   ar
    16     9    10   ar
    17    10    11    1
    18    10    12   ar
    19    12    13   ar
    20     6     1   ar
    21    13     7   ar
    22    18    21    1
    23    18    22    1
@<TRIPOS>MOLECULE
*****
 22 23 0 0 0
SMALL
GASTEIGER

@<TRIPOS>ATOM
      1 C         -11.8274   -6.4498   18.0272 C.ar    1  UNL1        0.0366
      2 C         -10.9333   -7.6516   17.9485 C.ar    1  UNL1        0.0007
      3 C          -9.5620   -7.6073   18.5549 C.ar    1  UNL1       -0.0002
      4 C          -9.0848   -6.3611   19.2399 C.ar    1  UNL1       -0.0000
      5 C          -9.9789   -5.1593   19.3186 C.ar    1  UNL1       -0.0002
      6 C         -11.3502   -5.2037   18.7122 C.ar    1  UNL1        0.0009
      7 C         -12.2442   -4.0018   18.7910 C.ar    1  UNL1       -0.0001
      8 C         -13.1205   -3.7962   19.9909 C.ar    1  UNL1        0.0009
      9 C         -14.0145   -2.5944   20.0697 C.ar    1  UNL1        0.0114
     10 C         -14.0324   -1.5980   18.9484 C.ar    1  UNL1        0.0577
     11 CL        -14.9264   -0.3962   19.0272 Cl      1  UNL1       -0.0822
     12 C         -13.1561   -1.8036   17.7485 C.ar    1  UNL1        0.0114
     13 C         -12.2620   -3.0055   17.6698 C.ar    1  UNL1        0.0009
     14 C         -13.1986   -6.4942   17.4209 C.3     1  UNL1        0.2829
     15 S         -14.3038   -7.2300   18.1188 S.O     1  UNL1        0.0447
     16 O         -14.9029   -6.6685   19.3741 O.co2   1  UNL1       -0.6807
     17 C         -14.8100   -8.5274   17.5613 C.3     1  UNL1        0.3397
     18 N         -15.7251   -9.3122   19.8628 N.am    1  UNL1       -0.3246
     19 C         -15.2173   -9.6340   18.4885 C.2     1  UNL1        0.2798
     20 O         -15.1170  -11.0622   18.0413 O.2     1  UNL1       -0.2697
     21 H         -15.9924  -10.0385   20.4713 H       1  UNL1        0.1451
     22 H         -15.7909   -8.3748   20.1563 H       1  UNL1        0.1451
@<TRIPOS>UNITY_ATOM_ATTR
15 1
charge 1
16 1
charge -1
@<TRIPOS>BOND
     1    18    19   am
     2    19    20    2
     3    19    17    1
     4    17    15    1
     5    15    16    2
     6    15    14    1
     7    14     1    1
     8     1     2   ar
     9     2     3   ar
    10     3     4   ar
    11     4     5   ar
    12     5     6   ar
    13     6     7    1
    14     7     8   ar
    15     8     9   ar
    16     9    10   ar
    17    10    11    1
    18    10    12   ar
    19    12    13   ar
    20     6     1   ar
    21    13     7   ar
    22    18    21    1
    23    18    22    1
@<TRIPOS>MOLECULE
*****
 22 23 0 0 0
SMALL
GASTEIGER

@<TRIPOS>ATOM
      1 C          -6.9685  -16.2428   23.9504 C.ar    1  UNL1        0.0366
      2 C          -8.0578  -15.7744   24.8691 C.ar    1  UNL1        0.0007
      3 C          -7.7277  -15.3538   26.2705 C.ar    1  UNL1       -0.0002
      4 C          -6.3084  -15.4017   26.7533 C.ar    1  UNL1       -0.0000
      5 C          -5.2191  -15.8701   25.8347 C.ar    1  UNL1       -0.0002
      6 C          -5.5492  -16.2907   24.4332 C.ar    1  UNL1        0.0009
      7 C          -4.4598  -16.7591   23.5145 C.ar    1  UNL1       -0.0001
      8 C          -3.5613  -15.7610   22.8464 C.ar    1  UNL1        0.0009
      9 C          -2.4720  -16.2294   21.9277 C.ar    1  UNL1        0.0114
     10 C          -2.2811  -17.6960   21.6771 C.ar    1  UNL1        0.0577
     11 CL         -1.1918  -18.1643   20.7585 Cl      1  UNL1       -0.0822
     12 C          -3.1796  -18.6941   22.3453 C.ar    1  UNL1        0.0114
     13 C          -4.2690  -18.2257   23.2639 C.ar    1  UNL1        0.0009
     14 C          -7.2986  -16.6634   22.5489 C.3     1  UNL1        0.2829
     15 S          -8.4382  -17.6057   22.2974 S.O     1  UNL1        0.0447
     16 O          -9.8493  -17.0969   22.3123 O.co2   1  UNL1       -0.6807
     17 C          -8.1669  -19.0567   22.0308 C.3     1  UNL1        0.3397
     18 N          -6.6746  -18.6489   19.9435 N.am    1  UNL1       -0.3246
     19 C          -7.0112  -19.4563   21.1620 C.2     1  UNL1        0.2798
     20 O          -6.1923  -20.6633   21.5117 O.2     1  UNL1       -0.2697
     21 H          -5.9161  -18.9111   19.3733 H       1  UNL1        0.1451
     22 H          -7.2122  -17.8566   19.7140 H       1  UNL1        0.1451
@<TRIPOS>UNITY_ATOM_ATTR
15 1
charge 1
16 1
charge -1
@<TRIPOS>BOND
     1    18    19   am
     2    19    20    2
     3    19    17    1
     4    17    15    1
     5    15    16    2
     6    15    14    1
     7    14     1    1
     8     1     2   ar
     9     2     3   ar
    10     3     4   ar
    11     4     5   ar
    12     5     6   ar
    13     6     7    1
    14     7     8   ar
    15     8     9   ar
    16     9    10   ar
    17    10    11    1
    18    10    12   ar
    19    12    13   ar
    20     6     1   ar
    21    13     7   ar
    22    18    21    1
    23    18    22    1
@<TRIPOS>MOLECULE
*****
 22 23 0 0 0
SMALL
GASTEIGER

@<TRIPOS>ATOM
      1 C         -12.0751   -6.5748   18.0529 C.ar    1  UNL1        0.0366
      2 C         -11.1011   -7.6780   17.7624 C.ar    1  UNL1        0.0007
      3 C          -9.6801   -7.5662   18.2295 C.ar    1  UNL1       -0.0002
      4 C          -9.2330   -6.3512   18.9872 C.ar    1  UNL1       -0.0000
      5 C         -10.2070   -5.2481   19.2776 C.ar    1  UNL1       -0.0002
      6 C         -11.6280   -5.3599   18.8105 C.ar    1  UNL1        0.0009
      7 C         -12.6020   -4.2567   19.1010 C.ar    1  UNL1       -0.0001
      8 C         -12.7431   -3.1097   18.1447 C.ar    1  UNL1        0.0009
      9 C         -13.7170   -2.0065   18.4352 C.ar    1  UNL1        0.0114
     10 C         -14.5499   -2.0503   19.6820 C.ar    1  UNL1        0.0577
     11 CL        -15.5239   -0.9471   19.9724 Cl      1  UNL1       -0.0822
     12 C         -14.4089   -3.1973   20.6382 C.ar    1  UNL1        0.0114
     13 C         -13.4349   -4.3005   20.3477 C.ar    1  UNL1        0.0009
     14 C         -13.4961   -6.6867   17.5857 C.3     1  UNL1        0.2829
     15 S         -14.4355   -7.6398   18.2632 S.O     1  UNL1        0.0447
     16 O         -14.3395   -9.1111   17.9870 O.co2   1  UNL1       -0.6807
     17 C         -15.4709   -7.1218   19.2169 C.3     1  UNL1        0.3397
     18 N         -15.9822   -9.4138   20.3284 N.am    1  UNL1       -0.3246
     19 C         -16.4451   -8.0685   19.8530 C.2     1  UNL1        0.2798
     20 O         -17.8822   -7.6700   20.0138 O.2     1  UNL1       -0.2697
     21 H         -16.6215  -10.0351   20.7459 H       1  UNL1        0.1451
     22 H         -15.0389   -9.6753   20.2228 H       1  UNL1        0.1451
@<TRIPOS>UNITY_ATOM_ATTR
15 1
charge 1
16 1
charge -1
@<TRIPOS>BOND
     1    18    19   am
     2    19    20    2
     3    19    17    1
     4    17    15    1
     5    15    16    2
     6    15    14    1
     7    14     1    1
     8     1     2   ar
     9     2     3   ar
    10     3     4   ar
    11     4     5   ar
    12     5     6   ar
    13     6     7    1
    14     7     8   ar
    15     8     9   ar
    16     9    10   ar
    17    10    11    1
    18    10    12   ar
    19    12    13   ar
    20     6     1   ar
    21    13     7   ar
    22    18    21    1
    23    18    22    1
