@<TRIPOS>MOLECULE
*****
 39 44 0 0 0
SMALL
GASTEIGER

@<TRIPOS>ATOM
      1 C          -6.5724    4.8694   21.1638 C.3     1  UNL1        0.1122
      2 N          -5.6055    4.4405   22.2273 N.am    1  UNL1       -0.2870
      3 C          -4.1290    4.5572   21.9899 C.2     1  UNL1        0.3043
      4 O          -3.6194    5.1028   20.6889 O.2     1  UNL1       -0.2526
      5 N          -3.1621    4.1283   23.0534 N.am    1  UNL1       -0.2596
      6 C          -3.6717    3.5827   24.3544 C.3     1  UNL1        0.1015
      7 C          -2.7047    3.1538   25.4179 C.3     1  UNL1        0.0668
      8 C          -1.2283    3.2705   25.1804 C.ar    1  UNL1        0.0576
      9 C          -0.7187    3.8161   23.8794 C.ar    1  UNL1        0.0446
     10 C           0.7804    3.8133   23.9309 C.ar    1  UNL1        0.1538
     11 N           1.1974    3.2660   25.2638 N.ar    1  UNL1       -0.1545
     12 N          -0.0440    2.9305   26.0360 N.ar    1  UNL1       -0.2557
     13 C          -1.6856    4.2450   22.8159 C.3     1  UNL1        0.1257
     14 H          -5.9399    4.0824   23.0812 H       1  UNL1        0.1510
     15 N           1.7010    4.2765   22.8409 N.pl3   1  UNL1       -0.2715
     16 C           2.0332    5.7332   22.7085 C.3     1  UNL1        0.0973
     17 C           2.9537    6.1964   21.6185 C.3     1  UNL1        0.0266
     18 C           3.5420    5.2028   20.6609 C.3     1  UNL1        0.0294
     19 C           3.2097    3.7462   20.7934 C.ar    1  UNL1       -0.0085
     20 C           3.7979    2.7526   19.8358 C.ar    1  UNL1       -0.0031
     21 C           3.4656    1.2959   19.9683 C.ar    1  UNL1        0.0041
     22 C           2.5451    0.8327   21.0583 C.ar    1  UNL1        0.0449
     23 C           1.9569    1.8262   22.0159 C.ar    1  UNL1        0.0157
     24 C           2.2892    3.2830   21.8834 C.ar    1  UNL1        0.0486
     25 C           4.0539    0.3024   19.0108 C.ar    1  UNL1        0.0395
     26 C           3.4895   -0.0732   17.6726 C.ar    1  UNL1        0.1216
     27 N           4.3966   -1.0977   17.0581 N.ar    1  UNL1       -0.1676
     28 N           5.5215   -1.3553   18.0164 N.ar    1  UNL1       -0.2473
     29 C           6.6585   -2.3105   17.8050 C.3     1  UNL1        0.1538
     30 C           5.3096   -0.4900   19.2232 C.ar    1  UNL1        0.0967
     31 C           2.2128   -0.6240   21.1908 C.3     1  UNL1        0.3410
     32 F           2.9835   -1.4851   22.1472 F       1  UNL1       -0.1933
     33 F           1.1099   -1.2196   20.3669 F       1  UNL1       -0.1933
     34 C          -0.0927    2.3559   27.4208 C.3     1  UNL1        0.1098
     35 C          -0.8162    1.0663   27.6727 C.3     1  UNL1        0.0565
     36 C          -0.8649    0.4917   29.0574 C.3     1  UNL1        0.1442
     37 O          -0.1900    1.2067   30.1902 O.3     1  UNL1       -0.3536
     38 C           0.5336    2.4963   29.9383 C.3     1  UNL1        0.1442
     39 C           0.5822    3.0708   28.5536 C.3     1  UNL1        0.0565
@<TRIPOS>BOND
     1     1     2    1
     2     2     3   am
     3     3     4    2
     4     3     5   am
     5     5     6    1
     6     6     7    1
     7     7     8    1
     8     8     9   ar
     9     9    10   ar
    10    10    15    1
    11    15    16    1
    12    16    17    1
    13    17    18    1
    14    18    19    1
    15    19    20   ar
    16    20    21   ar
    17    21    25    1
    18    25    26   ar
    19    26    27   ar
    20    27    28   ar
    21    28    29    1
    22    28    30   ar
    23    21    22   ar
    24    22    31    1
    25    31    32    1
    26    31    33    1
    27    22    23   ar
    28    23    24   ar
    29    10    11   ar
    30    11    12   ar
    31    12    34    1
    32    34    35    1
    33    35    36    1
    34    36    37    1
    35    37    38    1
    36    38    39    1
    37     9    13    1
    38    13     5    1
    39    12     8   ar
    40    39    34    1
    41    24    15    1
    42    24    19   ar
    43    30    25   ar
    44     2    14    1
@<TRIPOS>MOLECULE
*****
 39 44 0 0 0
SMALL
GASTEIGER

@<TRIPOS>ATOM
      1 C           4.3557    7.4505   20.4427 C.3     1  UNL1        0.1122
      2 N           3.1555    6.8817   21.1398 N.am    1  UNL1       -0.2870
      3 C           3.2755    5.6057   21.9192 C.2     1  UNL1        0.3043
      4 O           4.5957    4.8985   22.0014 O.2     1  UNL1       -0.2526
      5 N           2.0753    5.0370   22.6163 N.am    1  UNL1       -0.2596
      6 C           0.7551    5.7442   22.5340 C.3     1  UNL1        0.1015
      7 C          -0.4452    5.1754   23.2312 C.3     1  UNL1        0.0668
      8 C          -0.3252    3.8995   24.0105 C.ar    1  UNL1        0.0576
      9 C           0.9951    3.1922   24.0928 C.ar    1  UNL1        0.0446
     10 C           0.8099    1.9607   24.9290 C.ar    1  UNL1        0.1538
     11 N          -0.6247    1.9069   25.3635 N.ar    1  UNL1       -0.1545
     12 N          -1.3263    3.1050   24.7959 N.ar    1  UNL1       -0.2557
     13 C           2.1953    3.7610   23.3957 C.3     1  UNL1        0.1257
     14 H           2.2890    7.3459   21.0858 H       1  UNL1        0.1510
     15 N           1.8729    0.9590   25.2706 N.pl3   1  UNL1       -0.2715
     16 C           2.3141    0.7895   26.6942 C.3     1  UNL1        0.0973
     17 C           3.3770   -0.2122   27.0357 C.3     1  UNL1        0.0266
     18 C           3.9987   -1.0445   25.9537 C.3     1  UNL1        0.0294
     19 C           3.5576   -0.8750   24.5301 C.ar    1  UNL1       -0.0085
     20 C           4.1794   -1.7073   23.4481 C.ar    1  UNL1       -0.0031
     21 C           3.7382   -1.5378   22.0245 C.ar    1  UNL1        0.0041
     22 C           2.6752   -0.5360   21.6829 C.ar    1  UNL1        0.0449
     23 C           2.0535    0.2962   22.7649 C.ar    1  UNL1        0.0157
     24 C           2.4947    0.1267   24.1886 C.ar    1  UNL1        0.0486
     25 C           4.3600   -2.3701   20.9425 C.ar    1  UNL1        0.0395
     26 C           5.5866   -2.0178   20.1542 C.ar    1  UNL1        0.1216
     27 N           5.8490   -3.1308   19.1833 N.ar    1  UNL1       -0.1676
     28 N           4.7846   -4.1708   19.3716 N.ar    1  UNL1       -0.2473
     29 C           4.6620   -5.4553   18.6069 C.3     1  UNL1        0.1538
     30 C           3.8643   -3.7006   20.4588 C.ar    1  UNL1        0.0967
     31 C           2.2341   -0.3666   20.2593 C.3     1  UNL1        0.3410
     32 F           0.8994   -0.8918   19.8201 F       1  UNL1       -0.1933
     33 F           3.1276    0.3281   19.2749 F       1  UNL1       -0.1933
     34 C          -2.7746    3.4485   24.9811 C.3     1  UNL1        0.1098
     35 C          -3.7424    3.2521   23.8520 C.3     1  UNL1        0.0565
     36 C          -5.1907    3.5956   24.0373 C.3     1  UNL1        0.1442
     37 O          -5.6713    4.1355   25.3515 O.3     1  UNL1       -0.3536
     38 C          -4.7035    4.3320   26.4807 C.3     1  UNL1        0.1442
     39 C          -3.2553    3.9885   26.2954 C.3     1  UNL1        0.0565
@<TRIPOS>BOND
     1     1     2    1
     2     2     3   am
     3     3     4    2
     4     3     5   am
     5     5     6    1
     6     6     7    1
     7     7     8    1
     8     8     9   ar
     9     9    10   ar
    10    10    15    1
    11    15    16    1
    12    16    17    1
    13    17    18    1
    14    18    19    1
    15    19    20   ar
    16    20    21   ar
    17    21    25    1
    18    25    26   ar
    19    26    27   ar
    20    27    28   ar
    21    28    29    1
    22    28    30   ar
    23    21    22   ar
    24    22    31    1
    25    31    32    1
    26    31    33    1
    27    22    23   ar
    28    23    24   ar
    29    10    11   ar
    30    11    12   ar
    31    12    34    1
    32    34    35    1
    33    35    36    1
    34    36    37    1
    35    37    38    1
    36    38    39    1
    37     9    13    1
    38    13     5    1
    39    12     8   ar
    40    39    34    1
    41    24    15    1
    42    24    19   ar
    43    30    25   ar
    44     2    14    1
@<TRIPOS>MOLECULE
*****
 39 44 0 0 0
SMALL
GASTEIGER

@<TRIPOS>ATOM
      1 C           8.0499    5.1842   16.4166 C.3     1  UNL1        0.1122
      2 N           7.4038    3.9549   16.9835 N.am    1  UNL1       -0.2870
      3 C           5.9434    3.9652   17.3259 C.2     1  UNL1        0.3043
      4 O           5.1291    5.2047   17.1014 O.2     1  UNL1       -0.2526
      5 N           5.2974    2.7359   17.8928 N.am    1  UNL1       -0.2596
      6 C           6.1116    1.4963   18.1173 C.3     1  UNL1        0.1015
      7 C           5.4655    0.2670   18.6842 C.3     1  UNL1        0.0668
      8 C           4.0052    0.2772   19.0265 C.ar    1  UNL1        0.0576
      9 C           3.1909    1.5168   18.8020 C.ar    1  UNL1        0.0446
     10 C           1.7826    1.2305   19.2319 C.ar    1  UNL1        0.1538
     11 N           1.7265   -0.1860   19.7221 N.ar    1  UNL1       -0.1545
     12 N           3.1001   -0.7752   19.5952 N.ar    1  UNL1       -0.2557
     13 C           3.8370    2.7461   18.2352 C.3     1  UNL1        0.1257
     14 H           7.9383    3.1413   17.1309 H       1  UNL1        0.1510
     15 N           0.6324    2.1920   19.1806 N.pl3   1  UNL1       -0.2715
     16 C           0.1161    2.6738   17.8573 C.3     1  UNL1        0.0973
     17 C          -1.0341    3.6352   17.8061 C.3     1  UNL1        0.0266
     18 C          -1.6680    4.1148   19.0781 C.3     1  UNL1        0.0294
     19 C          -1.1517    3.6330   20.4014 C.ar    1  UNL1       -0.0085
     20 C          -1.7856    4.1126   21.6735 C.ar    1  UNL1       -0.0031
     21 C          -1.2694    3.6307   22.9968 C.ar    1  UNL1        0.0041
     22 C          -0.1191    2.6692   23.0481 C.ar    1  UNL1        0.0449
     23 C           0.5148    2.1897   21.7761 C.ar    1  UNL1        0.0157
     24 C          -0.0015    2.6715   20.4527 C.ar    1  UNL1        0.0486
     25 C          -1.9033    4.1103   24.2689 C.ar    1  UNL1        0.0395
     26 C          -1.2921    5.0620   25.2543 C.ar    1  UNL1        0.1216
     27 N          -2.2708    5.2623   26.3733 N.ar    1  UNL1       -0.1676
     28 N          -3.4867    4.4344   26.0796 N.ar    1  UNL1       -0.2473
     29 C          -4.7141    4.3358   26.9360 C.3     1  UNL1        0.1538
     30 C          -3.2595    3.7225   24.7790 C.ar    1  UNL1        0.0967
     31 C           0.3972    2.1874   24.3715 C.3     1  UNL1        0.3410
     32 F          -0.1160    0.9042   24.9546 F       1  UNL1       -0.1933
     33 F           1.4267    2.9888   25.1117 F       1  UNL1       -0.1933
     34 C           3.4987   -2.1716   19.9709 C.3     1  UNL1        0.1098
     35 C           4.0566   -2.4510   21.3350 C.3     1  UNL1        0.0565
     36 C           4.4552   -3.8474   21.7107 C.3     1  UNL1        0.1442
     37 O           4.2959   -4.9644   20.7224 O.3     1  UNL1       -0.3536
     38 C           3.7380   -4.6850   19.3583 C.3     1  UNL1        0.1442
     39 C           3.3394   -3.2887   18.9826 C.3     1  UNL1        0.0565
@<TRIPOS>BOND
     1     1     2    1
     2     2     3   am
     3     3     4    2
     4     3     5   am
     5     5     6    1
     6     6     7    1
     7     7     8    1
     8     8     9   ar
     9     9    10   ar
    10    10    15    1
    11    15    16    1
    12    16    17    1
    13    17    18    1
    14    18    19    1
    15    19    20   ar
    16    20    21   ar
    17    21    25    1
    18    25    26   ar
    19    26    27   ar
    20    27    28   ar
    21    28    29    1
    22    28    30   ar
    23    21    22   ar
    24    22    31    1
    25    31    32    1
    26    31    33    1
    27    22    23   ar
    28    23    24   ar
    29    10    11   ar
    30    11    12   ar
    31    12    34    1
    32    34    35    1
    33    35    36    1
    34    36    37    1
    35    37    38    1
    36    38    39    1
    37     9    13    1
    38    13     5    1
    39    12     8   ar
    40    39    34    1
    41    24    15    1
    42    24    19   ar
    43    30    25   ar
    44     2    14    1
@<TRIPOS>MOLECULE
*****
 39 44 0 0 0
SMALL
GASTEIGER

@<TRIPOS>ATOM
      1 C           5.3383    6.1533   16.3065 C.3     1  UNL1        0.1122
      2 N           5.2180    4.7553   16.8366 N.am    1  UNL1       -0.2870
      3 C           4.2296    4.4473   17.9220 C.2     1  UNL1        0.3043
      4 O           3.3614    5.5372   18.4773 O.2     1  UNL1       -0.2526
      5 N           4.1092    3.0492   18.4521 N.am    1  UNL1       -0.2596
      6 C           4.9773    1.9593   17.8969 C.3     1  UNL1        0.1015
      7 C           4.8569    0.5612   18.4270 C.3     1  UNL1        0.0668
      8 C           3.8685    0.2532   19.5124 C.ar    1  UNL1        0.0576
      9 C           3.0004    1.3432   20.0676 C.ar    1  UNL1        0.0446
     10 C           2.1233    0.7432   21.1263 C.ar    1  UNL1        0.1538
     11 N           2.4493   -0.7176   21.2253 N.ar    1  UNL1       -0.1545
     12 N           3.5279   -1.0204   20.2279 N.ar    1  UNL1       -0.2557
     13 C           3.1208    2.7412   19.5375 C.3     1  UNL1        0.1257
     14 H           5.7878    4.0399   16.4722 H       1  UNL1        0.1510
     15 N           1.0998    1.4755   21.9426 N.pl3   1  UNL1       -0.2715
     16 C           0.0184    2.2602   21.2610 C.3     1  UNL1        0.0973
     17 C          -1.0050    2.9925   22.0773 C.3     1  UNL1        0.0266
     18 C          -0.9469    2.9400   23.5753 C.3     1  UNL1        0.0294
     19 C           0.1345    2.1553   24.2569 C.ar    1  UNL1       -0.0085
     20 C           0.1926    2.1029   25.7549 C.ar    1  UNL1       -0.0031
     21 C           1.2740    1.3182   26.4365 C.ar    1  UNL1        0.0041
     22 C           2.2975    0.5859   25.6202 C.ar    1  UNL1        0.0449
     23 C           2.2394    0.6383   24.1222 C.ar    1  UNL1        0.0157
     24 C           1.1579    1.4231   23.4406 C.ar    1  UNL1        0.0486
     25 C           1.3321    1.2657   27.9345 C.ar    1  UNL1        0.0395
     26 C           0.8019    0.1606   28.7992 C.ar    1  UNL1        0.1216
     27 N           1.0727    0.5211   30.2299 N.ar    1  UNL1       -0.1676
     28 N           1.7702    1.8490   30.2494 N.ar    1  UNL1       -0.2473
     29 C           2.2271    2.5869   31.4726 C.3     1  UNL1        0.1538
     30 C           1.9305    2.3091   28.8307 C.ar    1  UNL1        0.0967
     31 C           3.3789   -0.1988   26.3018 C.3     1  UNL1        0.3410
     32 F           4.3033    0.4808   27.2681 F       1  UNL1       -0.1933
     33 F           3.5360   -1.6632   26.0173 F       1  UNL1       -0.1933
     34 C           4.1557   -2.3615   19.9880 C.3     1  UNL1        0.1098
     35 C           3.3860   -3.4331   19.2745 C.3     1  UNL1        0.0565
     36 C           4.0138   -4.7742   19.0347 C.3     1  UNL1        0.1442
     37 O           5.4112   -5.0435   19.5083 O.3     1  UNL1       -0.3536
     38 C           6.1811   -3.9718   20.2219 C.3     1  UNL1        0.1442
     39 C           5.5532   -2.6309   20.4617 C.3     1  UNL1        0.0565
@<TRIPOS>BOND
     1     1     2    1
     2     2     3   am
     3     3     4    2
     4     3     5   am
     5     5     6    1
     6     6     7    1
     7     7     8    1
     8     8     9   ar
     9     9    10   ar
    10    10    15    1
    11    15    16    1
    12    16    17    1
    13    17    18    1
    14    18    19    1
    15    19    20   ar
    16    20    21   ar
    17    21    25    1
    18    25    26   ar
    19    26    27   ar
    20    27    28   ar
    21    28    29    1
    22    28    30   ar
    23    21    22   ar
    24    22    31    1
    25    31    32    1
    26    31    33    1
    27    22    23   ar
    28    23    24   ar
    29    10    11   ar
    30    11    12   ar
    31    12    34    1
    32    34    35    1
    33    35    36    1
    34    36    37    1
    35    37    38    1
    36    38    39    1
    37     9    13    1
    38    13     5    1
    39    12     8   ar
    40    39    34    1
    41    24    15    1
    42    24    19   ar
    43    30    25   ar
    44     2    14    1
@<TRIPOS>MOLECULE
*****
 39 44 0 0 0
SMALL
GASTEIGER

@<TRIPOS>ATOM
      1 C           2.7179   -0.5772   30.2904 C.3     1  UNL1        0.1122
      2 N           1.6914    0.0953   29.4278 N.am    1  UNL1       -0.2870
      3 C           2.1186    0.8527   28.2056 C.2     1  UNL1        0.3043
      4 O           3.5723    0.9376   27.8459 O.2     1  UNL1       -0.2526
      5 N           1.0921    1.5251   27.3430 N.am    1  UNL1       -0.2596
      6 C          -0.3617    1.4402   27.7027 C.3     1  UNL1        0.1015
      7 C          -1.3882    2.1128   26.8401 C.3     1  UNL1        0.0668
      8 C          -0.9610    2.8701   25.6179 C.ar    1  UNL1        0.0576
      9 C           0.4928    2.9550   25.2582 C.ar    1  UNL1        0.0446
     10 C           0.6130    3.7664   24.0023 C.ar    1  UNL1        0.1538
     11 N          -0.7665    4.1829   23.5858 N.ar    1  UNL1       -0.1545
     12 N          -1.7392    3.6290   24.5842 N.ar    1  UNL1       -0.2557
     13 C           1.5193    2.2825   26.1208 C.3     1  UNL1        0.1257
     14 H           0.7372    0.0396   29.6639 H       1  UNL1        0.1510
     15 N           1.8888    4.1022   23.2883 N.pl3   1  UNL1       -0.2715
     16 C           2.6062    5.3828   23.5969 C.3     1  UNL1        0.0973
     17 C           3.8819    5.7185   22.8829 C.3     1  UNL1        0.0266
     18 C           4.4401    4.7737   21.8603 C.3     1  UNL1        0.0294
     19 C           3.7227    3.4931   21.5518 C.ar    1  UNL1       -0.0085
     20 C           4.2809    2.5482   20.5292 C.ar    1  UNL1       -0.0031
     21 C           3.5635    1.2676   20.2206 C.ar    1  UNL1        0.0041
     22 C           2.2877    0.9318   20.9346 C.ar    1  UNL1        0.0449
     23 C           1.7295    1.8767   21.9572 C.ar    1  UNL1        0.0157
     24 C           2.4470    3.1573   22.2658 C.ar    1  UNL1        0.0486
     25 C           4.1217    0.3228   19.1981 C.ar    1  UNL1        0.0395
     26 C           3.6269    0.1521   17.7923 C.ar    1  UNL1        0.1216
     27 N           4.4722   -0.8935   17.1272 N.ar    1  UNL1       -0.1676
     28 N           5.4894   -1.3689   18.1218 N.ar    1  UNL1       -0.2473
     29 C           6.5389   -2.4127   17.8791 C.3     1  UNL1        0.1538
     30 C           5.2728   -0.6172   19.4017 C.ar    1  UNL1        0.0967
     31 C           1.5703   -0.3488   20.6261 C.3     1  UNL1        0.3410
     32 F           2.2620   -1.6641   20.8303 F       1  UNL1       -0.1933
     33 F           0.1611   -0.3142   20.1133 F       1  UNL1       -0.1933
     34 C          -3.2288    3.8034   24.5543 C.3     1  UNL1        0.1098
     35 C          -3.9462    4.3333   25.7603 C.3     1  UNL1        0.0565
     36 C          -5.4358    4.5077   25.7304 C.3     1  UNL1        0.1442
     37 O          -6.2078    4.1521   24.4945 O.3     1  UNL1       -0.3536
     38 C          -5.4903    3.6222   23.2884 C.3     1  UNL1        0.1442
     39 C          -4.0009    3.4479   23.3184 C.3     1  UNL1        0.0565
@<TRIPOS>BOND
     1     1     2    1
     2     2     3   am
     3     3     4    2
     4     3     5   am
     5     5     6    1
     6     6     7    1
     7     7     8    1
     8     8     9   ar
     9     9    10   ar
    10    10    15    1
    11    15    16    1
    12    16    17    1
    13    17    18    1
    14    18    19    1
    15    19    20   ar
    16    20    21   ar
    17    21    25    1
    18    25    26   ar
    19    26    27   ar
    20    27    28   ar
    21    28    29    1
    22    28    30   ar
    23    21    22   ar
    24    22    31    1
    25    31    32    1
    26    31    33    1
    27    22    23   ar
    28    23    24   ar
    29    10    11   ar
    30    11    12   ar
    31    12    34    1
    32    34    35    1
    33    35    36    1
    34    36    37    1
    35    37    38    1
    36    38    39    1
    37     9    13    1
    38    13     5    1
    39    12     8   ar
    40    39    34    1
    41    24    15    1
    42    24    19   ar
    43    30    25   ar
    44     2    14    1
@<TRIPOS>MOLECULE
*****
 39 44 0 0 0
SMALL
GASTEIGER

@<TRIPOS>ATOM
      1 C           4.3818   -4.6969   19.2172 C.3     1  UNL1        0.1122
      2 N           3.4958   -3.4906   19.3157 N.am    1  UNL1       -0.2870
      3 C           3.7450   -2.4618   20.3785 C.2     1  UNL1        0.3043
      4 O           4.8802   -2.6393   21.3428 O.2     1  UNL1       -0.2526
      5 N           2.8590   -1.2554   20.4770 N.am    1  UNL1       -0.2596
      6 C           1.7239   -1.0778   19.5127 C.3     1  UNL1        0.1015
      7 C           0.8379    0.1286   19.6112 C.3     1  UNL1        0.0668
      8 C           1.0871    1.1573   20.6739 C.ar    1  UNL1        0.0576
      9 C           2.2222    0.9798   21.6382 C.ar    1  UNL1        0.0446
     10 C           2.2234    2.1522   22.5739 C.ar    1  UNL1        0.1538
     11 N           1.0889    3.0544   22.1878 N.ar    1  UNL1       -0.1545
     12 N           0.3866    2.4396   21.0136 N.ar    1  UNL1       -0.2557
     13 C           3.1082   -0.2266   21.5397 C.3     1  UNL1        0.1257
     14 H           2.7508   -3.3740   18.6828 H       1  UNL1        0.1510
     15 N           3.1894    2.3821   23.6982 N.pl3   1  UNL1       -0.2715
     16 C           4.6478    2.5765   23.4060 C.3     1  UNL1        0.0973
     17 C           5.6137    2.8063   24.5303 C.3     1  UNL1        0.0266
     18 C           5.1214    2.8418   25.9467 C.3     1  UNL1        0.0294
     19 C           3.6630    2.6473   26.2389 C.ar    1  UNL1       -0.0085
     20 C           3.1707    2.6828   27.6553 C.ar    1  UNL1       -0.0031
     21 C           1.7123    2.4883   27.9475 C.ar    1  UNL1        0.0041
     22 C           0.7463    2.2585   26.8232 C.ar    1  UNL1        0.0449
     23 C           1.2387    2.2231   25.4068 C.ar    1  UNL1        0.0157
     24 C           2.6971    2.4175   25.1146 C.ar    1  UNL1        0.0486
     25 C           1.2200    2.5238   29.3640 C.ar    1  UNL1        0.0395
     26 C           1.0274    1.3365   30.2604 C.ar    1  UNL1        0.1216
     27 N           0.5221    1.8317   31.5831 N.ar    1  UNL1       -0.1676
     28 N           0.4024    3.3248   31.5042 N.ar    1  UNL1       -0.2473
     29 C          -0.0662    4.2310   32.6037 C.3     1  UNL1        0.1538
     30 C           0.8337    3.7525   30.1327 C.ar    1  UNL1        0.0967
     31 C          -0.7120    2.0640   27.1154 C.3     1  UNL1        0.3410
     32 F          -1.1852    0.7946   27.7595 F       1  UNL1       -0.1933
     33 F          -1.6973    3.1390   26.7635 F       1  UNL1       -0.1933
     34 C          -0.8066    3.0073   20.3037 C.3     1  UNL1        0.1098
     35 C          -0.6686    3.5287   18.9041 C.3     1  UNL1        0.0565
     36 C          -1.8619    4.0964   18.1942 C.3     1  UNL1        0.1442
     37 O          -3.1930    4.1426   18.8840 O.3     1  UNL1       -0.3536
     38 C          -3.3310    3.6212   20.2837 C.3     1  UNL1        0.1442
     39 C          -2.1378    3.0535   20.9935 C.3     1  UNL1        0.0565
@<TRIPOS>BOND
     1     1     2    1
     2     2     3   am
     3     3     4    2
     4     3     5   am
     5     5     6    1
     6     6     7    1
     7     7     8    1
     8     8     9   ar
     9     9    10   ar
    10    10    15    1
    11    15    16    1
    12    16    17    1
    13    17    18    1
    14    18    19    1
    15    19    20   ar
    16    20    21   ar
    17    21    25    1
    18    25    26   ar
    19    26    27   ar
    20    27    28   ar
    21    28    29    1
    22    28    30   ar
    23    21    22   ar
    24    22    31    1
    25    31    32    1
    26    31    33    1
    27    22    23   ar
    28    23    24   ar
    29    10    11   ar
    30    11    12   ar
    31    12    34    1
    32    34    35    1
    33    35    36    1
    34    36    37    1
    35    37    38    1
    36    38    39    1
    37     9    13    1
    38    13     5    1
    39    12     8   ar
    40    39    34    1
    41    24    15    1
    42    24    19   ar
    43    30    25   ar
    44     2    14    1
@<TRIPOS>MOLECULE
*****
 39 44 0 0 0
SMALL
GASTEIGER

@<TRIPOS>ATOM
      1 C          -6.9646    3.9124   18.6080 C.3     1  UNL1        0.1122
      2 N          -5.9731    3.7854   19.7263 N.am    1  UNL1       -0.2870
      3 C          -4.5027    3.8442   19.4353 C.2     1  UNL1        0.3043
      4 O          -4.0239    4.0299   18.0260 O.2     1  UNL1       -0.2526
      5 N          -3.5112    3.7172   20.5537 N.am    1  UNL1       -0.2596
      6 C          -3.9900    3.5314   21.9630 C.3     1  UNL1        0.1015
      7 C          -2.9983    3.4044   23.0814 C.3     1  UNL1        0.0668
      8 C          -1.5281    3.4632   22.7904 C.ar    1  UNL1        0.0576
      9 C          -1.0493    3.6489   21.3810 C.ar    1  UNL1        0.0446
     10 C           0.4505    3.6689   21.3998 C.ar    1  UNL1        0.1538
     11 N           0.8986    3.4954   22.8207 N.ar    1  UNL1       -0.1545
     12 N          -0.3242    3.3683   23.6802 N.ar    1  UNL1       -0.2557
     13 C          -2.0409    3.7759   20.2627 C.3     1  UNL1        0.1257
     14 H          -6.2873    3.6635   20.6513 H       1  UNL1        0.1510
     15 N           1.3450    3.8334   20.2070 N.pl3   1  UNL1       -0.2715
     16 C           1.2670    5.0805   19.3773 C.3     1  UNL1        0.0973
     17 C           2.1616    5.2450   18.1845 C.3     1  UNL1        0.0266
     18 C           3.1341    4.1622   17.8215 C.3     1  UNL1        0.0294
     19 C           3.2121    2.9151   18.6511 C.ar    1  UNL1       -0.0085
     20 C           4.1846    1.8323   18.2881 C.ar    1  UNL1       -0.0031
     21 C           4.2627    0.5851   19.1177 C.ar    1  UNL1        0.0041
     22 C           3.3681    0.4206   20.3106 C.ar    1  UNL1        0.0449
     23 C           2.3955    1.5034   20.6736 C.ar    1  UNL1        0.0157
     24 C           2.3176    2.7506   19.8439 C.ar    1  UNL1        0.0486
     25 C           5.2352   -0.4976   18.7546 C.ar    1  UNL1        0.0395
     26 C           4.9883   -1.6159   17.7858 C.ar    1  UNL1        0.1216
     27 N           6.2260   -2.4616   17.7291 N.ar    1  UNL1       -0.1676
     28 N           7.2377   -1.8660   18.6628 N.ar    1  UNL1       -0.2473
     29 C           8.6190   -2.3919   18.9178 C.3     1  UNL1        0.1538
     30 C           6.6253   -0.6522   19.2966 C.ar    1  UNL1        0.0967
     31 C           3.4461   -0.8265   21.1402 C.3     1  UNL1        0.3410
     32 F           2.9535   -2.1296   20.5838 F       1  UNL1       -0.1933
     33 F           4.0167   -0.7708   22.5264 F       1  UNL1       -0.1933
     34 C          -0.3403    3.1795   25.1682 C.3     1  UNL1        0.1098
     35 C          -0.1609    4.3600   26.0760 C.3     1  UNL1        0.0565
     36 C          -0.1770    4.1712   27.5640 C.3     1  UNL1        0.1442
     37 O          -0.3725    2.8018   28.1441 O.3     1  UNL1       -0.3536
     38 C          -0.5519    1.6212   27.2362 C.3     1  UNL1        0.1442
     39 C          -0.5358    1.8101   25.7484 C.3     1  UNL1        0.0565
@<TRIPOS>BOND
     1     1     2    1
     2     2     3   am
     3     3     4    2
     4     3     5   am
     5     5     6    1
     6     6     7    1
     7     7     8    1
     8     8     9   ar
     9     9    10   ar
    10    10    15    1
    11    15    16    1
    12    16    17    1
    13    17    18    1
    14    18    19    1
    15    19    20   ar
    16    20    21   ar
    17    21    25    1
    18    25    26   ar
    19    26    27   ar
    20    27    28   ar
    21    28    29    1
    22    28    30   ar
    23    21    22   ar
    24    22    31    1
    25    31    32    1
    26    31    33    1
    27    22    23   ar
    28    23    24   ar
    29    10    11   ar
    30    11    12   ar
    31    12    34    1
    32    34    35    1
    33    35    36    1
    34    36    37    1
    35    37    38    1
    36    38    39    1
    37     9    13    1
    38    13     5    1
    39    12     8   ar
    40    39    34    1
    41    24    15    1
    42    24    19   ar
    43    30    25   ar
    44     2    14    1
@<TRIPOS>MOLECULE
*****
 39 44 0 0 0
SMALL
GASTEIGER

@<TRIPOS>ATOM
      1 C          -8.0838    4.6795   23.8484 C.3     1  UNL1        0.1122
      2 N          -6.7322    4.4295   24.4488 N.am    1  UNL1       -0.2870
      3 C          -5.5681    4.0967   23.5633 C.2     1  UNL1        0.3043
      4 O          -5.7556    4.0140   22.0774 O.2     1  UNL1       -0.2526
      5 N          -4.2164    3.8467   24.1638 N.am    1  UNL1       -0.2596
      6 C          -4.0289    3.9294   25.6497 C.3     1  UNL1        0.1015
      7 C          -2.6772    3.6793   26.2501 C.3     1  UNL1        0.0668
      8 C          -1.5131    3.3466   25.3646 C.ar    1  UNL1        0.0576
      9 C          -1.7007    3.2639   23.8787 C.ar    1  UNL1        0.0446
     10 C          -0.3772    2.9183   23.2630 C.ar    1  UNL1        0.1538
     11 N           0.6283    2.7874   24.3683 N.ar    1  UNL1       -0.1545
     12 N          -0.0737    3.0521   25.6672 N.ar    1  UNL1       -0.2557
     13 C          -3.0523    3.5139   23.2783 C.3     1  UNL1        0.1257
     14 H          -6.6091    4.4837   25.4241 H       1  UNL1        0.1510
     15 N          -0.1068    2.7357   21.7988 N.pl3   1  UNL1       -0.2715
     16 C          -0.7814    3.6230   20.7951 C.3     1  UNL1        0.0973
     17 C          -0.5109    3.4404   19.3311 C.3     1  UNL1        0.0266
     18 C           0.4341    2.3704   18.8708 C.3     1  UNL1        0.0294
     19 C           1.1088    1.4830   19.8745 C.ar    1  UNL1       -0.0085
     20 C           2.0539    0.4130   19.4141 C.ar    1  UNL1       -0.0031
     21 C           2.7285   -0.4743   20.4178 C.ar    1  UNL1        0.0041
     22 C           2.4581   -0.2917   21.8819 C.ar    1  UNL1        0.0449
     23 C           1.5130    0.7783   22.3423 C.ar    1  UNL1        0.0157
     24 C           0.8383    1.6657   21.3385 C.ar    1  UNL1        0.0486
     25 C           3.6736   -1.5443   19.9575 C.ar    1  UNL1        0.0395
     26 C           5.1594   -1.4033   19.8072 C.ar    1  UNL1        0.1216
     27 N           5.7029   -2.7150   19.3234 N.ar    1  UNL1       -0.1676
     28 N           4.5530   -3.6667   19.1747 N.ar    1  UNL1       -0.2473
     29 C           4.6418   -5.0917   18.7149 C.3     1  UNL1        0.1538
     30 C           3.2989   -2.9431   19.5666 C.ar    1  UNL1        0.0967
     31 C           3.1327   -1.1790   22.8856 C.3     1  UNL1        0.3410
     32 F           3.1286   -0.8064   24.3387 F       1  UNL1       -0.1933
     33 F           3.8114   -2.4390   22.4364 F       1  UNL1       -0.1933
     34 C           0.5535    3.0268   27.0296 C.3     1  UNL1        0.1098
     35 C           1.5973    4.0406   27.3936 C.3     1  UNL1        0.0565
     36 C           2.2245    4.0153   28.7560 C.3     1  UNL1        0.1442
     37 O           1.8079    2.9761   29.7542 O.3     1  UNL1       -0.3536
     38 C           0.7640    1.9622   29.3901 C.3     1  UNL1        0.1442
     39 C           0.1369    1.9876   28.0279 C.3     1  UNL1        0.0565
@<TRIPOS>BOND
     1     1     2    1
     2     2     3   am
     3     3     4    2
     4     3     5   am
     5     5     6    1
     6     6     7    1
     7     7     8    1
     8     8     9   ar
     9     9    10   ar
    10    10    15    1
    11    15    16    1
    12    16    17    1
    13    17    18    1
    14    18    19    1
    15    19    20   ar
    16    20    21   ar
    17    21    25    1
    18    25    26   ar
    19    26    27   ar
    20    27    28   ar
    21    28    29    1
    22    28    30   ar
    23    21    22   ar
    24    22    31    1
    25    31    32    1
    26    31    33    1
    27    22    23   ar
    28    23    24   ar
    29    10    11   ar
    30    11    12   ar
    31    12    34    1
    32    34    35    1
    33    35    36    1
    34    36    37    1
    35    37    38    1
    36    38    39    1
    37     9    13    1
    38    13     5    1
    39    12     8   ar
    40    39    34    1
    41    24    15    1
    42    24    19   ar
    43    30    25   ar
    44     2    14    1
@<TRIPOS>MOLECULE
*****
 39 44 0 0 0
SMALL
GASTEIGER

@<TRIPOS>ATOM
      1 C           8.0268   -7.6864   27.9819 C.3     1  UNL1        0.1122
      2 N           7.7045   -6.6200   28.9864 N.am    1  UNL1       -0.2870
      3 C           7.3639   -5.2338   28.5255 C.2     1  UNL1        0.3043
      4 O           7.3457   -4.9139   27.0602 O.2     1  UNL1       -0.2526
      5 N           7.0416   -4.1675   29.5300 N.am    1  UNL1       -0.2596
      6 C           7.0598   -4.4873   30.9954 C.3     1  UNL1        0.1015
      7 C           6.7375   -3.4209   31.9999 C.3     1  UNL1        0.0668
      8 C           6.3969   -2.0348   31.5390 C.ar    1  UNL1        0.0576
      9 C           6.3787   -1.7149   30.0736 C.ar    1  UNL1        0.0446
     10 C           6.0091   -0.2693   29.9192 C.ar    1  UNL1        0.1538
     11 N           5.7988    0.3042   31.2892 N.ar    1  UNL1       -0.1545
     12 N           6.0385   -0.7869   32.2903 N.ar    1  UNL1       -0.2557
     13 C           6.7010   -2.7812   29.0691 C.3     1  UNL1        0.1257
     14 H           7.7164   -6.8300   29.9482 H       1  UNL1        0.1510
     15 N           5.8735    0.4724   28.6225 N.pl3   1  UNL1       -0.2715
     16 C           7.0855    0.7365   27.7792 C.3     1  UNL1        0.0973
     17 C           6.9499    1.4782   26.4826 C.3     1  UNL1        0.0266
     18 C           5.6022    1.9559   26.0292 C.3     1  UNL1        0.0294
     19 C           4.3901    1.6918   26.8724 C.ar    1  UNL1       -0.0085
     20 C           3.0424    2.1694   26.4190 C.ar    1  UNL1       -0.0031
     21 C           1.8304    1.9053   27.2623 C.ar    1  UNL1        0.0041
     22 C           1.9660    1.1636   28.5590 C.ar    1  UNL1        0.0449
     23 C           3.3137    0.6859   29.0124 C.ar    1  UNL1        0.0157
     24 C           4.5258    0.9501   28.1691 C.ar    1  UNL1        0.0486
     25 C           0.4827    2.3830   26.8088 C.ar    1  UNL1        0.0395
     26 C          -0.3984    1.7080   25.7997 C.ar    1  UNL1        0.1216
     27 N          -1.6462    2.5274   25.6522 N.ar    1  UNL1       -0.1676
     28 N          -1.5363    3.7086   26.5701 N.ar    1  UNL1       -0.2473
     29 C          -2.5620    4.7893   26.7427 C.3     1  UNL1        0.1538
     30 C          -0.2206    3.6194   27.2849 C.ar    1  UNL1        0.0967
     31 C           0.7539    0.8995   29.4023 C.3     1  UNL1        0.3410
     32 F          -0.2409   -0.1410   28.9806 F       1  UNL1       -0.1933
     33 F           0.5366    1.6759   30.6672 F       1  UNL1       -0.1933
     34 C           5.9376   -0.6535   33.7809 C.3     1  UNL1        0.1098
     35 C           4.6059   -0.7898   34.4577 C.3     1  UNL1        0.0565
     36 C           4.5050   -0.6564   35.9483 C.3     1  UNL1        0.1442
     37 O           5.7357   -0.3867   36.7622 O.3     1  UNL1       -0.3536
     38 C           7.0675   -0.2504   36.0854 C.3     1  UNL1        0.1442
     39 C           7.1684   -0.3838   34.5949 C.3     1  UNL1        0.0565
@<TRIPOS>BOND
     1     1     2    1
     2     2     3   am
     3     3     4    2
     4     3     5   am
     5     5     6    1
     6     6     7    1
     7     7     8    1
     8     8     9   ar
     9     9    10   ar
    10    10    15    1
    11    15    16    1
    12    16    17    1
    13    17    18    1
    14    18    19    1
    15    19    20   ar
    16    20    21   ar
    17    21    25    1
    18    25    26   ar
    19    26    27   ar
    20    27    28   ar
    21    28    29    1
    22    28    30   ar
    23    21    22   ar
    24    22    31    1
    25    31    32    1
    26    31    33    1
    27    22    23   ar
    28    23    24   ar
    29    10    11   ar
    30    11    12   ar
    31    12    34    1
    32    34    35    1
    33    35    36    1
    34    36    37    1
    35    37    38    1
    36    38    39    1
    37     9    13    1
    38    13     5    1
    39    12     8   ar
    40    39    34    1
    41    24    15    1
    42    24    19   ar
    43    30    25   ar
    44     2    14    1
