@<TRIPOS>MOLECULE
*****
 25 27 0 0 0
SMALL
GASTEIGER

@<TRIPOS>ATOM
      1 C          -7.5903  -16.7244   22.9617 C.3     1  UNL1        0.1201
      2 C          -7.1746  -16.1976   24.3033 C.ar    1  UNL1       -0.0023
      3 C          -8.2117  -15.7174   25.2747 C.ar    1  UNL1       -0.0026
      4 C          -7.7960  -15.1907   26.6162 C.ar    1  UNL1       -0.0003
      5 C          -6.3431  -15.1441   26.9862 C.ar    1  UNL1       -0.0000
      6 C          -5.3060  -15.6243   26.0148 C.ar    1  UNL1       -0.0003
      7 C          -5.7217  -16.1510   24.6733 C.ar    1  UNL1       -0.0024
      8 C          -4.6845  -16.6312   23.7018 C.ar    1  UNL1       -0.0003
      9 C          -4.5186  -18.1001   23.4470 C.ar    1  UNL1       -0.0000
     10 C          -3.4815  -18.5803   22.4756 C.ar    1  UNL1       -0.0000
     11 C          -2.6103  -17.5917   21.7589 C.ar    1  UNL1       -0.0000
     12 C          -2.7762  -16.1228   22.0136 C.ar    1  UNL1       -0.0000
     13 C          -3.8134  -15.6426   22.9851 C.ar    1  UNL1       -0.0000
     14 C          -9.9265  -16.7921   21.8268 C.2     1  UNL1        0.2254
     15 O          -9.5748  -15.5708   21.0301 O.2     1  UNL1       -0.2749
     16 N          -8.9342  -17.3689   22.7926 N.am    1  UNL1       -0.2757
     17 C          -9.2859  -18.5902   23.5894 C.3     1  UNL1        0.0927
     18 C          -8.9438  -20.0058   23.2303 C.3     1  UNL1        0.0383
     19 C          -9.4878  -20.9008   24.3041 C.3     1  UNL1        0.0704
     20 N         -10.1662  -20.0382   25.3268 N.3     1  UNL1       -0.2960
     21 C         -10.0413  -18.6102   24.8850 C.3     1  UNL1        0.0887
     22 H          -9.7177  -20.1602   26.2348 H       1  UNL1        0.1233
     23 C         -12.4424  -16.9475   22.4558 C.3     1  UNL1        0.0096
     24 C         -11.2704  -17.4366   21.6577 C.3     1  UNL1        0.0767
     25 C         -11.4421  -18.5702   20.6905 C.3     1  UNL1        0.0096
@<TRIPOS>BOND
     1    23    24    1
     2    24    25    1
     3    24    14    1
     4    14    15    2
     5    14    16   am
     6    16     1    1
     7     1     2    1
     8     2     3   ar
     9     3     4   ar
    10     4     5   ar
    11     5     6   ar
    12     6     7   ar
    13     7     8    1
    14     8     9   ar
    15     9    10   ar
    16    10    11   ar
    17    11    12   ar
    18    12    13   ar
    19    17    16    1
    20    17    18    1
    21    18    19    1
    22    19    20    1
    23    20    21    1
    24     7     2   ar
    25    13     8   ar
    26    21    17    1
    27    20    22    1
@<TRIPOS>MOLECULE
*****
 25 27 0 0 0
SMALL
GASTEIGER

@<TRIPOS>ATOM
      1 C          -7.8086  -16.4668   22.3747 C.3     1  UNL1        0.1201
      2 C          -7.5862  -16.1630   23.8267 C.ar    1  UNL1       -0.0023
      3 C          -6.2690  -15.6103   24.2841 C.ar    1  UNL1       -0.0026
      4 C          -6.0467  -15.3065   25.7361 C.ar    1  UNL1       -0.0003
      5 C          -7.1416  -15.5554   26.7306 C.ar    1  UNL1       -0.0000
      6 C          -8.4589  -16.1082   26.2732 C.ar    1  UNL1       -0.0003
      7 C          -8.6812  -16.4120   24.8213 C.ar    1  UNL1       -0.0024
      8 C          -9.9985  -16.9647   24.3638 C.ar    1  UNL1       -0.0003
      9 C         -10.5320  -18.2293   24.9689 C.ar    1  UNL1       -0.0000
     10 C         -11.8492  -18.7821   24.5115 C.ar    1  UNL1       -0.0000
     11 C         -12.6331  -18.0702   23.4489 C.ar    1  UNL1       -0.0000
     12 C         -12.0995  -16.8057   22.8438 C.ar    1  UNL1       -0.0000
     13 C         -10.7822  -16.2529   23.3013 C.ar    1  UNL1       -0.0000
     14 C          -6.3495  -18.5610   21.8894 C.2     1  UNL1        0.2254
     15 O          -5.1400  -17.8372   22.4023 O.2     1  UNL1       -0.2749
     16 N          -7.6839  -17.8759   21.8756 N.am    1  UNL1       -0.2757
     17 C          -8.8934  -18.5997   21.3628 C.3     1  UNL1        0.0927
     18 C          -9.6024  -19.7290   22.0499 C.3     1  UNL1        0.0383
     19 C         -10.7535  -20.1486   21.1846 C.3     1  UNL1        0.0704
     20 N         -10.7559  -19.2786   19.9625 N.3     1  UNL1       -0.2960
     21 C          -9.6063  -18.3214   20.0727 C.3     1  UNL1        0.0887
     22 H         -11.6332  -18.7612   19.9078 H       1  UNL1        0.1233
     23 C          -6.2890  -21.1162   22.3559 C.3     1  UNL1        0.0096
     24 C          -6.2248  -19.9701   21.3904 C.3     1  UNL1        0.0767
     25 C          -6.0359  -20.2330   19.9257 C.3     1  UNL1        0.0096
@<TRIPOS>BOND
     1    23    24    1
     2    24    25    1
     3    24    14    1
     4    14    15    2
     5    14    16   am
     6    16     1    1
     7     1     2    1
     8     2     3   ar
     9     3     4   ar
    10     4     5   ar
    11     5     6   ar
    12     6     7   ar
    13     7     8    1
    14     8     9   ar
    15     9    10   ar
    16    10    11   ar
    17    11    12   ar
    18    12    13   ar
    19    17    16    1
    20    17    18    1
    21    18    19    1
    22    19    20    1
    23    20    21    1
    24     7     2   ar
    25    13     8   ar
    26    21    17    1
    27    20    22    1
@<TRIPOS>MOLECULE
*****
 25 27 0 0 0
SMALL
GASTEIGER

@<TRIPOS>ATOM
      1 C          -8.3567  -18.2920   20.8730 C.3     1  UNL1        0.1201
      2 C          -8.2765  -19.4735   19.9522 C.ar    1  UNL1       -0.0023
      3 C          -9.4997  -19.9363   19.2178 C.ar    1  UNL1       -0.0026
      4 C          -9.4194  -21.1177   18.2971 C.ar    1  UNL1       -0.0003
      5 C          -8.1160  -21.8363   18.1108 C.ar    1  UNL1       -0.0000
      6 C          -6.8928  -21.3734   18.8452 C.ar    1  UNL1       -0.0003
      7 C          -6.9730  -20.1920   19.7659 C.ar    1  UNL1       -0.0024
      8 C          -5.7497  -19.7290   20.5004 C.ar    1  UNL1       -0.0003
      9 C          -5.6835  -19.8444   21.9945 C.ar    1  UNL1       -0.0000
     10 C          -4.4603  -19.3815   22.7290 C.ar    1  UNL1       -0.0000
     11 C          -3.3033  -18.8032   21.9694 C.ar    1  UNL1       -0.0000
     12 C          -3.3696  -18.6878   20.4753 C.ar    1  UNL1       -0.0000
     13 C          -4.5928  -19.1507   19.7408 C.ar    1  UNL1       -0.0000
     14 C         -10.6984  -17.1907   21.1048 C.2     1  UNL1        0.2254
     15 O         -10.5470  -16.5820   19.7423 O.2     1  UNL1       -0.2749
     16 N          -9.6032  -18.0457   21.6702 N.am    1  UNL1       -0.2757
     17 C          -9.7546  -18.6544   23.0327 C.3     1  UNL1        0.0927
     18 C         -10.1279  -20.0772   23.3263 C.3     1  UNL1        0.0383
     19 C         -10.1633  -20.2494   24.8159 C.3     1  UNL1        0.0704
     20 N          -9.8118  -18.9328   25.4431 N.3     1  UNL1       -0.2960
     21 C          -9.5592  -17.9471   24.3410 C.3     1  UNL1        0.0887
     22 H          -8.9735  -19.0347   26.0151 H       1  UNL1        0.1233
     23 C         -13.0654  -17.9410   21.8690 C.3     1  UNL1        0.0096
     24 C         -11.9449  -16.9444   21.9020 C.3     1  UNL1        0.0767
     25 C         -12.0708  -15.7014   22.7323 C.3     1  UNL1        0.0096
@<TRIPOS>BOND
     1    23    24    1
     2    24    25    1
     3    24    14    1
     4    14    15    2
     5    14    16   am
     6    16     1    1
     7     1     2    1
     8     2     3   ar
     9     3     4   ar
    10     4     5   ar
    11     5     6   ar
    12     6     7   ar
    13     7     8    1
    14     8     9   ar
    15     9    10   ar
    16    10    11   ar
    17    11    12   ar
    18    12    13   ar
    19    17    16    1
    20    17    18    1
    21    18    19    1
    22    19    20    1
    23    20    21    1
    24     7     2   ar
    25    13     8   ar
    26    21    17    1
    27    20    22    1
@<TRIPOS>MOLECULE
*****
 25 27 0 0 0
SMALL
GASTEIGER

@<TRIPOS>ATOM
      1 C         -13.8747   -6.2051   16.6335 C.3     1  UNL1        0.1201
      2 C         -14.6117   -7.1588   17.5266 C.ar    1  UNL1       -0.0023
      3 C         -14.7985   -8.5867   17.1072 C.ar    1  UNL1       -0.0026
      4 C         -15.5354   -9.5403   18.0003 C.ar    1  UNL1       -0.0003
      5 C         -16.0855   -9.0659   19.3127 C.ar    1  UNL1       -0.0000
      6 C         -15.8986   -7.6380   19.7320 C.ar    1  UNL1       -0.0003
      7 C         -15.1617   -6.6844   18.8390 C.ar    1  UNL1       -0.0024
      8 C         -14.9748   -5.2563   19.2583 C.ar    1  UNL1       -0.0003
      9 C         -13.8995   -4.8977   20.2408 C.ar    1  UNL1       -0.0000
     10 C         -13.7126   -3.4698   20.6601 C.ar    1  UNL1       -0.0000
     11 C         -14.6010   -2.4003   20.0970 C.ar    1  UNL1       -0.0000
     12 C         -15.6763   -2.7588   19.1146 C.ar    1  UNL1       -0.0000
     13 C         -15.8632   -4.1869   18.6953 C.ar    1  UNL1       -0.0000
     14 C         -12.2180   -4.2244   16.9206 C.2     1  UNL1        0.2254
     15 O         -13.2578   -3.2787   16.3969 O.2     1  UNL1       -0.2749
     16 N         -12.5264   -5.6876   17.0390 N.am    1  UNL1       -0.2757
     17 C         -11.4866   -6.6333   17.5628 C.3     1  UNL1        0.0927
     18 C         -10.7499   -6.5018   18.8628 C.3     1  UNL1        0.0383
     19 C          -9.8089   -7.6638   18.9820 C.3     1  UNL1        0.0704
     20 N          -9.9640   -8.5135   17.7556 N.3     1  UNL1       -0.2960
     21 C         -11.0009   -7.8766   16.8785 C.3     1  UNL1        0.0887
     22 H         -10.2636   -9.4519   18.0203 H       1  UNL1        0.1233
     23 C         -10.7140   -2.9420   18.6069 C.3     1  UNL1        0.0096
     24 C         -10.8697   -3.7070   17.3261 C.3     1  UNL1        0.0767
     25 C          -9.6770   -3.9546   16.4506 C.3     1  UNL1        0.0096
@<TRIPOS>BOND
     1    23    24    1
     2    24    25    1
     3    24    14    1
     4    14    15    2
     5    14    16   am
     6    16     1    1
     7     1     2    1
     8     2     3   ar
     9     3     4   ar
    10     4     5   ar
    11     5     6   ar
    12     6     7   ar
    13     7     8    1
    14     8     9   ar
    15     9    10   ar
    16    10    11   ar
    17    11    12   ar
    18    12    13   ar
    19    17    16    1
    20    17    18    1
    21    18    19    1
    22    19    20    1
    23    20    21    1
    24     7     2   ar
    25    13     8   ar
    26    21    17    1
    27    20    22    1
@<TRIPOS>MOLECULE
*****
 25 27 0 0 0
SMALL
GASTEIGER

@<TRIPOS>ATOM
      1 C          -7.9618  -19.4015   22.3606 C.3     1  UNL1        0.1201
      2 C          -9.1140  -18.7000   21.7043 C.ar    1  UNL1       -0.0023
      3 C          -9.5512  -19.1026   20.3272 C.ar    1  UNL1       -0.0026
      4 C         -10.7032  -18.4012   19.6710 C.ar    1  UNL1       -0.0003
      5 C         -11.4181  -17.2970   20.3920 C.ar    1  UNL1       -0.0000
      6 C         -10.9808  -16.8943   21.7691 C.ar    1  UNL1       -0.0003
      7 C          -9.8288  -17.5958   22.4253 C.ar    1  UNL1       -0.0024
      8 C          -9.3915  -17.1931   23.8025 C.ar    1  UNL1       -0.0003
      9 C          -9.6420  -18.1062   24.9659 C.ar    1  UNL1       -0.0000
     10 C          -9.2047  -17.7036   26.3431 C.ar    1  UNL1       -0.0000
     11 C          -8.5169  -16.3878   26.5570 C.ar    1  UNL1       -0.0000
     12 C          -8.2665  -15.4746   25.3936 C.ar    1  UNL1       -0.0000
     13 C          -8.7038  -15.8773   24.0163 C.ar    1  UNL1       -0.0000
     14 C          -6.1658  -19.8782   20.5448 C.2     1  UNL1        0.2254
     15 O          -7.1512  -20.7217   19.7915 O.2     1  UNL1       -0.2749
     16 N          -6.5711  -19.2181   21.8294 N.am    1  UNL1       -0.2757
     17 C          -5.5857  -18.3746   22.5826 C.3     1  UNL1        0.0927
     18 C          -5.8101  -16.9702   23.0593 C.3     1  UNL1        0.0383
     19 C          -4.5659  -16.5150   23.7627 C.3     1  UNL1        0.0704
     20 N          -3.5725  -17.6382   23.7207 N.3     1  UNL1       -0.2960
     21 C          -4.2028  -18.7874   22.9914 C.3     1  UNL1        0.0887
     22 H          -3.3303  -17.9217   24.6701 H       1  UNL1        0.1233
     23 C          -4.3796  -18.3939   19.3803 C.3     1  UNL1        0.0096
     24 C          -4.7751  -19.6948   20.0135 C.3     1  UNL1        0.0767
     25 C          -3.7798  -20.8125   20.1156 C.3     1  UNL1        0.0096
@<TRIPOS>BOND
     1    23    24    1
     2    24    25    1
     3    24    14    1
     4    14    15    2
     5    14    16   am
     6    16     1    1
     7     1     2    1
     8     2     3   ar
     9     3     4   ar
    10     4     5   ar
    11     5     6   ar
    12     6     7   ar
    13     7     8    1
    14     8     9   ar
    15     9    10   ar
    16    10    11   ar
    17    11    12   ar
    18    12    13   ar
    19    17    16    1
    20    17    18    1
    21    18    19    1
    22    19    20    1
    23    20    21    1
    24     7     2   ar
    25    13     8   ar
    26    21    17    1
    27    20    22    1
@<TRIPOS>MOLECULE
*****
 25 27 0 0 0
SMALL
GASTEIGER

@<TRIPOS>ATOM
      1 C         -12.9932   -3.0911   19.4644 C.3     1  UNL1        0.1201
      2 C         -12.1679   -2.2675   18.5206 C.ar    1  UNL1       -0.0023
      3 C         -12.4466   -0.8020   18.3637 C.ar    1  UNL1       -0.0026
      4 C         -11.6213    0.0214   17.4198 C.ar    1  UNL1       -0.0003
      5 C         -10.5174   -0.6206   16.6329 C.ar    1  UNL1       -0.0000
      6 C         -10.2388   -2.0861   16.7899 C.ar    1  UNL1       -0.0003
      7 C         -11.0640   -2.9095   17.7337 C.ar    1  UNL1       -0.0024
      8 C         -10.7854   -4.3751   17.8906 C.ar    1  UNL1       -0.0003
      9 C         -11.4364   -5.3650   16.9707 C.ar    1  UNL1       -0.0000
     10 C         -11.1578   -6.8305   17.1276 C.ar    1  UNL1       -0.0000
     11 C         -10.2282   -7.3061   18.2045 C.ar    1  UNL1       -0.0000
     12 C          -9.5772   -6.3162   19.1244 C.ar    1  UNL1       -0.0000
     13 C          -9.8558   -4.8507   18.9675 C.ar    1  UNL1       -0.0000
     14 C         -14.2317   -5.3642   19.2433 C.2     1  UNL1        0.2254
     15 O         -13.1629   -6.0261   20.0616 O.2     1  UNL1       -0.2749
     16 N         -14.1469   -3.8966   18.9447 N.am    1  UNL1       -0.2757
     17 C         -15.2156   -3.2347   18.1265 C.3     1  UNL1        0.0927
     18 C         -15.2428   -3.1300   16.6304 C.3     1  UNL1        0.0383
     19 C         -16.4889   -2.3919   16.2399 C.3     1  UNL1        0.0704
     20 N         -17.2318   -2.0404   17.4948 N.3     1  UNL1       -0.2960
     21 C         -16.4449   -2.5613   18.6607 C.3     1  UNL1        0.0887
     22 H         -18.1566   -2.4704   17.4815 H       1  UNL1        0.1233
     23 C         -16.6643   -6.2384   19.5043 C.3     1  UNL1        0.0096
     24 C         -15.3854   -6.1698   18.7236 C.3     1  UNL1        0.0767
     25 C         -15.2600   -6.9069   17.4232 C.3     1  UNL1        0.0096
@<TRIPOS>BOND
     1    23    24    1
     2    24    25    1
     3    24    14    1
     4    14    15    2
     5    14    16   am
     6    16     1    1
     7     1     2    1
     8     2     3   ar
     9     3     4   ar
    10     4     5   ar
    11     5     6   ar
    12     6     7   ar
    13     7     8    1
    14     8     9   ar
    15     9    10   ar
    16    10    11   ar
    17    11    12   ar
    18    12    13   ar
    19    17    16    1
    20    17    18    1
    21    18    19    1
    22    19    20    1
    23    20    21    1
    24     7     2   ar
    25    13     8   ar
    26    21    17    1
    27    20    22    1
@<TRIPOS>MOLECULE
*****
 25 27 0 0 0
SMALL
GASTEIGER

@<TRIPOS>ATOM
      1 C         -12.7050   -3.3010   19.5241 C.3     1  UNL1        0.1201
      2 C         -11.9169   -2.5148   18.5187 C.ar    1  UNL1       -0.0023
      3 C         -12.1820   -1.0495   18.3377 C.ar    1  UNL1       -0.0026
      4 C         -11.3939   -0.2634   17.3323 C.ar    1  UNL1       -0.0003
      5 C         -10.3407   -0.9425   16.5079 C.ar    1  UNL1       -0.0000
      6 C         -10.0757   -2.4077   16.6889 C.ar    1  UNL1       -0.0003
      7 C         -10.8637   -3.1938   17.6942 C.ar    1  UNL1       -0.0024
      8 C         -10.5987   -4.6592   17.8753 C.ar    1  UNL1       -0.0003
      9 C         -11.1724   -5.6504   16.9066 C.ar    1  UNL1       -0.0000
     10 C         -10.9073   -7.1156   17.0876 C.ar    1  UNL1       -0.0000
     11 C         -10.0686   -7.5897   18.2373 C.ar    1  UNL1       -0.0000
     12 C          -9.4949   -6.5985   19.2060 C.ar    1  UNL1       -0.0000
     13 C          -9.7600   -5.1332   19.0250 C.ar    1  UNL1       -0.0000
     14 C         -15.2721   -2.9056   19.4616 C.2     1  UNL1        0.2254
     15 O         -15.0784   -1.5508   20.0755 O.2     1  UNL1       -0.2749
     16 N         -14.0854   -3.7808   19.1859 N.am    1  UNL1       -0.2757
     17 C         -14.2791   -5.1356   18.5719 C.3     1  UNL1        0.0927
     18 C         -14.0948   -6.4526   19.2659 C.3     1  UNL1        0.0383
     19 C         -14.3929   -7.5422   18.2791 C.3     1  UNL1        0.0704
     20 N         -14.7613   -6.8986   16.9752 N.3     1  UNL1       -0.2960
     21 C         -14.6910   -5.4113   17.1562 C.3     1  UNL1        0.0887
     22 H         -15.7080   -7.1707   16.7102 H       1  UNL1        0.1233
     23 C         -17.3368   -2.8881   17.8847 C.3     1  UNL1        0.0096
     24 C         -16.6525   -3.3854   19.1233 C.3     1  UNL1        0.0767
     25 C         -17.3485   -4.3626   20.0238 C.3     1  UNL1        0.0096
@<TRIPOS>BOND
     1    23    24    1
     2    24    25    1
     3    24    14    1
     4    14    15    2
     5    14    16   am
     6    16     1    1
     7     1     2    1
     8     2     3   ar
     9     3     4   ar
    10     4     5   ar
    11     5     6   ar
    12     6     7   ar
    13     7     8    1
    14     8     9   ar
    15     9    10   ar
    16    10    11   ar
    17    11    12   ar
    18    12    13   ar
    19    17    16    1
    20    17    18    1
    21    18    19    1
    22    19    20    1
    23    20    21    1
    24     7     2   ar
    25    13     8   ar
    26    21    17    1
    27    20    22    1
@<TRIPOS>MOLECULE
*****
 25 27 0 0 0
SMALL
GASTEIGER

@<TRIPOS>ATOM
      1 C          -7.4320  -17.5184   22.4108 C.3     1  UNL1        0.1201
      2 C          -8.0983  -18.3063   21.3221 C.ar    1  UNL1       -0.0023
      3 C          -9.5772  -18.1827   21.1044 C.ar    1  UNL1       -0.0026
      4 C         -10.2434  -18.9706   20.0157 C.ar    1  UNL1       -0.0003
      5 C          -9.4306  -19.8822   19.1447 C.ar    1  UNL1       -0.0000
      6 C          -7.9517  -20.0058   19.3625 C.ar    1  UNL1       -0.0003
      7 C          -7.2855  -19.2179   20.4512 C.ar    1  UNL1       -0.0024
      8 C          -5.8065  -19.3415   20.6690 C.ar    1  UNL1       -0.0003
      9 C          -5.2742  -19.6727   22.0317 C.ar    1  UNL1       -0.0000
     10 C          -3.7953  -19.7963   22.2495 C.ar    1  UNL1       -0.0000
     11 C          -2.8486  -19.5886   21.1046 C.ar    1  UNL1       -0.0000
     12 C          -3.3809  -19.2574   19.7419 C.ar    1  UNL1       -0.0000
     13 C          -4.8599  -19.1338   19.5241 C.ar    1  UNL1       -0.0000
     14 C          -7.6748  -16.1369   24.5978 C.2     1  UNL1        0.2254
     15 O          -6.4280  -15.3764   24.2559 O.2     1  UNL1       -0.2749
     16 N          -8.1768  -17.2079   23.6753 N.am    1  UNL1       -0.2757
     17 C          -9.4236  -17.9685   24.0173 C.3     1  UNL1        0.0927
     18 C         -10.8311  -17.4901   23.8168 C.3     1  UNL1        0.0383
     19 C         -11.7593  -18.5669   24.2954 C.3     1  UNL1        0.0704
     20 N         -10.9254  -19.7108   24.7917 N.3     1  UNL1       -0.2960
     21 C          -9.4819  -19.3409   24.6197 C.3     1  UNL1        0.0887
     22 H         -11.1340  -20.5509   24.2521 H       1  UNL1        0.1233
     23 C          -9.4421  -14.7292   25.8803 C.3     1  UNL1        0.0096
     24 C          -8.4196  -15.8265   25.8623 C.3     1  UNL1        0.0767
     25 C          -8.1419  -16.6135   27.1088 C.3     1  UNL1        0.0096
@<TRIPOS>BOND
     1    23    24    1
     2    24    25    1
     3    24    14    1
     4    14    15    2
     5    14    16   am
     6    16     1    1
     7     1     2    1
     8     2     3   ar
     9     3     4   ar
    10     4     5   ar
    11     5     6   ar
    12     6     7   ar
    13     7     8    1
    14     8     9   ar
    15     9    10   ar
    16    10    11   ar
    17    11    12   ar
    18    12    13   ar
    19    17    16    1
    20    17    18    1
    21    18    19    1
    22    19    20    1
    23    20    21    1
    24     7     2   ar
    25    13     8   ar
    26    21    17    1
    27    20    22    1
@<TRIPOS>MOLECULE
*****
 25 27 0 0 0
SMALL
GASTEIGER

@<TRIPOS>ATOM
      1 C          -7.6251  -18.1847   20.5922 C.3     1  UNL1        0.1201
      2 C          -7.7482  -19.4742   19.8358 C.ar    1  UNL1       -0.0023
      3 C          -9.0119  -19.7897   19.0918 C.ar    1  UNL1       -0.0026
      4 C          -9.1349  -21.0791   18.3355 C.ar    1  UNL1       -0.0003
      5 C          -7.9942  -22.0531   18.3231 C.ar    1  UNL1       -0.0000
      6 C          -6.7305  -21.7376   19.0670 C.ar    1  UNL1       -0.0003
      7 C          -6.6075  -20.4482   19.8233 C.ar    1  UNL1       -0.0024
      8 C          -5.3437  -20.1326   20.5673 C.ar    1  UNL1       -0.0003
      9 C          -5.4079  -19.6749   21.9943 C.ar    1  UNL1       -0.0000
     10 C          -4.1442  -19.3593   22.7383 C.ar    1  UNL1       -0.0000
     11 C          -2.8163  -19.5015   22.0553 C.ar    1  UNL1       -0.0000
     12 C          -2.7521  -19.9593   20.6283 C.ar    1  UNL1       -0.0000
     13 C          -4.0159  -20.2748   19.8843 C.ar    1  UNL1       -0.0000
     14 C          -8.8582  -16.4400   22.0706 C.2     1  UNL1        0.2254
     15 O          -8.1612  -15.3297   21.3417 O.2     1  UNL1       -0.2749
     16 N          -8.5902  -17.8675   21.6958 N.am    1  UNL1       -0.2757
     17 C          -9.2873  -18.9778   22.4247 C.3     1  UNL1        0.0927
     18 C          -8.7174  -19.7865   23.5522 C.3     1  UNL1        0.0383
     19 C          -9.7545  -20.7829   23.9784 C.3     1  UNL1        0.0704
     20 N         -10.9653  -20.5900   23.1142 N.3     1  UNL1       -0.2960
     21 C         -10.6765  -19.4744   22.1540 C.3     1  UNL1        0.0887
     22 H         -11.7693  -20.3485   23.6937 H       1  UNL1        0.1233
     23 C          -9.3239  -15.9328   24.5757 C.3     1  UNL1        0.0096
     24 C          -9.8233  -16.1228   23.1742 C.3     1  UNL1        0.0767
     25 C         -11.2880  -15.9957   22.8762 C.3     1  UNL1        0.0096
@<TRIPOS>BOND
     1    23    24    1
     2    24    25    1
     3    24    14    1
     4    14    15    2
     5    14    16   am
     6    16     1    1
     7     1     2    1
     8     2     3   ar
     9     3     4   ar
    10     4     5   ar
    11     5     6   ar
    12     6     7   ar
    13     7     8    1
    14     8     9   ar
    15     9    10   ar
    16    10    11   ar
    17    11    12   ar
    18    12    13   ar
    19    17    16    1
    20    17    18    1
    21    18    19    1
    22    19    20    1
    23    20    21    1
    24     7     2   ar
    25    13     8   ar
    26    21    17    1
    27    20    22    1
