@<TRIPOS>MOLECULE
*****
 27 31 0 0 0
SMALL
GASTEIGER

@<TRIPOS>ATOM
      1 C          -8.8143  -16.8302   23.1302 C.3     1  UNL1        0.0275
      2 C          -7.3164  -16.7619   23.1720 C.3     1  UNL1        0.0044
      3 C          -6.6318  -15.9528   24.2334 C.3     1  UNL1        0.0027
      4 C          -7.4451  -15.2120   25.2530 C.3     1  UNL1        0.0269
      5 C          -8.9430  -15.2803   25.2112 C.3     1  UNL1        0.0027
      6 C          -9.6276  -16.0893   24.1498 C.3     1  UNL1        0.0044
      7 C          -6.3940  -16.3911   23.6382 C.3     1  UNL1        0.0027
      8 C          -5.1340  -15.8846   24.2752 C.3     1  UNL1        0.0269
      9 C          -5.8186  -16.6937   23.2138 C.3     1  UNL1        0.0027
     10 C          -5.9473  -15.1437   25.2948 C.3     1  UNL1        0.1104
     11 O          -5.2627  -14.3346   26.3563 O.3     1  UNL1       -0.3845
     12 H          -5.9286  -13.9234   26.9293 H       1  UNL1        0.2103
     13 C         -10.1964  -17.2004   22.6799 C.ar    1  UNL1       -0.0223
     14 C         -10.6093  -16.9667   21.2569 C.ar    1  UNL1       -0.0043
     15 C         -11.9913  -17.3369   20.8066 C.ar    1  UNL1       -0.0003
     16 C         -12.9605  -17.9409   21.7792 C.ar    1  UNL1       -0.0000
     17 C         -12.5476  -18.1746   23.2021 C.ar    1  UNL1       -0.0003
     18 C         -11.1655  -17.8044   23.6525 C.ar    1  UNL1       -0.0043
     19 C          -8.4810  -17.6996   21.9542 C.3     1  UNL1        0.0893
     20 O          -8.6737  -19.9960   23.1539 O.2     1  UNL1       -0.2749
     21 C          -7.9819  -19.0972   22.1722 C.2     1  UNL1        0.2261
     22 N          -6.7911  -19.5961   21.4085 N.am    1  UNL1       -0.2744
     23 C          -6.0277  -20.8864   21.3583 C.3     1  UNL1        0.1244
     24 C          -5.1071  -20.3016   20.3286 C.3     1  UNL1        0.1500
     25 O          -3.9163  -20.8005   19.5649 O.3     1  UNL1       -0.3810
     26 C          -5.8704  -19.0113   20.3788 C.3     1  UNL1        0.1244
     27 H          -3.7275  -21.7163   19.8227 H       1  UNL1        0.2105
@<TRIPOS>BOND
     1    20    21    2
     2    21    19    1
     3    19     1    1
     4     1    13    1
     5    13    14   ar
     6    14    15   ar
     7    15    16   ar
     8    16    17   ar
     9    17    18   ar
    10     1     2    1
    11     2     3    1
    12     3     4    1
    13     4     5    1
    14     5     6    1
    15     6     7    1
    16     7     8    1
    17     8     9    1
    18     8    10    1
    19    10    11    1
    20    21    22   am
    21    22    23    1
    22    23    24    1
    23    24    25    1
    24    24    26    1
    25     6     1    1
    26    26    22    1
    27    18    13   ar
    28     9     2    1
    29    10     4    1
    30    11    12    1
    31    25    27    1
@<TRIPOS>MOLECULE
*****
 27 31 0 0 0
SMALL
GASTEIGER

@<TRIPOS>ATOM
      1 C          -6.7927  -19.1249   21.7199 C.3     1  UNL1        0.0275
      2 C          -5.5753  -18.6447   22.4530 C.3     1  UNL1        0.0044
      3 C          -4.2081  -18.9460   21.9146 C.3     1  UNL1        0.0027
      4 C          -4.0583  -19.7274   20.6431 C.3     1  UNL1        0.0269
      5 C          -5.2757  -20.2076   19.9100 C.3     1  UNL1        0.0027
      6 C          -6.6429  -19.9064   20.4484 C.3     1  UNL1        0.0044
      7 C          -4.4829  -18.5691   22.5353 C.3     1  UNL1        0.0027
      8 C          -2.9908  -18.4658   22.6477 C.3     1  UNL1        0.0269
      9 C          -4.3580  -18.1645   23.1861 C.3     1  UNL1        0.0027
     10 C          -2.8409  -19.2472   21.3762 C.3     1  UNL1        0.1104
     11 O          -1.4737  -19.5485   20.8377 O.3     1  UNL1       -0.3845
     12 H          -1.5547  -20.0575   20.0159 H       1  UNL1        0.2103
     13 C          -8.2362  -19.3623   21.3885 C.ar    1  UNL1       -0.0223
     14 C          -9.2043  -19.7297   22.4739 C.ar    1  UNL1       -0.0043
     15 C         -10.6478  -19.9671   22.1426 C.ar    1  UNL1       -0.0003
     16 C         -11.1234  -19.8371   20.7259 C.ar    1  UNL1       -0.0000
     17 C         -10.1554  -19.4698   19.6406 C.ar    1  UNL1       -0.0003
     18 C          -8.7118  -19.2323   19.9719 C.ar    1  UNL1       -0.0043
     19 C          -7.4439  -18.4259   22.8764 C.3     1  UNL1        0.0893
     20 O          -7.7182  -16.1454   21.6623 O.2     1  UNL1       -0.2749
     21 C          -7.4837  -16.9271   22.9209 C.2     1  UNL1        0.2261
     22 N          -7.2892  -16.2099   24.2239 N.am    1  UNL1       -0.2744
     23 C          -7.2636  -14.7719   24.6497 C.3     1  UNL1        0.1244
     24 C          -7.0141  -15.1958   26.0667 C.3     1  UNL1        0.1500
     25 O          -6.8195  -14.4787   27.3697 O.3     1  UNL1       -0.3810
     26 C          -7.0396  -16.6339   25.6409 C.3     1  UNL1        0.1244
     27 H          -6.8742  -13.5214   27.2232 H       1  UNL1        0.2105
@<TRIPOS>BOND
     1    20    21    2
     2    21    19    1
     3    19     1    1
     4     1    13    1
     5    13    14   ar
     6    14    15   ar
     7    15    16   ar
     8    16    17   ar
     9    17    18   ar
    10     1     2    1
    11     2     3    1
    12     3     4    1
    13     4     5    1
    14     5     6    1
    15     6     7    1
    16     7     8    1
    17     8     9    1
    18     8    10    1
    19    10    11    1
    20    21    22   am
    21    22    23    1
    22    23    24    1
    23    24    25    1
    24    24    26    1
    25     6     1    1
    26    26    22    1
    27    18    13   ar
    28     9     2    1
    29    10     4    1
    30    11    12    1
    31    25    27    1
@<TRIPOS>MOLECULE
*****
 27 31 0 0 0
SMALL
GASTEIGER

@<TRIPOS>ATOM
      1 C          -7.9959  -17.3749   23.2506 C.3     1  UNL1        0.0275
      2 C          -6.7169  -16.6962   23.6424 C.3     1  UNL1        0.0044
      3 C          -6.6444  -15.9122   24.9191 C.3     1  UNL1        0.0027
      4 C          -7.8509  -15.8068   25.8040 C.3     1  UNL1        0.0269
      5 C          -9.1299  -16.4854   25.4122 C.3     1  UNL1        0.0027
      6 C          -9.2025  -17.2695   24.1356 C.3     1  UNL1        0.0044
      7 C          -6.1456  -16.0780   24.3475 C.3     1  UNL1        0.0027
      8 C          -5.3653  -15.2335   25.3108 C.3     1  UNL1        0.0269
      9 C          -5.4378  -16.0176   24.0341 C.3     1  UNL1        0.0027
     10 C          -6.5718  -15.1281   26.1957 C.3     1  UNL1        0.1104
     11 O          -6.4993  -14.3440   27.4725 O.3     1  UNL1       -0.3845
     12 H          -7.3586  -14.3768   27.9213 H       1  UNL1        0.2103
     13 C          -8.9739  -18.1882   22.4556 C.ar    1  UNL1       -0.0223
     14 C          -9.7847  -19.2551   23.1296 C.ar    1  UNL1       -0.0043
     15 C         -10.7627  -20.0685   22.3347 C.ar    1  UNL1       -0.0003
     16 C         -10.9298  -19.8151   20.8657 C.ar    1  UNL1       -0.0000
     17 C         -10.1190  -18.7482   20.1917 C.ar    1  UNL1       -0.0003
     18 C          -9.1410  -17.9348   20.9867 C.ar    1  UNL1       -0.0043
     19 C          -7.1290  -17.7627   22.0896 C.3     1  UNL1        0.0893
     20 O          -6.9367  -20.3413   22.3420 O.2     1  UNL1       -0.2749
     21 C          -6.2864  -19.0014   22.1635 C.2     1  UNL1        0.2261
     22 N          -4.7934  -18.9004   22.0591 N.am    1  UNL1       -0.2744
     23 C          -3.6592  -19.8815   22.0882 C.3     1  UNL1        0.1244
     24 C          -2.6821  -18.7573   21.9113 C.3     1  UNL1        0.1500
     25 O          -1.1892  -18.6562   21.8068 O.3     1  UNL1       -0.3810
     26 C          -3.8163  -17.7761   21.8821 C.3     1  UNL1        0.1244
     27 H          -0.7997  -19.5421   21.8731 H       1  UNL1        0.2105
@<TRIPOS>BOND
     1    20    21    2
     2    21    19    1
     3    19     1    1
     4     1    13    1
     5    13    14   ar
     6    14    15   ar
     7    15    16   ar
     8    16    17   ar
     9    17    18   ar
    10     1     2    1
    11     2     3    1
    12     3     4    1
    13     4     5    1
    14     5     6    1
    15     6     7    1
    16     7     8    1
    17     8     9    1
    18     8    10    1
    19    10    11    1
    20    21    22   am
    21    22    23    1
    22    23    24    1
    23    24    25    1
    24    24    26    1
    25     6     1    1
    26    26    22    1
    27    18    13   ar
    28     9     2    1
    29    10     4    1
    30    11    12    1
    31    25    27    1
@<TRIPOS>MOLECULE
*****
 27 31 0 0 0
SMALL
GASTEIGER

@<TRIPOS>ATOM
      1 C          -9.8376  -18.2977   22.0674 C.3     1  UNL1        0.0275
      2 C         -10.9148  -17.2700   22.2506 C.3     1  UNL1        0.0044
      3 C         -12.1314  -17.5958   23.0652 C.3     1  UNL1        0.0027
      4 C         -12.2708  -18.9492   23.6967 C.3     1  UNL1        0.0269
      5 C         -11.1936  -19.9769   23.5134 C.3     1  UNL1        0.0027
      6 C          -9.9770  -19.6511   22.6988 C.3     1  UNL1        0.0044
      7 C         -11.8843  -16.9733   22.6723 C.3     1  UNL1        0.0027
      8 C         -13.2086  -16.5682   23.2485 C.3     1  UNL1        0.0269
      9 C         -11.9921  -16.2424   22.4338 C.3     1  UNL1        0.0027
     10 C         -13.3480  -17.9216   23.8799 C.3     1  UNL1        0.1104
     11 O         -14.5647  -18.2474   24.6946 O.3     1  UNL1       -0.3845
     12 H         -14.4968  -19.1558   25.0280 H       1  UNL1        0.2103
     13 C          -8.5576  -18.9317   21.6096 C.ar    1  UNL1       -0.0223
     14 C          -8.2458  -19.0189   20.1449 C.ar    1  UNL1       -0.0043
     15 C          -6.9658  -19.6528   19.6871 C.ar    1  UNL1       -0.0003
     16 C          -5.9976  -20.1997   20.6938 C.ar    1  UNL1       -0.0000
     17 C          -6.3094  -20.1125   22.1584 C.ar    1  UNL1       -0.0003
     18 C          -7.5894  -19.4785   22.6163 C.ar    1  UNL1       -0.0043
     19 C          -9.2537  -17.1644   21.2769 C.3     1  UNL1        0.0893
     20 O          -7.9252  -14.9335   21.1879 O.2     1  UNL1       -0.2749
     21 C          -8.5443  -16.0460   21.9811 C.2     1  UNL1        0.2261
     22 N          -8.4540  -16.0399   23.4783 N.am    1  UNL1       -0.2744
     23 C          -7.8478  -15.1249   24.5007 C.3     1  UNL1        0.1244
     24 C          -8.3264  -16.0315   25.5958 C.3     1  UNL1        0.1500
     25 O          -8.2361  -16.0254   27.0931 O.3     1  UNL1       -0.3810
     26 C          -8.9326  -16.9465   24.5734 C.3     1  UNL1        0.1244
     27 H          -7.7490  -15.2388   27.3844 H       1  UNL1        0.2105
@<TRIPOS>BOND
     1    20    21    2
     2    21    19    1
     3    19     1    1
     4     1    13    1
     5    13    14   ar
     6    14    15   ar
     7    15    16   ar
     8    16    17   ar
     9    17    18   ar
    10     1     2    1
    11     2     3    1
    12     3     4    1
    13     4     5    1
    14     5     6    1
    15     6     7    1
    16     7     8    1
    17     8     9    1
    18     8    10    1
    19    10    11    1
    20    21    22   am
    21    22    23    1
    22    23    24    1
    23    24    25    1
    24    24    26    1
    25     6     1    1
    26    26    22    1
    27    18    13   ar
    28     9     2    1
    29    10     4    1
    30    11    12    1
    31    25    27    1
@<TRIPOS>MOLECULE
*****
 27 31 0 0 0
SMALL
GASTEIGER

@<TRIPOS>ATOM
      1 C         -15.3070   -6.6847   19.1111 C.3     1  UNL1        0.0275
      2 C         -15.0135   -8.0721   18.6221 C.3     1  UNL1        0.0044
      3 C         -16.1058   -9.0992   18.5800 C.3     1  UNL1        0.0027
      4 C         -17.4916   -8.7389   19.0269 C.3     1  UNL1        0.0269
      5 C         -17.7851   -7.3516   19.5159 C.3     1  UNL1        0.0027
      6 C         -16.6927   -6.3245   19.5580 C.3     1  UNL1        0.0044
      7 C         -15.3511   -9.0926   18.3976 C.3     1  UNL1        0.0027
      8 C         -15.8124  -10.4866   18.0910 C.3     1  UNL1        0.0269
      9 C         -14.7201   -9.4595   18.1331 C.3     1  UNL1        0.0027
     10 C         -17.1982  -10.1263   18.5379 C.3     1  UNL1        0.1104
     11 O         -18.2906  -11.1534   18.4958 O.3     1  UNL1       -0.3845
     12 H         -19.1172  -10.7596   18.8162 H       1  UNL1        0.2103
     13 C         -15.0933   -5.2494   19.4906 C.ar    1  UNL1       -0.0223
     14 C         -14.0559   -4.8904   20.5129 C.ar    1  UNL1       -0.0043
     15 C         -13.8421   -3.4551   20.8925 C.ar    1  UNL1       -0.0003
     16 C         -14.6658   -2.3787   20.2498 C.ar    1  UNL1       -0.0000
     17 C         -15.7031   -2.7376   19.2276 C.ar    1  UNL1       -0.0003
     18 C         -15.9169   -4.1730   18.8480 C.ar    1  UNL1       -0.0043
     19 C         -13.8470   -6.5465   18.7960 C.3     1  UNL1        0.0893
     20 O         -14.2569   -6.3425   16.2386 O.2     1  UNL1       -0.2749
     21 C         -13.4141   -6.0564   17.4461 C.2     1  UNL1        0.2261
     22 N         -12.1384   -5.2803   17.3035 N.am    1  UNL1       -0.2744
     23 C         -11.4037   -4.6481   16.1587 C.3     1  UNL1        0.1244
     24 C         -10.3344   -4.1826   17.1019 C.3     1  UNL1        0.1500
     25 O          -9.0587   -3.4065   16.9593 O.3     1  UNL1       -0.3810
     26 C         -11.0691   -4.8148   18.2468 C.3     1  UNL1        0.1244
     27 H          -8.9281   -3.1674   16.0284 H       1  UNL1        0.2105
@<TRIPOS>BOND
     1    20    21    2
     2    21    19    1
     3    19     1    1
     4     1    13    1
     5    13    14   ar
     6    14    15   ar
     7    15    16   ar
     8    16    17   ar
     9    17    18   ar
    10     1     2    1
    11     2     3    1
    12     3     4    1
    13     4     5    1
    14     5     6    1
    15     6     7    1
    16     7     8    1
    17     8     9    1
    18     8    10    1
    19    10    11    1
    20    21    22   am
    21    22    23    1
    22    23    24    1
    23    24    25    1
    24    24    26    1
    25     6     1    1
    26    26    22    1
    27    18    13   ar
    28     9     2    1
    29    10     4    1
    30    11    12    1
    31    25    27    1
@<TRIPOS>MOLECULE
*****
 27 31 0 0 0
SMALL
GASTEIGER

@<TRIPOS>ATOM
      1 C         -12.7629   -4.1196   18.8633 C.3     1  UNL1        0.0275
      2 C         -11.2815   -4.3529   18.8929 C.3     1  UNL1        0.0044
      3 C         -10.7438   -5.7513   18.9663 C.3     1  UNL1        0.0027
      4 C         -11.6876   -6.9163   19.0101 C.3     1  UNL1        0.0269
      5 C         -13.1690   -6.6830   18.9805 C.3     1  UNL1        0.0027
      6 C         -13.7067   -5.2846   18.9071 C.3     1  UNL1        0.0044
      7 C         -10.4281   -5.0425   18.9365 C.3     1  UNL1        0.0027
      8 C          -9.2624   -5.9846   18.9960 C.3     1  UNL1        0.0269
      9 C          -9.8001   -4.5862   18.9226 C.3     1  UNL1        0.0027
     10 C         -10.2061   -7.1496   19.0398 C.3     1  UNL1        0.1104
     11 O          -9.6684   -8.5481   19.1132 O.3     1  UNL1       -0.3845
     12 H         -10.4062   -9.1775   19.1340 H       1  UNL1        0.2103
     13 C         -14.0748   -3.3941   18.8123 C.ar    1  UNL1       -0.0223
     14 C         -15.0625   -3.7058   17.7272 C.ar    1  UNL1       -0.0043
     15 C         -16.3744   -2.9803   17.6761 C.ar    1  UNL1       -0.0003
     16 C         -16.6986   -1.9432   18.7101 C.ar    1  UNL1       -0.0000
     17 C         -15.7110   -1.6314   19.7952 C.ar    1  UNL1       -0.0003
     18 C         -14.3991   -2.3569   19.8463 C.ar    1  UNL1       -0.0043
     19 C         -12.2748   -2.7026   18.8018 C.3     1  UNL1        0.0893
     20 O         -11.6398   -2.9096   16.2911 O.2     1  UNL1       -0.2749
     21 C         -12.0001   -2.0608   17.4742 C.2     1  UNL1        0.2261
     22 N         -12.0858   -0.5703   17.3295 N.am    1  UNL1       -0.2744
     23 C         -11.8871    0.3992   16.2023 C.3     1  UNL1        0.1244
     24 C         -12.2069    1.5377   17.1251 C.3     1  UNL1        0.1500
     25 O         -12.2925    3.0283   16.9805 O.3     1  UNL1       -0.3810
     26 C         -12.4056    0.5682   18.2523 C.3     1  UNL1        0.1244
     27 H         -12.0875    3.2766   16.0655 H       1  UNL1        0.2105
@<TRIPOS>BOND
     1    20    21    2
     2    21    19    1
     3    19     1    1
     4     1    13    1
     5    13    14   ar
     6    14    15   ar
     7    15    16   ar
     8    16    17   ar
     9    17    18   ar
    10     1     2    1
    11     2     3    1
    12     3     4    1
    13     4     5    1
    14     5     6    1
    15     6     7    1
    16     7     8    1
    17     8     9    1
    18     8    10    1
    19    10    11    1
    20    21    22   am
    21    22    23    1
    22    23    24    1
    23    24    25    1
    24    24    26    1
    25     6     1    1
    26    26    22    1
    27    18    13   ar
    28     9     2    1
    29    10     4    1
    30    11    12    1
    31    25    27    1
@<TRIPOS>MOLECULE
*****
 27 31 0 0 0
SMALL
GASTEIGER

@<TRIPOS>ATOM
      1 C          -9.7069  -17.0761   23.2221 C.3     1  UNL1        0.0275
      2 C          -9.7683  -17.6694   21.8458 C.3     1  UNL1        0.0044
      3 C         -10.7944  -17.1844   20.8651 C.3     1  UNL1        0.0027
      4 C         -11.7591  -16.1062   21.2607 C.3     1  UNL1        0.0269
      5 C         -11.6978  -15.5129   22.6370 C.3     1  UNL1        0.0027
      6 C         -10.6716  -15.9979   23.6177 C.3     1  UNL1        0.0044
      7 C         -10.2279  -17.7152   20.8495 C.3     1  UNL1        0.0027
      8 C         -10.8558  -17.7777   19.4887 C.3     1  UNL1        0.0269
      9 C          -9.8297  -18.2627   20.4694 C.3     1  UNL1        0.0027
     10 C         -11.8205  -16.6994   19.8844 C.3     1  UNL1        0.1104
     11 O         -12.8467  -16.2144   18.9036 O.3     1  UNL1       -0.3845
     12 H         -13.3859  -15.5214   19.3160 H       1  UNL1        0.2103
     13 C          -9.2560  -16.8274   24.6309 C.ar    1  UNL1       -0.0223
     14 C          -9.4097  -17.9002   25.6680 C.ar    1  UNL1       -0.0043
     15 C          -8.9589  -17.6515   27.0768 C.ar    1  UNL1       -0.0003
     16 C          -8.3543  -16.3301   27.4486 C.ar    1  UNL1       -0.0000
     17 C          -8.2006  -15.2573   26.4117 C.ar    1  UNL1       -0.0003
     18 C          -8.6515  -15.5059   25.0027 C.ar    1  UNL1       -0.0043
     19 C          -8.5856  -18.0680   23.3157 C.3     1  UNL1        0.0893
     20 O          -6.6464  -16.3831   22.9277 O.2     1  UNL1       -0.2749
     21 C          -7.2456  -17.7433   22.7251 C.2     1  UNL1        0.2261
     22 N          -6.5047  -18.7785   21.9318 N.am    1  UNL1       -0.2744
     23 C          -5.1891  -18.8228   21.2125 C.3     1  UNL1        0.1244
     24 C          -5.4569  -20.2427   20.8101 C.3     1  UNL1        0.1500
     25 O          -4.7160  -21.2780   20.0168 O.3     1  UNL1       -0.3810
     26 C          -6.7725  -20.1985   21.5294 C.3     1  UNL1        0.1244
     27 H          -3.8737  -20.9081   19.7093 H       1  UNL1        0.2105
@<TRIPOS>BOND
     1    20    21    2
     2    21    19    1
     3    19     1    1
     4     1    13    1
     5    13    14   ar
     6    14    15   ar
     7    15    16   ar
     8    16    17   ar
     9    17    18   ar
    10     1     2    1
    11     2     3    1
    12     3     4    1
    13     4     5    1
    14     5     6    1
    15     6     7    1
    16     7     8    1
    17     8     9    1
    18     8    10    1
    19    10    11    1
    20    21    22   am
    21    22    23    1
    22    23    24    1
    23    24    25    1
    24    24    26    1
    25     6     1    1
    26    26    22    1
    27    18    13   ar
    28     9     2    1
    29    10     4    1
    30    11    12    1
    31    25    27    1
@<TRIPOS>MOLECULE
*****
 27 31 0 0 0
SMALL
GASTEIGER

@<TRIPOS>ATOM
      1 C          -9.1869  -16.2246   23.3603 C.3     1  UNL1        0.0275
      2 C         -10.4792  -16.8106   22.8740 C.3     1  UNL1        0.0044
      3 C         -11.0481  -16.3806   21.5543 C.3     1  UNL1        0.0027
      4 C         -10.3246  -15.3647   20.7210 C.3     1  UNL1        0.0269
      5 C          -9.0323  -14.7787   21.2074 C.3     1  UNL1        0.0027
      6 C          -8.4634  -15.2087   22.5270 C.3     1  UNL1        0.0044
      7 C         -11.2659  -16.8765   22.1107 C.3     1  UNL1        0.0027
      8 C         -12.3404  -16.9666   21.0679 C.3     1  UNL1        0.0269
      9 C         -11.7715  -17.3965   22.3876 C.3     1  UNL1        0.0027
     10 C         -11.6169  -15.9506   20.2347 C.3     1  UNL1        0.1104
     11 O         -12.1857  -15.5206   18.9150 O.3     1  UNL1       -0.3845
     12 H         -11.5988  -14.8640   18.5084 H       1  UNL1        0.2103
     13 C          -8.0031  -15.9596   24.2425 C.ar    1  UNL1       -0.0223
     14 C          -6.6244  -15.9122   23.6534 C.ar    1  UNL1       -0.0043
     15 C          -5.4406  -15.6472   24.5355 C.ar    1  UNL1       -0.0003
     16 C          -5.6353  -15.4295   26.0068 C.ar    1  UNL1       -0.0000
     17 C          -7.0139  -15.4768   26.5960 C.ar    1  UNL1       -0.0003
     18 C          -8.1978  -15.7419   25.7138 C.ar    1  UNL1       -0.0043
     19 C          -9.4993  -17.1485   24.5000 C.3     1  UNL1        0.0893
     20 O          -9.8582  -19.5761   25.3533 O.2     1  UNL1       -0.2749
     21 C          -9.2716  -18.6239   24.3536 C.2     1  UNL1        0.2261
     22 N          -8.4576  -19.1472   23.2075 N.am    1  UNL1       -0.2744
     23 C          -8.0285  -20.5082   22.7455 C.3     1  UNL1        0.1244
     24 C          -7.3063  -19.8871   21.5867 C.3     1  UNL1        0.1500
     25 O          -6.4922  -20.4104   20.4406 O.3     1  UNL1       -0.3810
     26 C          -7.7354  -18.5261   22.0487 C.3     1  UNL1        0.1244
     27 H          -6.4431  -21.3777   20.4940 H       1  UNL1        0.2105
@<TRIPOS>BOND
     1    20    21    2
     2    21    19    1
     3    19     1    1
     4     1    13    1
     5    13    14   ar
     6    14    15   ar
     7    15    16   ar
     8    16    17   ar
     9    17    18   ar
    10     1     2    1
    11     2     3    1
    12     3     4    1
    13     4     5    1
    14     5     6    1
    15     6     7    1
    16     7     8    1
    17     8     9    1
    18     8    10    1
    19    10    11    1
    20    21    22   am
    21    22    23    1
    22    23    24    1
    23    24    25    1
    24    24    26    1
    25     6     1    1
    26    26    22    1
    27    18    13   ar
    28     9     2    1
    29    10     4    1
    30    11    12    1
    31    25    27    1
@<TRIPOS>MOLECULE
*****
 27 31 0 0 0
SMALL
GASTEIGER

@<TRIPOS>ATOM
      1 C          -8.6120  -17.0863   23.4724 C.3     1  UNL1        0.0275
      2 C          -7.3378  -16.3058   23.6038 C.3     1  UNL1        0.0044
      3 C          -6.9485  -15.7233   24.9301 C.3     1  UNL1        0.0027
      4 C          -7.8334  -15.9213   26.1250 C.3     1  UNL1        0.0269
      5 C          -9.1076  -16.7018   25.9935 C.3     1  UNL1        0.0027
      6 C          -9.4969  -17.2843   24.6672 C.3     1  UNL1        0.0044
      7 C          -6.6347  -15.7298   24.2199 C.3     1  UNL1        0.0027
      8 C          -5.6743  -14.9429   25.0615 C.3     1  UNL1        0.0269
      9 C          -6.0636  -15.5254   23.7352 C.3     1  UNL1        0.0027
     10 C          -6.5592  -15.1408   26.2564 C.3     1  UNL1        0.1104
     11 O          -6.1699  -14.5583   27.5828 O.3     1  UNL1       -0.3845
     12 H          -6.8460  -14.7772   28.2430 H       1  UNL1        0.2103
     13 C          -9.7114  -17.8957   22.8510 C.ar    1  UNL1       -0.0223
     14 C          -9.8219  -19.3622   23.1462 C.ar    1  UNL1       -0.0043
     15 C         -10.9213  -20.1716   22.5248 C.ar    1  UNL1       -0.0003
     16 C         -11.9103  -19.5145   21.6082 C.ar    1  UNL1       -0.0000
     17 C         -11.7999  -18.0481   21.3130 C.ar    1  UNL1       -0.0003
     18 C         -10.7004  -17.2386   21.9344 C.ar    1  UNL1       -0.0043
     19 C          -8.1089  -17.1694   22.0617 C.3     1  UNL1        0.0893
     20 O          -6.0619  -18.7445   22.3426 O.2     1  UNL1       -0.2749
     21 C          -7.3181  -18.3637   21.6165 C.2     1  UNL1        0.2261
     22 N          -7.7833  -19.1773   20.4453 N.am    1  UNL1       -0.2744
     23 C          -7.2766  -20.3955   19.7318 C.3     1  UNL1        0.1244
     24 C          -8.4413  -20.3277   18.7890 C.3     1  UNL1        0.1500
     25 O          -8.9066  -21.1413   17.6178 O.3     1  UNL1       -0.3810
     26 C          -8.9480  -19.1095   19.5025 C.3     1  UNL1        0.1244
     27 H          -8.2863  -21.8710   17.4642 H       1  UNL1        0.2105
@<TRIPOS>BOND
     1    20    21    2
     2    21    19    1
     3    19     1    1
     4     1    13    1
     5    13    14   ar
     6    14    15   ar
     7    15    16   ar
     8    16    17   ar
     9    17    18   ar
    10     1     2    1
    11     2     3    1
    12     3     4    1
    13     4     5    1
    14     5     6    1
    15     6     7    1
    16     7     8    1
    17     8     9    1
    18     8    10    1
    19    10    11    1
    20    21    22   am
    21    22    23    1
    22    23    24    1
    23    24    25    1
    24    24    26    1
    25     6     1    1
    26    26    22    1
    27    18    13   ar
    28     9     2    1
    29    10     4    1
    30    11    12    1
    31    25    27    1
