@<TRIPOS>MOLECULE
*****
 30 33 0 0 0
SMALL
GASTEIGER

@<TRIPOS>ATOM
      1 C          -5.5377  -19.6473   21.8257 C.ar    1  UNL1        0.1311
      2 C          -6.0311  -20.6656   20.8410 C.ar    1  UNL1        0.0339
      3 C          -7.3044  -20.4232   20.0861 C.ar    1  UNL1        0.0027
      4 C          -8.0843  -19.1627   20.3159 C.ar    1  UNL1        0.0283
      5 C          -7.5909  -18.1445   21.3007 C.ar    1  UNL1        0.2196
      6 F          -8.3708  -16.8839   21.5305 F       1  UNL1       -0.1835
      7 N          -6.3176  -18.3868   22.0556 N.ar    1  UNL1       -0.2035
      8 N          -4.2644  -19.8896   22.5807 N.pl3   1  UNL1       -0.3143
      9 H          -4.2826  -19.9780   23.5610 H       1  UNL1        0.1485
     10 C          -2.9633  -19.9973   21.8420 C.3     1  UNL1        0.1200
     11 C          -2.4242  -17.4713   22.1225 C.ar    1  UNL1        0.2224
     12 N          -1.7266  -16.2313   21.6473 N.ar    1  UNL1       -0.2104
     13 C          -0.8707  -16.2773   20.4163 C.ar    1  UNL1        0.1020
     14 C          -0.7123  -17.5633   19.6606 C.ar    1  UNL1        0.0206
     15 C          -1.4099  -18.8033   20.1358 C.ar    1  UNL1        0.0036
     16 C          -2.2658  -18.7573   21.3668 C.ar    1  UNL1        0.0506
     17 C          -4.2308  -16.2843   23.5638 C.3     1  UNL1        0.2542
     18 O          -3.2801  -17.4253   23.3535 O.3     1  UNL1       -0.4563
     19 C          -9.3577  -18.9204   19.5610 C.3     1  UNL1        0.0582
     20 C         -10.5533  -18.3551   20.2688 C.ar    1  UNL1        0.0044
     21 C         -11.5713  -17.4264   19.6761 C.ar    1  UNL1        0.0966
     22 N         -12.5879  -17.1166   20.7347 N.ar    1  UNL1       -0.2273
     23 C         -12.1983  -17.8538   21.9815 C.ar    1  UNL1        0.1402
     24 N         -12.8260  -17.9271   23.3418 N.ar    1  UNL1       -0.3377
     25 C         -12.1963  -18.7657   24.4142 C.ar    1  UNL1        0.0691
     26 C         -10.9389  -19.5311   24.1263 C.ar    1  UNL1       -0.0047
     27 C         -10.3092  -20.3698   25.1988 C.3     1  UNL1        0.0326
     28 C         -10.3111  -19.4579   22.7660 C.ar    1  UNL1       -0.0001
     29 C         -10.9408  -18.6193   21.6936 C.ar    1  UNL1        0.0315
     30 H         -13.6513  -17.4247   23.5308 H       1  UNL1        0.1674
@<TRIPOS>BOND
     1    17    18    1
     2    18    11    1
     3    11    12   ar
     4    12    13   ar
     5    13    14   ar
     6    14    15   ar
     7    15    16   ar
     8    16    10    1
     9    10     8    1
    10     8     1    1
    11     1     2   ar
    12     2     3   ar
    13     3     4   ar
    14     4    19    1
    15    19    20    1
    16    20    21   ar
    17    21    22   ar
    18    22    23   ar
    19    23    24   ar
    20    24    25   ar
    21    25    26   ar
    22    26    27    1
    23    26    28   ar
    24    28    29   ar
    25     4     5   ar
    26     5     6    1
    27     5     7   ar
    28    16    11   ar
    29     7     1   ar
    30    29    20   ar
    31    29    23    1
    32     8     9    1
    33    24    30    1
@<TRIPOS>MOLECULE
*****
 30 33 0 0 0
SMALL
GASTEIGER

@<TRIPOS>ATOM
      1 C          -8.3645  -16.0161   23.8548 C.ar    1  UNL1        0.1311
      2 C          -7.8020  -17.0402   22.9141 C.ar    1  UNL1        0.0339
      3 C          -6.3314  -17.3352   22.9190 C.ar    1  UNL1        0.0027
      4 C          -5.4232  -16.6063   23.8644 C.ar    1  UNL1        0.0283
      5 C          -5.9857  -15.5821   24.8050 C.ar    1  UNL1        0.2196
      6 F          -5.0775  -14.8531   25.7504 F       1  UNL1       -0.1835
      7 N          -7.4563  -15.2871   24.8002 N.ar    1  UNL1       -0.2035
      8 N          -9.8351  -15.7209   23.8500 N.pl3   1  UNL1       -0.3143
      9 H         -10.1525  -14.7987   23.9841 H       1  UNL1        0.1485
     10 C         -10.8223  -16.8309   23.6410 C.3     1  UNL1        0.1200
     11 C         -10.8534  -19.0130   22.2313 C.ar    1  UNL1        0.2224
     12 N         -10.9407  -19.6982   20.8998 N.ar    1  UNL1       -0.2104
     13 C         -11.0841  -18.8865   19.6466 C.ar    1  UNL1        0.1020
     14 C         -11.1403  -17.3896   19.7249 C.ar    1  UNL1        0.0206
     15 C         -11.0530  -16.7044   21.0564 C.ar    1  UNL1        0.0036
     16 C         -10.9095  -17.5161   22.3096 C.ar    1  UNL1        0.0506
     17 C          -9.3658  -20.3580   23.8831 C.3     1  UNL1        0.2542
     18 O         -10.7099  -19.8247   23.4845 O.3     1  UNL1       -0.4563
     19 C          -3.9524  -16.9014   23.8691 C.3     1  UNL1        0.0582
     20 C          -3.2279  -17.1236   22.5746 C.ar    1  UNL1        0.0044
     21 C          -2.0863  -16.3033   22.0512 C.ar    1  UNL1        0.0966
     22 N          -1.6706  -16.8779   20.7294 N.ar    1  UNL1       -0.2273
     23 C          -2.5553  -18.0531   20.4359 C.ar    1  UNL1        0.1402
     24 N          -2.6088  -19.0046   19.2776 N.ar    1  UNL1       -0.3377
     25 C          -3.6248  -20.1079   19.2597 C.ar    1  UNL1        0.0691
     26 C          -4.5872  -20.2598   20.4002 C.ar    1  UNL1       -0.0047
     27 C          -5.6033  -21.3632   20.3822 C.3     1  UNL1        0.0326
     28 C          -4.5337  -19.3083   21.5585 C.ar    1  UNL1       -0.0001
     29 C          -3.5177  -18.2050   21.5764 C.ar    1  UNL1        0.0315
     30 H          -1.9771  -18.9049   18.5291 H       1  UNL1        0.1674
@<TRIPOS>BOND
     1    17    18    1
     2    18    11    1
     3    11    12   ar
     4    12    13   ar
     5    13    14   ar
     6    14    15   ar
     7    15    16   ar
     8    16    10    1
     9    10     8    1
    10     8     1    1
    11     1     2   ar
    12     2     3   ar
    13     3     4   ar
    14     4    19    1
    15    19    20    1
    16    20    21   ar
    17    21    22   ar
    18    22    23   ar
    19    23    24   ar
    20    24    25   ar
    21    25    26   ar
    22    26    27    1
    23    26    28   ar
    24    28    29   ar
    25     4     5   ar
    26     5     6    1
    27     5     7   ar
    28    16    11   ar
    29     7     1   ar
    30    29    20   ar
    31    29    23    1
    32     8     9    1
    33    24    30    1
@<TRIPOS>MOLECULE
*****
 30 33 0 0 0
SMALL
GASTEIGER

@<TRIPOS>ATOM
      1 C          -5.8968  -20.5040   20.2830 C.ar    1  UNL1        0.1311
      2 C          -6.4986  -19.2434   20.8296 C.ar    1  UNL1        0.0339
      3 C          -7.8889  -18.8432   20.4337 C.ar    1  UNL1        0.0027
      4 C          -8.6774  -19.7034   19.4912 C.ar    1  UNL1        0.0283
      5 C          -8.0756  -20.9640   18.9446 C.ar    1  UNL1        0.2196
      6 F          -8.8641  -21.8242   18.0021 F       1  UNL1       -0.1835
      7 N          -6.6853  -21.3642   19.3405 N.ar    1  UNL1       -0.2035
      8 N          -4.5064  -20.9044   20.6788 N.pl3   1  UNL1       -0.3143
      9 H          -4.3686  -21.6560   21.2995 H       1  UNL1        0.1485
     10 C          -3.3262  -20.1596   20.1289 C.3     1  UNL1        0.1200
     11 C          -1.9873  -17.9365   20.0051 C.ar    1  UNL1        0.2224
     12 N          -1.5628  -16.6394   20.6274 N.ar    1  UNL1       -0.2104
     13 C          -2.0525  -16.2683   21.9958 C.ar    1  UNL1        0.1020
     14 C          -2.9667  -17.1943   22.7419 C.ar    1  UNL1        0.0206
     15 C          -3.3913  -18.4914   22.1196 C.ar    1  UNL1        0.0036
     16 C          -2.9016  -18.8625   20.7512 C.ar    1  UNL1        0.0506
     17 C          -1.9331  -17.5110   17.4427 C.3     1  UNL1        0.2542
     18 O          -1.4976  -18.3076   18.6367 O.3     1  UNL1       -0.4563
     19 C         -10.0678  -19.3030   19.0953 C.3     1  UNL1        0.0582
     20 C         -10.9135  -18.4984   20.0373 C.ar    1  UNL1        0.0044
     21 C         -11.7749  -17.3274   19.6677 C.ar    1  UNL1        0.0966
     22 N         -12.4400  -16.8288   20.9163 N.ar    1  UNL1       -0.2273
     23 C         -11.9896  -17.6916   22.0576 C.ar    1  UNL1        0.1402
     24 N         -12.3166  -17.6710   23.5214 N.ar    1  UNL1       -0.3377
     25 C         -11.7002  -18.6822   24.4419 C.ar    1  UNL1        0.0691
     26 C         -10.7568  -19.7141   23.8986 C.ar    1  UNL1       -0.0047
     27 C         -10.1404  -20.7254   24.8192 C.3     1  UNL1        0.0326
     28 C         -10.4297  -19.7347   22.4349 C.ar    1  UNL1       -0.0001
     29 C         -11.0461  -18.7235   21.5144 C.ar    1  UNL1        0.0315
     30 H         -12.9359  -16.9937   23.8779 H       1  UNL1        0.1674
@<TRIPOS>BOND
     1    17    18    1
     2    18    11    1
     3    11    12   ar
     4    12    13   ar
     5    13    14   ar
     6    14    15   ar
     7    15    16   ar
     8    16    10    1
     9    10     8    1
    10     8     1    1
    11     1     2   ar
    12     2     3   ar
    13     3     4   ar
    14     4    19    1
    15    19    20    1
    16    20    21   ar
    17    21    22   ar
    18    22    23   ar
    19    23    24   ar
    20    24    25   ar
    21    25    26   ar
    22    26    27    1
    23    26    28   ar
    24    28    29   ar
    25     4     5   ar
    26     5     6    1
    27     5     7   ar
    28    16    11   ar
    29     7     1   ar
    30    29    20   ar
    31    29    23    1
    32     8     9    1
    33    24    30    1
@<TRIPOS>MOLECULE
*****
 30 33 0 0 0
SMALL
GASTEIGER

@<TRIPOS>ATOM
      1 C          -5.8919  -17.0067   23.3849 C.ar    1  UNL1        0.1311
      2 C          -6.6408  -18.1167   22.7090 C.ar    1  UNL1        0.0339
      3 C          -8.1163  -18.2699   22.9312 C.ar    1  UNL1        0.0027
      4 C          -8.8429  -17.3130   23.8292 C.ar    1  UNL1        0.0283
      5 C          -8.0940  -16.2029   24.5051 C.ar    1  UNL1        0.2196
      6 F          -8.8206  -15.2460   25.4031 F       1  UNL1       -0.1835
      7 N          -6.6185  -16.0498   24.2829 N.ar    1  UNL1       -0.2035
      8 N          -4.4164  -16.8535   23.1629 N.pl3   1  UNL1       -0.3143
      9 H          -3.9887  -15.9752   23.2854 H       1  UNL1        0.1485
     10 C          -3.5923  -18.0383   22.7541 C.3     1  UNL1        0.1200
     11 C          -2.0580  -19.0338   20.9089 C.ar    1  UNL1        0.2224
     12 N          -0.9487  -18.8681   19.9128 N.ar    1  UNL1       -0.2104
     13 C          -0.2646  -17.5413   19.7660 C.ar    1  UNL1        0.1020
     14 C          -0.6898  -16.3802   20.6151 C.ar    1  UNL1        0.0206
     15 C          -1.7990  -16.5459   21.6111 C.ar    1  UNL1        0.0036
     16 C          -2.4831  -17.8727   21.7580 C.ar    1  UNL1        0.0506
     17 C          -3.9256  -20.6935   20.1965 C.3     1  UNL1        0.2542
     18 O          -2.7421  -20.3607   21.0558 O.3     1  UNL1       -0.4563
     19 C         -10.3185  -17.4662   24.0513 C.3     1  UNL1        0.0582
     20 C         -11.2620  -17.4108   22.8865 C.ar    1  UNL1        0.0044
     21 C         -12.5232  -18.2086   22.7347 C.ar    1  UNL1        0.0966
     22 N         -13.1506  -17.8387   21.4234 N.ar    1  UNL1       -0.2273
     23 C         -12.2772  -16.8123   20.7647 C.ar    1  UNL1        0.1402
     24 N         -12.3939  -16.0844   19.4584 N.ar    1  UNL1       -0.3377
     25 C         -11.3435  -15.0920   19.0564 C.ar    1  UNL1        0.0691
     26 C         -10.1763  -14.8276   19.9607 C.ar    1  UNL1       -0.0047
     27 C          -9.1258  -13.8351   19.5586 C.3     1  UNL1        0.0326
     28 C         -10.0595  -15.5555   21.2670 C.ar    1  UNL1       -0.0001
     29 C         -11.1100  -16.5479   21.6690 C.ar    1  UNL1        0.0315
     30 H         -13.1600  -16.2580   18.8649 H       1  UNL1        0.1674
@<TRIPOS>BOND
     1    17    18    1
     2    18    11    1
     3    11    12   ar
     4    12    13   ar
     5    13    14   ar
     6    14    15   ar
     7    15    16   ar
     8    16    10    1
     9    10     8    1
    10     8     1    1
    11     1     2   ar
    12     2     3   ar
    13     3     4   ar
    14     4    19    1
    15    19    20    1
    16    20    21   ar
    17    21    22   ar
    18    22    23   ar
    19    23    24   ar
    20    24    25   ar
    21    25    26   ar
    22    26    27    1
    23    26    28   ar
    24    28    29   ar
    25     4     5   ar
    26     5     6    1
    27     5     7   ar
    28    16    11   ar
    29     7     1   ar
    30    29    20   ar
    31    29    23    1
    32     8     9    1
    33    24    30    1
@<TRIPOS>MOLECULE
*****
 30 33 0 0 0
SMALL
GASTEIGER

@<TRIPOS>ATOM
      1 C          -4.2888  -16.8447   23.7971 C.ar    1  UNL1        0.1311
      2 C          -4.6934  -15.9541   24.9343 C.ar    1  UNL1        0.0339
      3 C          -6.1346  -15.5818   25.1191 C.ar    1  UNL1        0.0027
      4 C          -7.1712  -16.1000   24.1668 C.ar    1  UNL1        0.0283
      5 C          -6.7666  -16.9905   23.0296 C.ar    1  UNL1        0.2196
      6 F          -7.8033  -17.5087   22.0773 F       1  UNL1       -0.1835
      7 N          -5.3254  -17.3629   22.8448 N.ar    1  UNL1       -0.2035
      8 N          -2.8476  -17.2171   23.6122 N.pl3   1  UNL1       -0.3143
      9 H          -2.1404  -16.6622   24.0137 H       1  UNL1        0.1485
     10 C          -2.4838  -18.4349   22.8155 C.3     1  UNL1        0.1200
     11 C          -3.1377  -19.0837   20.3862 C.ar    1  UNL1        0.2224
     12 N          -2.9139  -18.9730   18.9071 N.ar    1  UNL1       -0.2104
     13 C          -1.8126  -18.1028   18.3783 C.ar    1  UNL1        0.1020
     14 C          -0.9349  -17.3433   19.3285 C.ar    1  UNL1        0.0206
     15 C          -1.1587  -17.4540   20.8076 C.ar    1  UNL1        0.0036
     16 C          -2.2601  -18.3242   21.3364 C.ar    1  UNL1        0.0506
     17 C          -5.6016  -19.9021   20.2902 C.3     1  UNL1        0.2542
     18 O          -4.2391  -19.9540   20.9151 O.3     1  UNL1       -0.4563
     19 C          -8.6125  -15.7276   24.3517 C.3     1  UNL1        0.0582
     20 C          -9.6801  -16.7731   24.2203 C.ar    1  UNL1        0.0044
     21 C          -9.9887  -17.8485   25.2195 C.ar    1  UNL1        0.0966
     22 N         -11.1258  -18.6667   24.6833 N.ar    1  UNL1       -0.2273
     23 C         -11.5200  -18.0970   23.3529 C.ar    1  UNL1        0.1402
     24 N         -12.5771  -18.4928   22.3650 N.ar    1  UNL1       -0.3377
     25 C         -12.7406  -17.7182   21.0910 C.ar    1  UNL1        0.0691
     26 C         -11.8471  -16.5478   20.8048 C.ar    1  UNL1       -0.0047
     27 C         -12.0107  -15.7732   19.5307 C.3     1  UNL1        0.0326
     28 C         -10.7900  -16.1521   21.7927 C.ar    1  UNL1       -0.0001
     29 C         -10.6265  -16.9267   23.0667 C.ar    1  UNL1        0.0315
     30 H         -13.1635  -19.2609   22.5528 H       1  UNL1        0.1674
@<TRIPOS>BOND
     1    17    18    1
     2    18    11    1
     3    11    12   ar
     4    12    13   ar
     5    13    14   ar
     6    14    15   ar
     7    15    16   ar
     8    16    10    1
     9    10     8    1
    10     8     1    1
    11     1     2   ar
    12     2     3   ar
    13     3     4   ar
    14     4    19    1
    15    19    20    1
    16    20    21   ar
    17    21    22   ar
    18    22    23   ar
    19    23    24   ar
    20    24    25   ar
    21    25    26   ar
    22    26    27    1
    23    26    28   ar
    24    28    29   ar
    25     4     5   ar
    26     5     6    1
    27     5     7   ar
    28    16    11   ar
    29     7     1   ar
    30    29    20   ar
    31    29    23    1
    32     8     9    1
    33    24    30    1
@<TRIPOS>MOLECULE
*****
 30 33 0 0 0
SMALL
GASTEIGER

@<TRIPOS>ATOM
      1 C          -4.6271  -16.2641   23.4998 C.ar    1  UNL1        0.1311
      2 C          -5.7076  -16.9569   22.7235 C.ar    1  UNL1        0.0339
      3 C          -7.1191  -16.9477   23.2309 C.ar    1  UNL1        0.0027
      4 C          -7.4502  -16.2458   24.5145 C.ar    1  UNL1        0.0283
      5 C          -6.3697  -15.5530   25.2908 C.ar    1  UNL1        0.2196
      6 F          -6.7008  -14.8510   26.5744 F       1  UNL1       -0.1835
      7 N          -4.9582  -15.5622   24.7834 N.ar    1  UNL1       -0.2035
      8 N          -3.2156  -16.2733   22.9925 N.pl3   1  UNL1       -0.3143
      9 H          -2.7532  -15.4239   22.8082 H       1  UNL1        0.1485
     10 C          -2.5084  -17.5766   22.7658 C.3     1  UNL1        0.1200
     11 C          -2.3424  -18.2122   20.2521 C.ar    1  UNL1        0.2224
     12 N          -2.7424  -19.0932   19.1059 N.ar    1  UNL1       -0.2104
     13 C          -3.7084  -20.2193   19.3269 C.ar    1  UNL1        0.1020
     14 C          -4.2743  -20.4645   20.6943 C.ar    1  UNL1        0.0206
     15 C          -3.8743  -19.5836   21.8405 C.ar    1  UNL1        0.0036
     16 C          -2.9083  -18.4575   21.6195 C.ar    1  UNL1        0.0506
     17 C           0.0992  -17.3546   20.0218 C.3     1  UNL1        0.2542
     18 O          -1.3765  -17.0861   20.0311 O.3     1  UNL1       -0.4563
     19 C          -8.8619  -16.2366   25.0219 C.3     1  UNL1        0.0582
     20 C          -9.8267  -17.2942   24.5740 C.ar    1  UNL1        0.0044
     21 C         -10.2228  -18.5133   25.3531 C.ar    1  UNL1        0.0966
     22 N         -11.2057  -19.2909   24.5289 N.ar    1  UNL1       -0.2273
     23 C         -11.4170  -18.5524   23.2405 C.ar    1  UNL1        0.1402
     24 N         -12.2754  -18.8442   22.0455 N.ar    1  UNL1       -0.3377
     25 C         -12.2815  -17.9021   20.8784 C.ar    1  UNL1        0.0691
     26 C         -11.4292  -16.6680   20.9063 C.ar    1  UNL1       -0.0047
     27 C         -11.4353  -15.7258   19.7391 C.3     1  UNL1        0.0326
     28 C         -10.5708  -16.3762   22.1012 C.ar    1  UNL1       -0.0001
     29 C         -10.5647  -17.3184   23.2683 C.ar    1  UNL1        0.0315
     30 H         -12.8348  -19.6542   22.0273 H       1  UNL1        0.1674
@<TRIPOS>BOND
     1    17    18    1
     2    18    11    1
     3    11    12   ar
     4    12    13   ar
     5    13    14   ar
     6    14    15   ar
     7    15    16   ar
     8    16    10    1
     9    10     8    1
    10     8     1    1
    11     1     2   ar
    12     2     3   ar
    13     3     4   ar
    14     4    19    1
    15    19    20    1
    16    20    21   ar
    17    21    22   ar
    18    22    23   ar
    19    23    24   ar
    20    24    25   ar
    21    25    26   ar
    22    26    27    1
    23    26    28   ar
    24    28    29   ar
    25     4     5   ar
    26     5     6    1
    27     5     7   ar
    28    16    11   ar
    29     7     1   ar
    30    29    20   ar
    31    29    23    1
    32     8     9    1
    33    24    30    1
@<TRIPOS>MOLECULE
*****
 30 33 0 0 0
SMALL
GASTEIGER

@<TRIPOS>ATOM
      1 C          -8.3493  -16.0031   23.4877 C.ar    1  UNL1        0.1311
      2 C          -7.3570  -14.9969   23.9904 C.ar    1  UNL1        0.0339
      3 C          -5.9018  -15.3525   24.0674 C.ar    1  UNL1        0.0027
      4 C          -5.4390  -16.7143   23.6416 C.ar    1  UNL1        0.0283
      5 C          -6.4314  -17.7205   23.1388 C.ar    1  UNL1        0.2196
      6 F          -5.9686  -19.0823   22.7131 F       1  UNL1       -0.1835
      7 N          -7.8865  -17.3649   23.0619 N.ar    1  UNL1       -0.2035
      8 N          -9.8045  -15.6475   23.4107 N.pl3   1  UNL1       -0.3143
      9 H         -10.0783  -14.7034   23.3552 H       1  UNL1        0.1485
     10 C         -10.8427  -16.7302   23.4184 C.3     1  UNL1        0.1200
     11 C         -10.6772  -17.4323   20.9224 C.ar    1  UNL1        0.2224
     12 N         -10.6506  -18.5043   19.8736 N.ar    1  UNL1       -0.2104
     13 C         -10.7631  -19.9461   20.2719 C.ar    1  UNL1        0.1020
     14 C         -10.9021  -20.3159   21.7189 C.ar    1  UNL1        0.0206
     15 C         -10.9286  -19.2439   22.7677 C.ar    1  UNL1        0.0036
     16 C         -10.8162  -17.8021   22.3695 C.ar    1  UNL1        0.0506
     17 C         -11.3850  -15.4607   19.3858 C.3     1  UNL1        0.2542
     18 O         -10.5647  -15.9905   20.5242 O.3     1  UNL1       -0.4563
     19 C          -3.9837  -17.0700   23.7186 C.3     1  UNL1        0.0582
     20 C          -3.1459  -17.0742   22.4744 C.ar    1  UNL1        0.0044
     21 C          -2.1067  -16.0566   22.1078 C.ar    1  UNL1        0.0966
     22 N          -1.5187  -16.4503   20.7852 N.ar    1  UNL1       -0.2273
     23 C          -2.1945  -17.7113   20.3344 C.ar    1  UNL1        0.1402
     24 N          -2.0241  -18.5582   19.1082 N.ar    1  UNL1       -0.3377
     25 C          -2.8593  -19.7907   18.9259 C.ar    1  UNL1        0.0691
     26 C          -3.8650  -20.1763   19.9699 C.ar    1  UNL1       -0.0047
     27 C          -4.7002  -21.4089   19.7877 C.3     1  UNL1        0.0326
     28 C          -4.0354  -19.3294   21.1962 C.ar    1  UNL1       -0.0001
     29 C          -3.2002  -18.0969   21.3784 C.ar    1  UNL1        0.0315
     30 H          -1.3640  -18.3051   18.4229 H       1  UNL1        0.1674
@<TRIPOS>BOND
     1    17    18    1
     2    18    11    1
     3    11    12   ar
     4    12    13   ar
     5    13    14   ar
     6    14    15   ar
     7    15    16   ar
     8    16    10    1
     9    10     8    1
    10     8     1    1
    11     1     2   ar
    12     2     3   ar
    13     3     4   ar
    14     4    19    1
    15    19    20    1
    16    20    21   ar
    17    21    22   ar
    18    22    23   ar
    19    23    24   ar
    20    24    25   ar
    21    25    26   ar
    22    26    27    1
    23    26    28   ar
    24    28    29   ar
    25     4     5   ar
    26     5     6    1
    27     5     7   ar
    28    16    11   ar
    29     7     1   ar
    30    29    20   ar
    31    29    23    1
    32     8     9    1
    33    24    30    1
@<TRIPOS>MOLECULE
*****
 30 33 0 0 0
SMALL
GASTEIGER

@<TRIPOS>ATOM
      1 C          -4.4157  -17.5051   23.4194 C.ar    1  UNL1        0.1311
      2 C          -5.5179  -18.1597   22.6405 C.ar    1  UNL1        0.0339
      3 C          -6.9174  -17.6272   22.7293 C.ar    1  UNL1        0.0027
      4 C          -7.2147  -16.4403   23.5969 C.ar    1  UNL1        0.0283
      5 C          -6.1125  -15.7857   24.3758 C.ar    1  UNL1        0.2196
      6 F          -6.4097  -14.5987   25.2434 F       1  UNL1       -0.1835
      7 N          -4.7130  -16.3181   24.2870 N.ar    1  UNL1       -0.2035
      8 N          -3.0162  -18.0375   23.3306 N.pl3   1  UNL1       -0.3143
      9 H          -2.3275  -17.7186   23.9578 H       1  UNL1        0.1485
     10 C          -2.6658  -19.0557   22.2864 C.3     1  UNL1        0.1200
     11 C          -3.1281  -18.7422   19.7491 C.ar    1  UNL1        0.2224
     12 N          -2.6725  -18.2974   18.3909 N.ar    1  UNL1       -0.2104
     13 C          -1.2991  -17.7214   18.2119 C.ar    1  UNL1        0.1020
     14 C          -0.3813  -17.5902   19.3910 C.ar    1  UNL1        0.0206
     15 C          -0.8369  -18.0350   20.7492 C.ar    1  UNL1        0.0036
     16 C          -2.2103  -18.6110   20.9282 C.ar    1  UNL1        0.0506
     17 C          -4.6838  -20.8030   20.0368 C.3     1  UNL1        0.2542
     18 O          -4.5015  -19.3182   19.9281 O.3     1  UNL1       -0.4563
     19 C          -8.6143  -15.9079   23.6857 C.3     1  UNL1        0.0582
     20 C          -9.5286  -16.0005   22.5001 C.ar    1  UNL1        0.0044
     21 C          -9.2294  -15.5076   21.1154 C.ar    1  UNL1        0.0966
     22 N         -10.4185  -15.8048   20.2507 N.ar    1  UNL1       -0.2273
     23 C         -11.4525  -16.4815   21.1010 C.ar    1  UNL1        0.1402
     24 N         -12.8238  -17.0031   20.7889 N.ar    1  UNL1       -0.3377
     25 C         -13.6451  -17.6456   21.8671 C.ar    1  UNL1        0.0691
     26 C         -13.0951  -17.7666   23.2574 C.ar    1  UNL1       -0.0047
     27 C         -13.9164  -18.4092   24.3356 C.3     1  UNL1        0.0326
     28 C         -11.7238  -17.2450   23.5695 C.ar    1  UNL1       -0.0001
     29 C         -10.9025  -16.6024   22.4913 C.ar    1  UNL1        0.0315
     30 H         -13.1848  -16.9237   19.8764 H       1  UNL1        0.1674
@<TRIPOS>BOND
     1    17    18    1
     2    18    11    1
     3    11    12   ar
     4    12    13   ar
     5    13    14   ar
     6    14    15   ar
     7    15    16   ar
     8    16    10    1
     9    10     8    1
    10     8     1    1
    11     1     2   ar
    12     2     3   ar
    13     3     4   ar
    14     4    19    1
    15    19    20    1
    16    20    21   ar
    17    21    22   ar
    18    22    23   ar
    19    23    24   ar
    20    24    25   ar
    21    25    26   ar
    22    26    27    1
    23    26    28   ar
    24    28    29   ar
    25     4     5   ar
    26     5     6    1
    27     5     7   ar
    28    16    11   ar
    29     7     1   ar
    30    29    20   ar
    31    29    23    1
    32     8     9    1
    33    24    30    1
@<TRIPOS>MOLECULE
*****
 30 33 0 0 0
SMALL
GASTEIGER

@<TRIPOS>ATOM
      1 C          -8.5028  -16.3636   26.1735 C.ar    1  UNL1        0.1311
      2 C          -9.1138  -15.6055   25.0324 C.ar    1  UNL1        0.0339
      3 C         -10.0537  -16.2975   24.0902 C.ar    1  UNL1        0.0027
      4 C         -10.3825  -17.7474   24.2889 C.ar    1  UNL1        0.0283
      5 C          -9.7715  -18.5055   25.4300 C.ar    1  UNL1        0.2196
      6 F         -10.1003  -19.9554   25.6287 F       1  UNL1       -0.1835
      7 N          -8.8316  -17.8135   26.3722 N.ar    1  UNL1       -0.2035
      8 N          -7.5629  -15.6717   27.1158 N.pl3   1  UNL1       -0.3143
      9 H          -7.7905  -15.5959   28.0706 H       1  UNL1        0.1485
     10 C          -6.2764  -15.0953   26.6033 C.3     1  UNL1        0.1200
     11 C          -5.5470  -15.6801   24.1793 C.ar    1  UNL1        0.2224
     12 N          -4.6929  -16.4737   23.2355 N.ar    1  UNL1       -0.2104
     13 C          -3.7142  -17.4759   23.7719 C.ar    1  UNL1        0.1020
     14 C          -3.5896  -17.6845   25.2521 C.ar    1  UNL1        0.0206
     15 C          -4.4436  -16.8910   26.1959 C.ar    1  UNL1        0.0036
     16 C          -5.4224  -15.8888   25.6595 C.ar    1  UNL1        0.0506
     17 C          -7.3078  -14.9841   22.4002 C.3     1  UNL1        0.2542
     18 O          -6.5257  -14.6779   23.6429 O.3     1  UNL1       -0.4563
     19 C         -11.3224  -18.4394   23.3466 C.3     1  UNL1        0.0582
     20 C         -10.9553  -18.5946   21.9005 C.ar    1  UNL1        0.0044
     21 C         -11.8712  -18.3860   20.7310 C.ar    1  UNL1        0.0966
     22 N         -11.0897  -18.6482   19.4778 N.ar    1  UNL1       -0.2273
     23 C          -9.6909  -19.0188   19.8727 C.ar    1  UNL1        0.1402
     24 N          -8.4821  -19.3821   19.0624 N.ar    1  UNL1       -0.3377
     25 C          -7.1902  -19.7123   19.7493 C.ar    1  UNL1        0.0691
     26 C          -7.1071  -19.6792   21.2466 C.ar    1  UNL1       -0.0047
     27 C          -5.8152  -20.0095   21.9336 C.3     1  UNL1        0.0326
     28 C          -8.3159  -19.3159   22.0570 C.ar    1  UNL1       -0.0001
     29 C          -9.6078  -18.9857   21.3701 C.ar    1  UNL1        0.0315
     30 H          -8.5366  -19.4038   18.0796 H       1  UNL1        0.1674
@<TRIPOS>BOND
     1    17    18    1
     2    18    11    1
     3    11    12   ar
     4    12    13   ar
     5    13    14   ar
     6    14    15   ar
     7    15    16   ar
     8    16    10    1
     9    10     8    1
    10     8     1    1
    11     1     2   ar
    12     2     3   ar
    13     3     4   ar
    14     4    19    1
    15    19    20    1
    16    20    21   ar
    17    21    22   ar
    18    22    23   ar
    19    23    24   ar
    20    24    25   ar
    21    25    26   ar
    22    26    27    1
    23    26    28   ar
    24    28    29   ar
    25     4     5   ar
    26     5     6    1
    27     5     7   ar
    28    16    11   ar
    29     7     1   ar
    30    29    20   ar
    31    29    23    1
    32     8     9    1
    33    24    30    1
