@<TRIPOS>MOLECULE
*****
 33 37 0 0 0
SMALL
GASTEIGER

@<TRIPOS>ATOM
      1 C           7.6933   -4.7817   22.6982 C.ar    1  UNL1        0.1056
      2 C           8.0290   -4.4921   21.2652 C.ar    1  UNL1        0.0214
      3 C           7.1631   -3.5653   20.4646 C.ar    1  UNL1        0.0379
      4 C           5.9614   -2.9279   21.0969 C.ar    1  UNL1        0.1342
      5 C           5.6257   -3.2175   22.5299 C.ar    1  UNL1        0.0132
      6 C           6.4918   -4.1444   23.3306 C.ar    1  UNL1        0.0171
      7 C           4.4241   -2.5802   23.1623 C.3     1  UNL1        0.0330
      8 C           3.5581   -1.6533   22.3617 C.3     1  UNL1        0.0448
      9 C           3.8937   -1.3638   20.9287 C.3     1  UNL1        0.1351
     10 C           4.3177   -1.1426   19.5069 C.3     1  UNL1        0.0418
     11 C           3.6709   -0.2836   18.4610 C.3     1  UNL1        0.0251
     12 C           2.4405    0.5662   18.5785 C.3     1  UNL1        0.0951
     13 N           1.5529    0.7670   19.7709 N.am    1  UNL1       -0.2641
     14 C           0.3877    1.6892   19.5670 C.2     1  UNL1        0.3039
     15 O           0.1721    2.3418   18.2337 O.2     1  UNL1       -0.2526
     16 N          -0.5622    1.9587   20.6963 N.am    1  UNL1       -0.2901
     17 C           1.6766    0.1676   21.1404 C.3     1  UNL1        0.0985
     18 C           2.7184   -0.7807   21.6556 C.3     1  UNL1        0.0615
     19 O           5.0954   -2.0011   20.2963 O.3     1  UNL1       -0.4828
     20 H          -0.4207    1.5303   21.5713 H       1  UNL1        0.1509
     21 C           9.4253   -6.6353   24.2997 C.3     1  UNL1        0.1816
     22 S           8.5593   -5.7085   23.4989 S.O2    1  UNL1        0.0104
     23 O           8.4094   -6.7620   22.4417 O.2     1  UNL1       -0.1686
     24 O           8.7092   -4.6550   24.5561 O.2     1  UNL1       -0.1686
     25 C          -1.7275    2.8809   20.4923 C.3     1  UNL1        0.0774
     26 C          -2.4832    3.8482   19.6302 C.3     1  UNL1        0.0259
     27 C          -2.9901    3.5109   21.0010 C.3     1  UNL1        0.0420
     28 C          -4.0117    3.6798   22.0863 C.ar    1  UNL1       -0.0208
     29 C          -3.5938    3.6203   23.5256 C.ar    1  UNL1       -0.0042
     30 C          -4.6155    3.7893   24.6109 C.ar    1  UNL1       -0.0003
     31 C          -6.0550    4.0177   24.2567 C.ar    1  UNL1       -0.0000
     32 C          -6.4729    4.0772   22.8174 C.ar    1  UNL1       -0.0003
     33 C          -5.4514    3.9083   21.7321 C.ar    1  UNL1       -0.0042
@<TRIPOS>BOND
     1    21    22    1
     2    22    23    2
     3    22    24    2
     4    22     1    1
     5     1     2   ar
     6     2     3   ar
     7     3     4   ar
     8     4     5   ar
     9     5     6   ar
    10     5     7    1
    11     7     8    1
    12     8     9    1
    13     9    10    1
    14    10    11    1
    15    11    12    1
    16    12    13    1
    17    13    14   am
    18    14    15    2
    19    14    16   am
    20    25    16    1
    21    25    26    1
    22    26    27    1
    23    27    28    1
    24    28    29   ar
    25    29    30   ar
    26    30    31   ar
    27    31    32   ar
    28    32    33   ar
    29    13    17    1
    30    17    18    1
    31     9    19    1
    32     6     1   ar
    33    18     9    1
    34    19     4    1
    35    27    25    1
    36    33    28   ar
    37    16    20    1
@<TRIPOS>MOLECULE
*****
 33 37 0 0 0
SMALL
GASTEIGER

@<TRIPOS>ATOM
      1 C           3.5831    1.5493   36.1449 C.ar    1  UNL1        0.1056
      2 C           4.4416    0.4148   36.6201 C.ar    1  UNL1        0.0214
      3 C           5.0331   -0.5440   35.6298 C.ar    1  UNL1        0.0379
      4 C           4.7663   -0.3683   34.1642 C.ar    1  UNL1        0.1342
      5 C           3.9078    0.7662   33.6890 C.ar    1  UNL1        0.0132
      6 C           3.3162    1.7250   34.6793 C.ar    1  UNL1        0.0171
      7 C           3.6409    0.9419   32.2234 C.3     1  UNL1        0.0330
      8 C           4.2324   -0.0168   31.2331 C.3     1  UNL1        0.0448
      9 C           5.0909   -1.1513   31.7083 C.3     1  UNL1        0.1351
     10 C           5.9330   -2.2489   32.2883 C.3     1  UNL1        0.0418
     11 C           6.6544   -3.3520   31.5720 C.3     1  UNL1        0.0251
     12 C           6.7118   -3.6299   30.0992 C.3     1  UNL1        0.0951
     13 N           6.0621   -2.8735   28.9786 N.am    1  UNL1       -0.2641
     14 C           6.3132   -3.4091   27.6003 C.2     1  UNL1        0.3039
     15 O           7.1680   -4.6274   27.4133 O.2     1  UNL1       -0.2526
     16 N           5.7094   -2.7264   26.4088 N.am    1  UNL1       -0.2901
     17 C           5.1944   -1.6522   29.0543 C.3     1  UNL1        0.0985
     18 C           4.7623   -0.8858   30.2691 C.3     1  UNL1        0.0615
     19 O           5.3578   -1.3271   33.1739 O.3     1  UNL1       -0.4828
     20 H           5.1484   -1.9268   26.5316 H       1  UNL1        0.1509
     21 C           2.3997    3.4670   38.1253 C.3     1  UNL1        0.1816
     22 S           2.9914    2.5081   37.1351 S.O2    1  UNL1        0.0104
     23 O           3.9469    2.0168   38.1818 O.2     1  UNL1       -0.1686
     24 O           2.0359    2.9995   36.0884 O.2     1  UNL1       -0.1686
     25 C           5.9606   -3.2621   25.0304 C.3     1  UNL1        0.0774
     26 C           6.7458   -4.1388   24.1006 C.3     1  UNL1        0.0259
     27 C           5.6103   -3.3130   23.5727 C.3     1  UNL1        0.0420
     28 C           4.7524   -2.8656   22.4265 C.ar    1  UNL1       -0.0208
     29 C           4.7559   -3.6382   21.1408 C.ar    1  UNL1       -0.0042
     30 C           3.8979   -3.1908   19.9946 C.ar    1  UNL1       -0.0003
     31 C           3.0366   -1.9707   20.1341 C.ar    1  UNL1       -0.0000
     32 C           3.0331   -1.1981   21.4198 C.ar    1  UNL1       -0.0003
     33 C           3.8910   -1.6455   22.5660 C.ar    1  UNL1       -0.0042
@<TRIPOS>BOND
     1    21    22    1
     2    22    23    2
     3    22    24    2
     4    22     1    1
     5     1     2   ar
     6     2     3   ar
     7     3     4   ar
     8     4     5   ar
     9     5     6   ar
    10     5     7    1
    11     7     8    1
    12     8     9    1
    13     9    10    1
    14    10    11    1
    15    11    12    1
    16    12    13    1
    17    13    14   am
    18    14    15    2
    19    14    16   am
    20    25    16    1
    21    25    26    1
    22    26    27    1
    23    27    28    1
    24    28    29   ar
    25    29    30   ar
    26    30    31   ar
    27    31    32   ar
    28    32    33   ar
    29    13    17    1
    30    17    18    1
    31     9    19    1
    32     6     1   ar
    33    18     9    1
    34    19     4    1
    35    27    25    1
    36    33    28   ar
    37    16    20    1
@<TRIPOS>MOLECULE
*****
 33 37 0 0 0
SMALL
GASTEIGER

@<TRIPOS>ATOM
      1 C          -6.2696    5.8807   26.3831 C.ar    1  UNL1        0.1056
      2 C          -6.9645    6.0713   25.0675 C.ar    1  UNL1        0.0214
      3 C          -6.2771    5.6810   23.7928 C.ar    1  UNL1        0.0379
      4 C          -4.8947    5.1001   23.8335 C.ar    1  UNL1        0.1342
      5 C          -4.1998    4.9095   25.1491 C.ar    1  UNL1        0.0132
      6 C          -4.8873    5.2998   26.4239 C.ar    1  UNL1        0.0171
      7 C          -2.8175    4.3286   25.1899 C.3     1  UNL1        0.0330
      8 C          -2.1300    3.9383   23.9152 C.3     1  UNL1        0.0448
      9 C          -2.8249    4.1288   22.5996 C.3     1  UNL1        0.1351
     10 C          -3.6072    4.3608   21.3409 C.3     1  UNL1        0.0418
     11 C          -3.2038    4.0794   19.9238 C.3     1  UNL1        0.0251
     12 C          -1.9187    3.4966   19.4155 C.3     1  UNL1        0.0951
     13 N          -0.7193    3.0511   20.1985 N.am    1  UNL1       -0.2641
     14 C           0.4203    2.5062   19.3898 C.2     1  UNL1        0.3039
     15 O           0.3128    2.4346   17.8954 O.2     1  UNL1       -0.2526
     16 N           1.6677    2.0328   20.0755 N.am    1  UNL1       -0.2901
     17 C          -0.5090    3.0785   21.6835 C.3     1  UNL1        0.0985
     18 C          -1.4462    3.5582   22.7520 C.3     1  UNL1        0.0615
     19 O          -4.2073    4.7098   22.5588 O.3     1  UNL1       -0.4828
     20 H           1.7383    2.0798   21.0563 H       1  UNL1        0.1509
     21 C          -7.6445    6.6613   28.9327 C.3     1  UNL1        0.1816
     22 S          -6.9570    6.2710   27.6579 S.O2    1  UNL1        0.0104
     23 O          -5.6326    6.3074   28.3610 O.2     1  UNL1       -0.1686
     24 O          -8.2816    6.2346   26.9548 O.2     1  UNL1       -0.1686
     25 C           2.8075    1.4879   19.2666 C.3     1  UNL1        0.0774
     26 C           3.9421    1.7052   18.3100 C.3     1  UNL1        0.0259
     27 C           3.6468    0.3267   18.8225 C.3     1  UNL1        0.0420
     28 C           3.9608   -1.1395   18.8621 C.ar    1  UNL1       -0.0208
     29 C           5.1496   -1.6722   18.1185 C.ar    1  UNL1       -0.0042
     30 C           5.4636   -3.1385   18.1581 C.ar    1  UNL1       -0.0003
     31 C           4.5888   -4.0719   18.9412 C.ar    1  UNL1       -0.0000
     32 C           3.4000   -3.5392   19.6848 C.ar    1  UNL1       -0.0003
     33 C           3.0860   -2.0730   19.6452 C.ar    1  UNL1       -0.0042
@<TRIPOS>BOND
     1    21    22    1
     2    22    23    2
     3    22    24    2
     4    22     1    1
     5     1     2   ar
     6     2     3   ar
     7     3     4   ar
     8     4     5   ar
     9     5     6   ar
    10     5     7    1
    11     7     8    1
    12     8     9    1
    13     9    10    1
    14    10    11    1
    15    11    12    1
    16    12    13    1
    17    13    14   am
    18    14    15    2
    19    14    16   am
    20    25    16    1
    21    25    26    1
    22    26    27    1
    23    27    28    1
    24    28    29   ar
    25    29    30   ar
    26    30    31   ar
    27    31    32   ar
    28    32    33   ar
    29    13    17    1
    30    17    18    1
    31     9    19    1
    32     6     1   ar
    33    18     9    1
    34    19     4    1
    35    27    25    1
    36    33    28   ar
    37    16    20    1
@<TRIPOS>MOLECULE
*****
 33 37 0 0 0
SMALL
GASTEIGER

@<TRIPOS>ATOM
      1 C          -2.1414    3.8569   19.4158 C.ar    1  UNL1        0.1056
      2 C          -1.4587    3.9834   18.0862 C.ar    1  UNL1        0.0214
      3 C          -0.2014    3.2128   17.8124 C.ar    1  UNL1        0.0379
      4 C           0.3734    2.3155   18.8681 C.ar    1  UNL1        0.1342
      5 C          -0.3093    2.1890   20.1977 C.ar    1  UNL1        0.0132
      6 C          -1.5668    2.9597   20.4716 C.ar    1  UNL1        0.0171
      7 C           0.2654    1.2918   21.2535 C.3     1  UNL1        0.0330
      8 C           1.5228    0.5211   20.9798 C.3     1  UNL1        0.0448
      9 C           2.2055    0.6476   19.6501 C.3     1  UNL1        0.1351
     10 C           2.8072    0.8458   18.2904 C.3     1  UNL1        0.0418
     11 C           4.0470    0.2260   17.7170 C.3     1  UNL1        0.0251
     12 C           4.9912   -0.7450   18.3616 C.3     1  UNL1        0.0951
     13 N           4.9289   -1.3362   19.7388 N.am    1  UNL1       -0.2641
     14 C           6.0346   -2.2869   20.0896 C.2     1  UNL1        0.3039
     15 O           7.1087   -2.5907   19.0876 O.2     1  UNL1       -0.2526
     16 N           6.0664   -2.9340   21.4426 N.am    1  UNL1       -0.2901
     17 C           3.9069   -1.1022   20.8116 C.3     1  UNL1        0.0985
     18 C           2.6949   -0.2193   20.7720 C.3     1  UNL1        0.0615
     19 O           1.6308    1.5449   18.5943 O.3     1  UNL1       -0.4828
     20 H           5.3615   -2.7346   22.1003 H       1  UNL1        0.1509
     21 C          -4.6562    5.3983   19.9635 C.3     1  UNL1        0.1816
     22 S          -3.3989    4.6275   19.6897 S.O2    1  UNL1        0.0104
     23 O          -4.0062    3.4114   20.3236 O.2     1  UNL1       -0.1686
     24 O          -2.7914    5.8438   19.0557 O.2     1  UNL1       -0.1686
     25 C           7.1724   -3.8848   21.7934 C.3     1  UNL1        0.0774
     26 C           8.4821   -4.5345   21.4582 C.3     1  UNL1        0.0259
     27 C           7.7779   -4.8820   22.7362 C.3     1  UNL1        0.0420
     28 C           7.7209   -5.6583   24.0184 C.ar    1  UNL1       -0.0208
     29 C           7.0483   -5.0690   25.2227 C.ar    1  UNL1       -0.0042
     30 C           6.9913   -5.8454   26.5049 C.ar    1  UNL1       -0.0003
     31 C           7.6070   -7.2109   26.5828 C.ar    1  UNL1       -0.0000
     32 C           8.2796   -7.8002   25.3786 C.ar    1  UNL1       -0.0003
     33 C           8.3366   -7.0239   24.0964 C.ar    1  UNL1       -0.0042
@<TRIPOS>BOND
     1    21    22    1
     2    22    23    2
     3    22    24    2
     4    22     1    1
     5     1     2   ar
     6     2     3   ar
     7     3     4   ar
     8     4     5   ar
     9     5     6   ar
    10     5     7    1
    11     7     8    1
    12     8     9    1
    13     9    10    1
    14    10    11    1
    15    11    12    1
    16    12    13    1
    17    13    14   am
    18    14    15    2
    19    14    16   am
    20    25    16    1
    21    25    26    1
    22    26    27    1
    23    27    28    1
    24    28    29   ar
    25    29    30   ar
    26    30    31   ar
    27    31    32   ar
    28    32    33   ar
    29    13    17    1
    30    17    18    1
    31     9    19    1
    32     6     1   ar
    33    18     9    1
    34    19     4    1
    35    27    25    1
    36    33    28   ar
    37    16    20    1
@<TRIPOS>MOLECULE
*****
 33 37 0 0 0
SMALL
GASTEIGER

@<TRIPOS>ATOM
      1 C          -0.5699    3.2177   19.3431 C.ar    1  UNL1        0.1056
      2 C           0.0097    2.4783   18.1737 C.ar    1  UNL1        0.0214
      3 C           1.0031    1.3776   18.4000 C.ar    1  UNL1        0.0379
      4 C           1.4171    1.0161   19.7957 C.ar    1  UNL1        0.1342
      5 C           0.8376    1.7555   20.9651 C.ar    1  UNL1        0.0132
      6 C          -0.1559    2.8563   20.7387 C.ar    1  UNL1        0.0171
      7 C           1.2516    1.3941   22.3608 C.3     1  UNL1        0.0330
      8 C           2.2450    0.2933   22.5872 C.3     1  UNL1        0.0448
      9 C           2.8246   -0.4461   21.4178 C.3     1  UNL1        0.1351
     10 C           3.3417   -1.1203   20.1816 C.3     1  UNL1        0.0418
     11 C           4.3316   -2.2421   20.0727 C.3     1  UNL1        0.0251
     12 C           5.0487   -2.9666   21.1730 C.3     1  UNL1        0.0951
     13 N           4.9532   -2.7485   22.6540 N.am    1  UNL1       -0.2641
     14 C           5.8068   -3.6456   23.5004 C.2     1  UNL1        0.3039
     15 O           6.6815   -4.6780   22.8531 O.2     1  UNL1       -0.2526
     16 N           5.7857   -3.5102   24.9942 N.am    1  UNL1       -0.2901
     17 C           4.1168   -1.7518   23.4004 C.3     1  UNL1        0.0985
     18 C           3.1695   -0.7271   22.8501 C.3     1  UNL1        0.0615
     19 O           2.4106   -0.0847   20.0220 O.3     1  UNL1       -0.4828
     20 H           5.2116   -2.8326   25.4190 H       1  UNL1        0.1509
     21 C          -2.5569    5.4193   18.8907 C.3     1  UNL1        0.1816
     22 S          -1.5634    4.3185   19.1168 S.O2    1  UNL1        0.0104
     23 O          -0.6269    4.9627   18.1381 O.2     1  UNL1       -0.1686
     24 O          -2.4999    3.6743   20.0956 O.2     1  UNL1       -0.1686
     25 C           6.6394   -4.4074   25.8406 C.3     1  UNL1        0.0774
     26 C           7.6517   -5.5083   25.9548 C.3     1  UNL1        0.0259
     27 C           7.1056   -4.8603   27.1925 C.3     1  UNL1        0.0420
     28 C           7.0594   -4.7475   28.6875 C.ar    1  UNL1       -0.0208
     29 C           7.4932   -5.9026   29.5405 C.ar    1  UNL1       -0.0042
     30 C           7.4470   -5.7898   31.0356 C.ar    1  UNL1       -0.0003
     31 C           6.9671   -4.5220   31.6776 C.ar    1  UNL1       -0.0000
     32 C           6.5333   -3.3669   30.8246 C.ar    1  UNL1       -0.0003
     33 C           6.5795   -3.4797   29.3296 C.ar    1  UNL1       -0.0042
@<TRIPOS>BOND
     1    21    22    1
     2    22    23    2
     3    22    24    2
     4    22     1    1
     5     1     2   ar
     6     2     3   ar
     7     3     4   ar
     8     4     5   ar
     9     5     6   ar
    10     5     7    1
    11     7     8    1
    12     8     9    1
    13     9    10    1
    14    10    11    1
    15    11    12    1
    16    12    13    1
    17    13    14   am
    18    14    15    2
    19    14    16   am
    20    25    16    1
    21    25    26    1
    22    26    27    1
    23    27    28    1
    24    28    29   ar
    25    29    30   ar
    26    30    31   ar
    27    31    32   ar
    28    32    33   ar
    29    13    17    1
    30    17    18    1
    31     9    19    1
    32     6     1   ar
    33    18     9    1
    34    19     4    1
    35    27    25    1
    36    33    28   ar
    37    16    20    1
@<TRIPOS>MOLECULE
*****
 33 37 0 0 0
SMALL
GASTEIGER

@<TRIPOS>ATOM
      1 C           7.0662   -4.5075   23.7950 C.ar    1  UNL1        0.1056
      2 C           6.8680   -3.8252   25.1160 C.ar    1  UNL1        0.0214
      3 C           5.8413   -2.7404   25.2532 C.ar    1  UNL1        0.0379
      4 C           5.0126   -2.3378   24.0694 C.ar    1  UNL1        0.1342
      5 C           5.2108   -3.0202   22.7484 C.ar    1  UNL1        0.0132
      6 C           6.2376   -4.1051   22.6112 C.ar    1  UNL1        0.0171
      7 C           4.3822   -2.6178   21.5646 C.3     1  UNL1        0.0330
      8 C           3.3554   -1.5329   21.7017 C.3     1  UNL1        0.0448
      9 C           3.1572   -0.8506   23.0227 C.3     1  UNL1        0.1351
     10 C           3.0397   -0.2343   24.3852 C.3     1  UNL1        0.0418
     11 C           2.1196    0.8594   24.8408 C.3     1  UNL1        0.0251
     12 C           1.0900    1.6067   24.0464 C.3     1  UNL1        0.0951
     13 N           0.7259    1.4452   22.6002 N.am    1  UNL1       -0.2641
     14 C          -0.3571    2.3524   22.0964 C.2     1  UNL1        0.3039
     15 O          -1.0004    3.3398   23.0244 O.2     1  UNL1       -0.2526
     16 N          -0.7968    2.2724   20.6645 N.am    1  UNL1       -0.2901
     17 C           1.3017    0.4962   21.5913 C.3     1  UNL1        0.0985
     18 C           2.3838   -0.5254   21.7794 C.3     1  UNL1        0.0615
     19 O           3.9858   -1.2530   24.2066 O.3     1  UNL1       -0.4828
     20 H          -0.3746    1.6243   20.0554 H       1  UNL1        0.1509
     21 C           9.1197   -6.6773   23.5206 C.3     1  UNL1        0.1816
     22 S           8.0929   -5.5924   23.6577 S.O2    1  UNL1        0.0104
     23 O           8.0325   -5.4609   22.1648 O.2     1  UNL1       -0.1686
     24 O           8.1534   -5.7240   25.1508 O.2     1  UNL1       -0.1686
     25 C          -1.8799    3.1797   20.1606 C.3     1  UNL1        0.0774
     26 C          -2.4010    4.1288   19.1227 C.3     1  UNL1        0.0259
     27 C          -3.2346    3.8020   20.3261 C.3     1  UNL1        0.0420
     28 C          -4.4980    3.9726   21.1164 C.ar    1  UNL1       -0.0208
     29 C          -5.6775    4.6682   20.5043 C.ar    1  UNL1       -0.0042
     30 C          -6.9410    4.8388   21.2947 C.ar    1  UNL1       -0.0003
     31 C          -7.0248    4.3137   22.6972 C.ar    1  UNL1       -0.0000
     32 C          -5.8452    3.6181   23.3094 C.ar    1  UNL1       -0.0003
     33 C          -4.5819    3.4476   22.5191 C.ar    1  UNL1       -0.0042
@<TRIPOS>BOND
     1    21    22    1
     2    22    23    2
     3    22    24    2
     4    22     1    1
     5     1     2   ar
     6     2     3   ar
     7     3     4   ar
     8     4     5   ar
     9     5     6   ar
    10     5     7    1
    11     7     8    1
    12     8     9    1
    13     9    10    1
    14    10    11    1
    15    11    12    1
    16    12    13    1
    17    13    14   am
    18    14    15    2
    19    14    16   am
    20    25    16    1
    21    25    26    1
    22    26    27    1
    23    27    28    1
    24    28    29   ar
    25    29    30   ar
    26    30    31   ar
    27    31    32   ar
    28    32    33   ar
    29    13    17    1
    30    17    18    1
    31     9    19    1
    32     6     1   ar
    33    18     9    1
    34    19     4    1
    35    27    25    1
    36    33    28   ar
    37    16    20    1
@<TRIPOS>MOLECULE
*****
 33 37 0 0 0
SMALL
GASTEIGER

@<TRIPOS>ATOM
      1 C           3.1928   -0.7280   23.1878 C.ar    1  UNL1        0.1056
      2 C           2.1111    0.2894   23.3994 C.ar    1  UNL1        0.0214
      3 C           1.8124    0.7900   24.7814 C.ar    1  UNL1        0.0379
      4 C           2.5955    0.2734   25.9519 C.ar    1  UNL1        0.1342
      5 C           3.6772   -0.7439   25.7403 C.ar    1  UNL1        0.0132
      6 C           3.9759   -1.2447   24.3582 C.ar    1  UNL1        0.0171
      7 C           4.4603   -1.2606   26.9107 C.3     1  UNL1        0.0330
      8 C           4.1616   -0.7599   28.2927 C.3     1  UNL1        0.0448
      9 C           3.0799    0.2574   28.5044 C.3     1  UNL1        0.1351
     10 C           1.9802    1.2727   28.6053 C.3     1  UNL1        0.0418
     11 C           1.4494    1.9579   29.8296 C.3     1  UNL1        0.0251
     12 C           1.8872    1.7972   31.2551 C.3     1  UNL1        0.0951
     13 N           2.9639    0.9115   31.8087 N.am    1  UNL1       -0.2641
     14 C           3.1619    0.9783   33.2941 C.2     1  UNL1        0.3039
     15 O           2.3086    1.8910   34.1241 O.2     1  UNL1       -0.2526
     16 N           4.2132    0.1325   33.9494 N.am    1  UNL1       -0.2901
     17 C           3.8687   -0.0322   31.0733 C.3     1  UNL1        0.0985
     18 C           3.9202   -0.3232   29.6027 C.3     1  UNL1        0.0615
     19 O           2.2968    0.7741   27.3339 O.3     1  UNL1       -0.4828
     20 H           4.7733   -0.4664   33.4046 H       1  UNL1        0.1509
     21 C           3.7903   -1.7296   20.4238 C.3     1  UNL1        0.1816
     22 S           3.4916   -1.2287   21.8057 S.O2    1  UNL1        0.0104
     23 O           3.0630    0.0905   21.2350 O.2     1  UNL1       -0.1686
     24 O           3.9201   -2.5481   22.3765 O.2     1  UNL1       -0.1686
     25 C           4.4112    0.1994   35.4348 C.3     1  UNL1        0.0774
     26 C           5.2542   -0.0681   36.6463 C.3     1  UNL1        0.0259
     27 C           3.9112    0.5829   36.7960 C.3     1  UNL1        0.0420
     28 C           2.8470    1.1801   37.6683 C.ar    1  UNL1       -0.0208
     29 C           2.1825    0.3429   38.7206 C.ar    1  UNL1       -0.0042
     30 C           1.1184    0.9402   39.5929 C.ar    1  UNL1       -0.0003
     31 C           0.7187    2.3747   39.4128 C.ar    1  UNL1       -0.0000
     32 C           1.3832    3.2119   38.3604 C.ar    1  UNL1       -0.0003
     33 C           2.4473    2.6146   37.4881 C.ar    1  UNL1       -0.0042
@<TRIPOS>BOND
     1    21    22    1
     2    22    23    2
     3    22    24    2
     4    22     1    1
     5     1     2   ar
     6     2     3   ar
     7     3     4   ar
     8     4     5   ar
     9     5     6   ar
    10     5     7    1
    11     7     8    1
    12     8     9    1
    13     9    10    1
    14    10    11    1
    15    11    12    1
    16    12    13    1
    17    13    14   am
    18    14    15    2
    19    14    16   am
    20    25    16    1
    21    25    26    1
    22    26    27    1
    23    27    28    1
    24    28    29   ar
    25    29    30   ar
    26    30    31   ar
    27    31    32   ar
    28    32    33   ar
    29    13    17    1
    30    17    18    1
    31     9    19    1
    32     6     1   ar
    33    18     9    1
    34    19     4    1
    35    27    25    1
    36    33    28   ar
    37    16    20    1
@<TRIPOS>MOLECULE
*****
 33 37 0 0 0
SMALL
GASTEIGER

@<TRIPOS>ATOM
      1 C           4.5918    0.0655   34.5959 C.ar    1  UNL1        0.1056
      2 C           5.6988   -0.8881   34.2567 C.ar    1  UNL1        0.0214
      3 C           5.9116   -1.3151   32.8347 C.ar    1  UNL1        0.0379
      4 C           5.0173   -0.7885   31.7516 C.ar    1  UNL1        0.1342
      5 C           3.9102    0.1652   32.0907 C.ar    1  UNL1        0.0132
      6 C           3.6975    0.5922   33.5129 C.ar    1  UNL1        0.0171
      7 C           3.0159    0.6918   31.0078 C.3     1  UNL1        0.0330
      8 C           3.2286    0.2649   29.5857 C.3     1  UNL1        0.0448
      9 C           4.3356   -0.6887   29.2465 C.3     1  UNL1        0.1351
     10 C           5.4691   -1.6441   29.0165 C.3     1  UNL1        0.0418
     11 C           5.9336   -2.2505   27.7255 C.3     1  UNL1        0.0251
     12 C           5.3795   -2.0515   26.3460 C.3     1  UNL1        0.0951
     13 N           4.2240   -1.1968   25.9165 N.am    1  UNL1       -0.2641
     14 C           3.9143   -1.2107   24.4489 C.2     1  UNL1        0.3039
     15 O           4.7410   -2.0449   23.5158 O.2     1  UNL1       -0.2526
     16 N           2.7779   -0.3903   23.9143 N.am    1  UNL1       -0.2901
     17 C           3.3372   -0.3301   26.7606 C.3     1  UNL1        0.0985
     18 C           3.3870   -0.1041   28.2426 C.3     1  UNL1        0.0615
     19 O           5.2300   -1.2154   30.3295 O.3     1  UNL1       -0.4828
     20 H           2.2353    0.1572   24.5267 H       1  UNL1        0.1509
     21 C           4.1661    0.9197   37.4401 C.3     1  UNL1        0.1816
     22 S           4.3790    0.4925   36.0180 S.O2    1  UNL1        0.0104
     23 O           5.3472   -0.5567   36.4780 O.2     1  UNL1       -0.1686
     24 O           3.4107    1.5419   35.5579 O.2     1  UNL1       -0.1686
     25 C           2.4683   -0.4043   22.4466 C.3     1  UNL1        0.0774
     26 C           1.5991    0.0151   21.2984 C.3     1  UNL1        0.0259
     27 C           2.8013   -0.8477   21.0529 C.3     1  UNL1        0.0420
     28 C           3.6876   -1.6019   20.1066 C.ar    1  UNL1       -0.0208
     29 C           3.4554   -3.0641   19.8655 C.ar    1  UNL1       -0.0042
     30 C           4.3418   -3.8182   18.9192 C.ar    1  UNL1       -0.0003
     31 C           5.4604   -3.1103   18.2140 C.ar    1  UNL1       -0.0000
     32 C           5.6927   -1.6481   18.4551 C.ar    1  UNL1       -0.0003
     33 C           4.8063   -0.8939   19.4014 C.ar    1  UNL1       -0.0042
@<TRIPOS>BOND
     1    21    22    1
     2    22    23    2
     3    22    24    2
     4    22     1    1
     5     1     2   ar
     6     2     3   ar
     7     3     4   ar
     8     4     5   ar
     9     5     6   ar
    10     5     7    1
    11     7     8    1
    12     8     9    1
    13     9    10    1
    14    10    11    1
    15    11    12    1
    16    12    13    1
    17    13    14   am
    18    14    15    2
    19    14    16   am
    20    25    16    1
    21    25    26    1
    22    26    27    1
    23    27    28    1
    24    28    29   ar
    25    29    30   ar
    26    30    31   ar
    27    31    32   ar
    28    32    33   ar
    29    13    17    1
    30    17    18    1
    31     9    19    1
    32     6     1   ar
    33    18     9    1
    34    19     4    1
    35    27    25    1
    36    33    28   ar
    37    16    20    1
@<TRIPOS>MOLECULE
*****
 33 37 0 0 0
SMALL
GASTEIGER

@<TRIPOS>ATOM
      1 C           3.3560    1.4174   35.0427 C.ar    1  UNL1        0.1056
      2 C           2.4137    2.4335   34.4686 C.ar    1  UNL1        0.0214
      3 C           2.1305    2.4458   32.9957 C.ar    1  UNL1        0.0379
      4 C           2.7896    1.4420   32.0967 C.ar    1  UNL1        0.1342
      5 C           3.7319    0.4259   32.6708 C.ar    1  UNL1        0.0132
      6 C           4.0151    0.4136   34.1439 C.ar    1  UNL1        0.0171
      7 C           4.3910   -0.5779   31.7720 C.3     1  UNL1        0.0330
      8 C           4.1078   -0.5656   30.2990 C.3     1  UNL1        0.0448
      9 C           3.1655    0.4505   29.7249 C.3     1  UNL1        0.1351
     10 C           2.2096    1.5066   29.2548 C.3     1  UNL1        0.0418
     11 C           1.7278    1.7781   27.8604 C.3     1  UNL1        0.0251
     12 C           2.0828    1.0606   26.5920 C.3     1  UNL1        0.0951
     13 N           3.0073   -0.1056   26.4044 N.am    1  UNL1       -0.2641
     14 C           3.1533   -0.6005   24.9960 C.2     1  UNL1        0.3039
     15 O           2.3985    0.0666   23.8846 O.2     1  UNL1       -0.2526
     16 N           4.0541   -1.7626   24.6989 N.am    1  UNL1       -0.2901
     17 C           3.8052   -0.8424   27.4391 C.3     1  UNL1        0.0985
     18 C           3.8755   -0.5948   28.9169 C.3     1  UNL1        0.0615
     19 O           2.5064    1.4543   30.6238 O.3     1  UNL1       -0.4828
     20 H           4.5495   -2.2005   25.4284 H       1  UNL1        0.1509
     21 C           3.9224    1.3928   37.9886 C.3     1  UNL1        0.1816
     22 S           3.6393    1.4051   36.5157 S.O2    1  UNL1        0.0104
     23 O           4.9355    0.6947   36.2605 O.2     1  UNL1       -0.1686
     24 O           2.3430    2.1155   36.7708 O.2     1  UNL1       -0.1686
     25 C           4.2001   -2.2575   23.2904 C.3     1  UNL1        0.0774
     26 C           4.6939   -3.2900   22.3210 C.3     1  UNL1        0.0259
     27 C           3.9590   -2.0820   21.8203 C.3     1  UNL1        0.0420
     28 C           3.3955   -1.2832   20.6826 C.ar    1  UNL1       -0.0208
     29 C           4.2965   -0.8067   19.5821 C.ar    1  UNL1       -0.0042
     30 C           3.7329   -0.0078   18.4444 C.ar    1  UNL1       -0.0003
     31 C           2.2685    0.3144   18.4072 C.ar    1  UNL1       -0.0000
     32 C           1.3675   -0.1622   19.5077 C.ar    1  UNL1       -0.0003
     33 C           1.9310   -0.9610   20.6454 C.ar    1  UNL1       -0.0042
@<TRIPOS>BOND
     1    21    22    1
     2    22    23    2
     3    22    24    2
     4    22     1    1
     5     1     2   ar
     6     2     3   ar
     7     3     4   ar
     8     4     5   ar
     9     5     6   ar
    10     5     7    1
    11     7     8    1
    12     8     9    1
    13     9    10    1
    14    10    11    1
    15    11    12    1
    16    12    13    1
    17    13    14   am
    18    14    15    2
    19    14    16   am
    20    25    16    1
    21    25    26    1
    22    26    27    1
    23    27    28    1
    24    28    29   ar
    25    29    30   ar
    26    30    31   ar
    27    31    32   ar
    28    32    33   ar
    29    13    17    1
    30    17    18    1
    31     9    19    1
    32     6     1   ar
    33    18     9    1
    34    19     4    1
    35    27    25    1
    36    33    28   ar
    37    16    20    1
