@<TRIPOS>MOLECULE
*****
 34 38 0 0 0
SMALL
GASTEIGER

@<TRIPOS>ATOM
      1 C           7.7070   -4.7253   22.8765 C.ar    1  UNL1        0.0503
      2 C           7.0440   -4.3880   24.1790 C.ar    1  UNL1        0.0143
      3 C           7.1484   -5.3318   25.3402 C.ar    1  UNL1       -0.0029
      4 C           7.9159   -6.6128   25.1989 C.ar    1  UNL1       -0.0208
      5 C           8.5790   -6.9501   23.8963 C.ar    1  UNL1       -0.0029
      6 C           8.4746   -6.0063   22.7351 C.ar    1  UNL1        0.0143
      7 O           5.0885   -4.3821   21.4532 O.2     1  UNL1       -0.2744
      8 C           6.2933   -3.6099   21.0036 C.2     1  UNL1        0.2313
      9 N           7.6026   -3.7815   21.7152 N.am    1  UNL1       -0.2836
     10 H           8.3934   -3.2747   21.4202 H       1  UNL1        0.1549
     11 C           6.1889   -2.6662   19.8424 C.3     1  UNL1        0.1173
     12 C           7.2775   -2.3553   18.8582 C.3     1  UNL1        0.0204
     13 C           6.7389   -1.3645   17.8691 C.3     1  UNL1        0.0351
     14 C           5.3176   -1.0631   18.2418 C.ar    1  UNL1        0.0227
     15 S           4.1063   -0.2645   17.8608 S.2     1  UNL1       -0.0692
     16 C           3.0178   -0.5754   18.8450 C.ar    1  UNL1        0.1338
     17 N           3.5563   -1.5662   19.8342 N.ar    1  UNL1       -0.2405
     18 C           4.9777   -1.8676   19.4614 C.ar    1  UNL1        0.0699
     19 C           8.0203   -7.5566   26.3601 C.3     1  UNL1        0.0420
     20 C           8.1871   -7.0193   27.7506 C.3     1  UNL1        0.0585
     21 C           9.4762   -6.9281   28.5118 C.3     1  UNL1        0.0175
     22 C           9.1799   -6.3313   29.8556 C.3     1  UNL1        0.0199
     23 C           7.7075   -6.0537   29.9250 C.3     1  UNL1        0.0856
     24 N           7.0938   -6.4789   28.6240 N.3     1  UNL1       -0.2971
     25 H           6.6529   -5.6783   28.1712 H       1  UNL1        0.1233
     26 C           6.9769   -5.4559   31.0907 C.3     1  UNL1        0.1484
     27 O           6.5902   -6.3180   32.2557 O.3     1  UNL1       -0.3786
     28 H           6.1287   -5.7795   32.9174 H       1  UNL1        0.2108
     29 C           6.6329   -3.9958   31.0914 C.ar    1  UNL1        0.0247
     30 C           6.2588   -3.3141   32.3742 C.ar    1  UNL1        0.0012
     31 C           5.9148   -1.8540   32.3749 C.ar    1  UNL1        0.0204
     32 C           5.9450   -1.0757   31.0930 C.ar    1  UNL1        0.0989
     33 N           6.3192   -1.7575   29.8103 N.ar    1  UNL1       -0.2426
     34 C           6.6631   -3.2175   29.8095 C.ar    1  UNL1        0.0969
@<TRIPOS>BOND
     1     7     8    2
     2     8     9   am
     3     9     1    1
     4     1     2   ar
     5     2     3   ar
     6     3     4   ar
     7     4    19    1
     8    20    19    1
     9    20    21    1
    10    21    22    1
    11    23    22    1
    12    23    26    1
    13    26    27    1
    14    26    29    1
    15    29    30   ar
    16    30    31   ar
    17    31    32   ar
    18    32    33   ar
    19    33    34   ar
    20    23    24    1
    21     4     5   ar
    22     5     6   ar
    23    11     8    1
    24    11    12    1
    25    12    13    1
    26    13    14    1
    27    14    15   ar
    28    15    16   ar
    29    16    17   ar
    30    17    18   ar
    31     6     1   ar
    32    18    11    1
    33    24    20    1
    34    18    14   ar
    35    34    29   ar
    36     9    10    1
    37    27    28    1
    38    24    25    1
@<TRIPOS>MOLECULE
*****
 34 38 0 0 0
SMALL
GASTEIGER

@<TRIPOS>ATOM
      1 C           7.3413   -3.9802   25.1395 C.ar    1  UNL1        0.0503
      2 C           6.1244   -3.4838   24.4167 C.ar    1  UNL1        0.0143
      3 C           6.0669   -3.5394   22.9189 C.ar    1  UNL1       -0.0029
      4 C           7.2264   -4.0914   22.1438 C.ar    1  UNL1       -0.0208
      5 C           8.4435   -4.5879   22.8666 C.ar    1  UNL1       -0.0029
      6 C           8.5009   -4.5323   24.3645 C.ar    1  UNL1        0.0143
      7 O           6.4357   -6.3343   26.7638 O.2     1  UNL1       -0.2744
      8 C           6.9460   -5.1017   27.4496 C.2     1  UNL1        0.2313
      9 N           7.3988   -3.9246   26.6374 N.am    1  UNL1       -0.2836
     10 H           7.7337   -3.1156   27.0875 H       1  UNL1        0.1549
     11 C           7.0034   -5.0460   28.9474 C.3     1  UNL1        0.1173
     12 C           7.4302   -6.1612   29.8554 C.3     1  UNL1        0.0204
     13 C           7.3347   -5.6698   31.2695 C.3     1  UNL1        0.0351
     14 C           6.8490   -4.2511   31.2354 C.ar    1  UNL1        0.0227
     15 S           6.4898   -3.0706   32.0883 S.2     1  UNL1       -0.0692
     16 C           6.0631   -1.9555   31.1803 C.ar    1  UNL1        0.1338
     17 N           6.1585   -2.4468   29.7663 N.ar    1  UNL1       -0.2405
     18 C           6.6442   -3.8656   29.8003 C.ar    1  UNL1        0.0699
     19 C           7.1690   -4.1470   20.6459 C.3     1  UNL1        0.0420
     20 C           5.9150   -3.7446   19.9280 C.3     1  UNL1        0.0585
     21 C           4.6868   -4.5887   19.7581 C.3     1  UNL1        0.0175
     22 C           3.6817   -3.7932   18.9791 C.3     1  UNL1        0.0199
     23 C           4.2887   -2.4574   18.6675 C.3     1  UNL1        0.0856
     24 N           5.6690   -2.4274   19.2540 N.3     1  UNL1       -0.2971
     25 H           5.7393   -1.6715   19.9352 H       1  UNL1        0.1233
     26 C           3.6310   -1.3466   17.9035 C.3     1  UNL1        0.1484
     27 O           3.8221   -1.2414   16.4194 O.3     1  UNL1       -0.3786
     28 H           3.3330   -0.4738   16.0841 H       1  UNL1        0.2108
     29 C           2.7823   -0.3411   18.6235 C.ar    1  UNL1        0.0247
     30 C           1.9227   -0.7722   19.7749 C.ar    1  UNL1        0.0012
     31 C           1.0740    0.2334   20.4949 C.ar    1  UNL1        0.0204
     32 C           1.0848    1.6700   20.0638 C.ar    1  UNL1        0.0989
     33 N           1.9444    2.1011   18.9125 N.ar    1  UNL1       -0.2426
     34 C           2.7931    1.0956   18.1924 C.ar    1  UNL1        0.0969
@<TRIPOS>BOND
     1     7     8    2
     2     8     9   am
     3     9     1    1
     4     1     2   ar
     5     2     3   ar
     6     3     4   ar
     7     4    19    1
     8    20    19    1
     9    20    21    1
    10    21    22    1
    11    23    22    1
    12    23    26    1
    13    26    27    1
    14    26    29    1
    15    29    30   ar
    16    30    31   ar
    17    31    32   ar
    18    32    33   ar
    19    33    34   ar
    20    23    24    1
    21     4     5   ar
    22     5     6   ar
    23    11     8    1
    24    11    12    1
    25    12    13    1
    26    13    14    1
    27    14    15   ar
    28    15    16   ar
    29    16    17   ar
    30    17    18   ar
    31     6     1   ar
    32    18    11    1
    33    24    20    1
    34    18    14   ar
    35    34    29   ar
    36     9    10    1
    37    27    28    1
    38    24    25    1
@<TRIPOS>MOLECULE
*****
 34 38 0 0 0
SMALL
GASTEIGER

@<TRIPOS>ATOM
      1 C           6.5054   -3.5790   25.5856 C.ar    1  UNL1        0.0503
      2 C           6.5871   -4.9695   26.1422 C.ar    1  UNL1        0.0143
      3 C           7.1255   -5.1937   27.5241 C.ar    1  UNL1       -0.0029
      4 C           7.5822   -4.0275   28.3495 C.ar    1  UNL1       -0.0208
      5 C           7.5005   -2.6369   27.7930 C.ar    1  UNL1       -0.0029
      6 C           6.9621   -2.4127   26.4110 C.ar    1  UNL1        0.0143
      7 O           4.1146   -1.8137   25.1755 O.2     1  UNL1       -0.2744
      8 C           4.7715   -2.4720   23.9986 C.2     1  UNL1        0.2313
      9 N           5.9669   -3.3547   24.2037 N.am    1  UNL1       -0.2836
     10 H           6.3981   -3.7868   23.4313 H       1  UNL1        0.1549
     11 C           4.2330   -2.2478   22.6167 C.3     1  UNL1        0.1173
     12 C           3.2679   -1.1738   22.2100 C.3     1  UNL1        0.0204
     13 C           3.0036   -1.3204   20.7407 C.3     1  UNL1        0.0351
     14 C           3.8053   -2.4848   20.2394 C.ar    1  UNL1        0.0227
     15 S           4.1374   -3.2951   19.0215 S.2     1  UNL1       -0.0692
     16 C           5.1024   -4.3689   19.4282 C.ar    1  UNL1        0.1338
     17 N           5.3668   -4.2224   20.8974 N.ar    1  UNL1       -0.2405
     18 C           4.5651   -3.0580   21.3988 C.ar    1  UNL1        0.0699
     19 C           8.1207   -4.2518   29.7315 C.3     1  UNL1        0.0420
     20 C           7.5296   -3.5134   30.8957 C.3     1  UNL1        0.0585
     21 C           8.2540   -2.5501   31.7884 C.3     1  UNL1        0.0175
     22 C           7.2825   -2.0500   32.8160 C.3     1  UNL1        0.0199
     23 C           5.9576   -2.7044   32.5584 C.3     1  UNL1        0.0856
     24 N           6.1104   -3.6088   31.3715 N.3     1  UNL1       -0.2971
     25 H           5.4758   -3.3155   30.6288 H       1  UNL1        0.1233
     26 C           4.7006   -2.4917   33.3488 C.3     1  UNL1        0.1484
     27 O           3.7824   -3.6457   33.6225 O.3     1  UNL1       -0.3786
     28 H           3.0228   -3.3385   34.1416 H       1  UNL1        0.2108
     29 C           4.3619   -1.1249   33.8656 C.ar    1  UNL1        0.0247
     30 C           4.7874   -0.7179   35.2453 C.ar    1  UNL1        0.0012
     31 C           4.4486    0.6489   35.7621 C.ar    1  UNL1        0.0204
     32 C           3.6844    1.6088   34.8992 C.ar    1  UNL1        0.0989
     33 N           3.2590    1.2019   33.5195 N.ar    1  UNL1       -0.2426
     34 C           3.5977   -0.1649   33.0027 C.ar    1  UNL1        0.0969
@<TRIPOS>BOND
     1     7     8    2
     2     8     9   am
     3     9     1    1
     4     1     2   ar
     5     2     3   ar
     6     3     4   ar
     7     4    19    1
     8    20    19    1
     9    20    21    1
    10    21    22    1
    11    23    22    1
    12    23    26    1
    13    26    27    1
    14    26    29    1
    15    29    30   ar
    16    30    31   ar
    17    31    32   ar
    18    32    33   ar
    19    33    34   ar
    20    23    24    1
    21     4     5   ar
    22     5     6   ar
    23    11     8    1
    24    11    12    1
    25    12    13    1
    26    13    14    1
    27    14    15   ar
    28    15    16   ar
    29    16    17   ar
    30    17    18   ar
    31     6     1   ar
    32    18    11    1
    33    24    20    1
    34    18    14   ar
    35    34    29   ar
    36     9    10    1
    37    27    28    1
    38    24    25    1
@<TRIPOS>MOLECULE
*****
 34 38 0 0 0
SMALL
GASTEIGER

@<TRIPOS>ATOM
      1 C           6.7861   -4.0143   25.5768 C.ar    1  UNL1        0.0503
      2 C           6.8590   -2.8368   26.5033 C.ar    1  UNL1        0.0143
      3 C           7.2142   -3.0390   27.9465 C.ar    1  UNL1       -0.0029
      4 C           7.4965   -4.4185   28.4634 C.ar    1  UNL1       -0.0208
      5 C           7.4235   -5.5960   27.5369 C.ar    1  UNL1       -0.0029
      6 C           7.0683   -5.3939   26.0937 C.ar    1  UNL1        0.0143
      7 O           8.9148   -3.2704   23.5982 O.2     1  UNL1       -0.2744
      8 C           7.4953   -3.4402   23.1442 C.2     1  UNL1        0.2313
      9 N           6.4309   -3.8121   24.1336 N.am    1  UNL1       -0.2836
     10 H           5.4992   -3.9236   23.8357 H       1  UNL1        0.1549
     11 C           7.1401   -3.2381   21.7010 C.3     1  UNL1        0.1173
     12 C           7.9634   -2.5032   20.6849 C.3     1  UNL1        0.0204
     13 C           7.2314   -2.5463   19.3764 C.3     1  UNL1        0.0351
     14 C           5.9558   -3.3078   19.5836 C.ar    1  UNL1        0.0227
     15 S           4.7150   -3.8050   18.9030 S.2     1  UNL1       -0.0692
     16 C           3.8918   -4.5399   19.9190 C.ar    1  UNL1        0.1338
     17 N           4.6238   -4.4968   21.2276 N.ar    1  UNL1       -0.2405
     18 C           5.8994   -3.7353   21.0203 C.ar    1  UNL1        0.0699
     19 C           7.8516   -4.6206   29.9066 C.3     1  UNL1        0.0420
     20 C           7.2844   -3.7083   30.9535 C.3     1  UNL1        0.0585
     21 C           7.9663   -2.5081   31.5402 C.3     1  UNL1        0.0175
     22 C           7.0390   -1.8941   32.5468 C.3     1  UNL1        0.0199
     23 C           5.7840   -2.7148   32.5820 C.3     1  UNL1        0.0856
     24 N           5.9357   -3.8361   31.5973 N.3     1  UNL1       -0.2971
     25 H           5.2059   -3.7744   30.8873 H       1  UNL1        0.1233
     26 C           4.5874   -2.4592   33.4497 C.3     1  UNL1        0.1484
     27 O           3.6244   -3.5706   33.7457 O.3     1  UNL1       -0.3786
     28 H           2.9134   -3.2390   34.3162 H       1  UNL1        0.2108
     29 C           4.3537   -1.0923   34.0214 C.ar    1  UNL1        0.0247
     30 C           4.7853   -0.7821   35.4241 C.ar    1  UNL1        0.0012
     31 C           4.5516    0.5849   35.9958 C.ar    1  UNL1        0.0204
     32 C           3.8864    1.6417   35.1647 C.ar    1  UNL1        0.0989
     33 N           3.4549    1.3315   33.7620 N.ar    1  UNL1       -0.2426
     34 C           3.6886   -0.0354   33.1903 C.ar    1  UNL1        0.0969
@<TRIPOS>BOND
     1     7     8    2
     2     8     9   am
     3     9     1    1
     4     1     2   ar
     5     2     3   ar
     6     3     4   ar
     7     4    19    1
     8    20    19    1
     9    20    21    1
    10    21    22    1
    11    23    22    1
    12    23    26    1
    13    26    27    1
    14    26    29    1
    15    29    30   ar
    16    30    31   ar
    17    31    32   ar
    18    32    33   ar
    19    33    34   ar
    20    23    24    1
    21     4     5   ar
    22     5     6   ar
    23    11     8    1
    24    11    12    1
    25    12    13    1
    26    13    14    1
    27    14    15   ar
    28    15    16   ar
    29    16    17   ar
    30    17    18   ar
    31     6     1   ar
    32    18    11    1
    33    24    20    1
    34    18    14   ar
    35    34    29   ar
    36     9    10    1
    37    27    28    1
    38    24    25    1
@<TRIPOS>MOLECULE
*****
 34 38 0 0 0
SMALL
GASTEIGER

@<TRIPOS>ATOM
      1 C           0.9393    1.1177   19.3433 C.ar    1  UNL1        0.0503
      2 C           0.5814    2.0769   18.2471 C.ar    1  UNL1        0.0143
      3 C          -0.3575    3.2139   18.5222 C.ar    1  UNL1       -0.0029
      4 C          -0.9386    3.3917   19.8935 C.ar    1  UNL1       -0.0208
      5 C          -0.5807    2.4325   20.9899 C.ar    1  UNL1       -0.0029
      6 C           0.3582    1.2955   20.7148 C.ar    1  UNL1        0.0143
      7 O           3.8816    1.6351   19.0688 O.2     1  UNL1       -0.2744
      8 C           3.3494    0.2395   18.9309 C.2     1  UNL1        0.2313
      9 N           1.8783   -0.0192   19.0682 N.am    1  UNL1       -0.2836
     10 H           1.5290   -0.9352   18.9778 H       1  UNL1        0.1549
     11 C           4.2884   -0.8975   18.6559 C.3     1  UNL1        0.1173
     12 C           5.6600   -0.7836   18.0592 C.3     1  UNL1        0.0204
     13 C           6.2399   -2.1637   17.9637 C.3     1  UNL1        0.0351
     14 C           5.2268   -3.1305   18.5013 C.ar    1  UNL1        0.0227
     15 S           4.9591   -4.5809   18.7746 S.2     1  UNL1       -0.0692
     16 C           3.5876   -4.6947   19.3712 C.ar    1  UNL1        0.1338
     17 N           3.0076   -3.3146   19.4667 N.ar    1  UNL1       -0.2405
     18 C           4.0207   -2.3479   18.9291 C.ar    1  UNL1        0.0699
     19 C          -1.8776    4.5286   20.1686 C.3     1  UNL1        0.0420
     20 C          -3.2980    4.2499   20.5618 C.3     1  UNL1        0.0585
     21 C          -4.3548    3.6505   19.6823 C.3     1  UNL1        0.0175
     22 C          -5.6210    3.5518   20.4804 C.3     1  UNL1        0.0199
     23 C          -5.3467    4.0903   21.8533 C.3     1  UNL1        0.0856
     24 N          -3.9109    4.5217   21.9035 N.3     1  UNL1       -0.2971
     25 H          -3.4162    3.9949   22.6233 H       1  UNL1        0.1233
     26 C          -6.3346    4.1813   22.9783 C.3     1  UNL1        0.1484
     27 O          -7.7722    3.8227   22.7449 O.3     1  UNL1       -0.3786
     28 H          -8.2716    3.9357   23.5688 H       1  UNL1        0.2108
     29 C          -5.8848    4.6310   24.3368 C.ar    1  UNL1        0.0247
     30 C          -5.0038    3.7448   25.1667 C.ar    1  UNL1        0.0012
     31 C          -4.5541    4.1944   26.5252 C.ar    1  UNL1        0.0204
     32 C          -4.9853    5.5303   27.0539 C.ar    1  UNL1        0.0989
     33 N          -5.8663    6.4165   26.2240 N.ar    1  UNL1       -0.2426
     34 C          -6.3161    5.9669   24.8655 C.ar    1  UNL1        0.0969
@<TRIPOS>BOND
     1     7     8    2
     2     8     9   am
     3     9     1    1
     4     1     2   ar
     5     2     3   ar
     6     3     4   ar
     7     4    19    1
     8    20    19    1
     9    20    21    1
    10    21    22    1
    11    23    22    1
    12    23    26    1
    13    26    27    1
    14    26    29    1
    15    29    30   ar
    16    30    31   ar
    17    31    32   ar
    18    32    33   ar
    19    33    34   ar
    20    23    24    1
    21     4     5   ar
    22     5     6   ar
    23    11     8    1
    24    11    12    1
    25    12    13    1
    26    13    14    1
    27    14    15   ar
    28    15    16   ar
    29    16    17   ar
    30    17    18   ar
    31     6     1   ar
    32    18    11    1
    33    24    20    1
    34    18    14   ar
    35    34    29   ar
    36     9    10    1
    37    27    28    1
    38    24    25    1
@<TRIPOS>MOLECULE
*****
 34 38 0 0 0
SMALL
GASTEIGER

@<TRIPOS>ATOM
      1 C           4.9385   -0.4996   34.0103 C.ar    1  UNL1        0.0503
      2 C           4.3096   -1.8171   33.6661 C.ar    1  UNL1        0.0143
      3 C           5.0904   -2.8435   32.9000 C.ar    1  UNL1       -0.0029
      4 C           6.5000   -2.5524   32.4781 C.ar    1  UNL1       -0.0208
      5 C           7.1290   -1.2348   32.8223 C.ar    1  UNL1       -0.0029
      6 C           6.3483   -0.2084   33.5884 C.ar    1  UNL1        0.0143
      7 O           5.2407   -0.3003   36.9884 O.2     1  UNL1       -0.2744
      8 C           4.3089    0.6265   36.2654 C.2     1  UNL1        0.2313
      9 N           4.1578    0.5269   34.7763 N.am    1  UNL1       -0.2836
     10 H           3.5462    1.1352   34.3018 H       1  UNL1        0.1549
     11 C           3.5282    1.6529   37.0315 C.3     1  UNL1        0.1173
     12 C           3.6393    3.1409   36.8774 C.3     1  UNL1        0.0204
     13 C           2.6790    3.7792   37.8369 C.3     1  UNL1        0.0351
     14 C           1.9744    2.6858   38.5838 C.ar    1  UNL1        0.0227
     15 S           0.9454    2.4045   39.6384 S.2     1  UNL1       -0.0692
     16 C           0.8343    0.9166   39.7924 C.ar    1  UNL1        0.1338
     17 N           1.7946    0.2783   38.8330 N.ar    1  UNL1       -0.2405
     18 C           2.4992    1.3717   38.0861 C.ar    1  UNL1        0.0699
     19 C           7.2808   -3.5789   31.7121 C.3     1  UNL1        0.0420
     20 C           7.5019   -3.4069   30.2385 C.3     1  UNL1        0.0585
     21 C           8.6416   -2.6718   29.5978 C.3     1  UNL1        0.0175
     22 C           8.4662   -2.7504   28.1102 C.3     1  UNL1        0.0199
     23 C           7.2181   -3.5342   27.8315 C.3     1  UNL1        0.0856
     24 N           6.6221   -3.9399   29.1468 N.3     1  UNL1       -0.2971
     25 H           6.5745   -4.9571   29.2062 H       1  UNL1        0.1233
     26 C           6.6633   -3.8558   26.4754 C.3     1  UNL1        0.1484
     27 O           5.5979   -2.9869   25.8755 O.3     1  UNL1       -0.3786
     28 H           5.3527   -3.3318   25.0027 H       1  UNL1        0.2108
     29 C           7.1739   -5.0464   25.7193 C.ar    1  UNL1        0.0247
     30 C           7.3979   -6.3475   26.4313 C.ar    1  UNL1        0.0012
     31 C           7.9085   -7.5381   25.6751 C.ar    1  UNL1        0.0204
     32 C           8.1951   -7.4276   24.2069 C.ar    1  UNL1        0.0989
     33 N           7.9711   -6.1264   23.4949 N.ar    1  UNL1       -0.2426
     34 C           7.4605   -4.9359   24.2510 C.ar    1  UNL1        0.0969
@<TRIPOS>BOND
     1     7     8    2
     2     8     9   am
     3     9     1    1
     4     1     2   ar
     5     2     3   ar
     6     3     4   ar
     7     4    19    1
     8    20    19    1
     9    20    21    1
    10    21    22    1
    11    23    22    1
    12    23    26    1
    13    26    27    1
    14    26    29    1
    15    29    30   ar
    16    30    31   ar
    17    31    32   ar
    18    32    33   ar
    19    33    34   ar
    20    23    24    1
    21     4     5   ar
    22     5     6   ar
    23    11     8    1
    24    11    12    1
    25    12    13    1
    26    13    14    1
    27    14    15   ar
    28    15    16   ar
    29    16    17   ar
    30    17    18   ar
    31     6     1   ar
    32    18    11    1
    33    24    20    1
    34    18    14   ar
    35    34    29   ar
    36     9    10    1
    37    27    28    1
    38    24    25    1
@<TRIPOS>MOLECULE
*****
 34 38 0 0 0
SMALL
GASTEIGER

@<TRIPOS>ATOM
      1 C          -0.8336    2.6682   26.8849 C.ar    1  UNL1        0.0503
      2 C          -0.0296    3.8060   27.4405 C.ar    1  UNL1        0.0143
      3 C           0.6648    3.6587   28.7619 C.ar    1  UNL1       -0.0029
      4 C           0.5552    2.3735   29.5276 C.ar    1  UNL1       -0.0208
      5 C          -0.2489    1.2356   28.9720 C.ar    1  UNL1       -0.0029
      6 C          -0.9433    1.3829   27.6506 C.ar    1  UNL1        0.0143
      7 O          -3.6715    3.6357   26.7813 O.2     1  UNL1       -0.2744
      8 C          -2.9470    3.2992   25.5117 C.2     1  UNL1        0.2313
      9 N          -1.5281    2.8155   25.5635 N.am    1  UNL1       -0.2836
     10 H          -1.0526    2.5946   24.7302 H       1  UNL1        0.1549
     11 C          -3.6414    3.4465   24.1903 C.3     1  UNL1        0.1173
     12 C          -5.1201    3.5903   23.9825 C.3     1  UNL1        0.0204
     13 C          -5.3716    3.7085   22.5085 C.3     1  UNL1        0.0351
     14 C          -4.0485    3.6379   21.8053 C.ar    1  UNL1        0.0227
     15 S          -3.3863    3.6674   20.4597 S.2     1  UNL1       -0.0692
     16 C          -1.9078    3.5237   20.6675 C.ar    1  UNL1        0.1338
     17 N          -1.6562    3.4054   22.1416 N.ar    1  UNL1       -0.2405
     18 C          -2.9792    3.4760   22.8447 C.ar    1  UNL1        0.0699
     19 C           1.2496    2.2262   30.8490 C.3     1  UNL1        0.0420
     20 C           2.2353    1.1151   31.0586 C.3     1  UNL1        0.0585
     21 C           3.0726    0.4673   29.9961 C.3     1  UNL1        0.0175
     22 C           3.9115   -0.5914   30.6482 C.3     1  UNL1        0.0199
     23 C           3.5925   -0.5979   32.1139 C.3     1  UNL1        0.0856
     24 N           2.5566    0.4568   32.3675 N.3     1  UNL1       -0.2971
     25 H           2.9202    1.1486   33.0229 H       1  UNL1        0.1233
     26 C           4.2025   -1.5007   33.1450 C.3     1  UNL1        0.1484
     27 O           3.8301   -2.9532   33.1847 O.3     1  UNL1       -0.3786
     28 H           4.3103   -3.3905   33.9051 H       1  UNL1        0.2108
     29 C           5.1848   -0.9509   34.1363 C.ar    1  UNL1        0.0247
     30 C           4.7659   -0.7194   35.5579 C.ar    1  UNL1        0.0012
     31 C           5.7483   -0.1696   36.5492 C.ar    1  UNL1        0.0204
     32 C           7.1496    0.1486   36.1190 C.ar    1  UNL1        0.0989
     33 N           7.5685   -0.0830   34.6973 N.ar    1  UNL1       -0.2426
     34 C           6.5862   -0.6327   33.7060 C.ar    1  UNL1        0.0969
@<TRIPOS>BOND
     1     7     8    2
     2     8     9   am
     3     9     1    1
     4     1     2   ar
     5     2     3   ar
     6     3     4   ar
     7     4    19    1
     8    20    19    1
     9    20    21    1
    10    21    22    1
    11    23    22    1
    12    23    26    1
    13    26    27    1
    14    26    29    1
    15    29    30   ar
    16    30    31   ar
    17    31    32   ar
    18    32    33   ar
    19    33    34   ar
    20    23    24    1
    21     4     5   ar
    22     5     6   ar
    23    11     8    1
    24    11    12    1
    25    12    13    1
    26    13    14    1
    27    14    15   ar
    28    15    16   ar
    29    16    17   ar
    30    17    18   ar
    31     6     1   ar
    32    18    11    1
    33    24    20    1
    34    18    14   ar
    35    34    29   ar
    36     9    10    1
    37    27    28    1
    38    24    25    1
@<TRIPOS>MOLECULE
*****
 34 38 0 0 0
SMALL
GASTEIGER

@<TRIPOS>ATOM
      1 C           6.4358   -2.6958   31.8602 C.ar    1  UNL1        0.0503
      2 C           6.3613   -2.2217   30.4391 C.ar    1  UNL1        0.0143
      3 C           6.5717   -3.1903   29.3133 C.ar    1  UNL1       -0.0029
      4 C           6.8566   -4.6330   29.6086 C.ar    1  UNL1       -0.0208
      5 C           6.9312   -5.1072   31.0298 C.ar    1  UNL1       -0.0029
      6 C           6.7208   -4.1386   32.1556 C.ar    1  UNL1        0.0143
      7 O           3.6549   -2.0413   32.7759 O.2     1  UNL1       -0.2744
      8 C           4.8349   -1.3999   33.4439 C.2     1  UNL1        0.2313
      9 N           6.2254   -1.7271   32.9860 N.am    1  UNL1       -0.2836
     10 H           6.9999   -1.3061   33.4244 H       1  UNL1        0.1549
     11 C           4.6245   -0.4312   34.5697 C.3     1  UNL1        0.1173
     12 C           5.2633   -0.5025   35.9251 C.3     1  UNL1        0.0204
     13 C           4.7719    0.6635   36.7308 C.3     1  UNL1        0.0351
     14 C           3.8295    1.4552   35.8735 C.ar    1  UNL1        0.0227
     15 S           2.9435    2.6651   35.8417 S.2     1  UNL1       -0.0692
     16 C           2.3047    2.7363   34.4863 C.ar    1  UNL1        0.1338
     17 N           2.7961    1.5704   33.6805 N.ar    1  UNL1       -0.2405
     18 C           3.7384    0.7787   34.5379 C.ar    1  UNL1        0.0699
     19 C           7.0671   -5.6017   28.4828 C.3     1  UNL1        0.0420
     20 C           7.2949   -5.0945   27.0897 C.3     1  UNL1        0.0585
     21 C           8.6253   -4.7806   26.4722 C.3     1  UNL1        0.0175
     22 C           8.3849   -4.3042   25.0703 C.3     1  UNL1        0.0199
     23 C           6.9058   -4.3237   24.8214 C.3     1  UNL1        0.0856
     24 N           6.2322   -4.8121   26.0694 N.3     1  UNL1       -0.2971
     25 H           5.7090   -5.6646   25.8694 H       1  UNL1        0.1233
     26 C           6.2207   -3.9248   23.5480 C.3     1  UNL1        0.1484
     27 O           6.5455   -4.6349   22.2673 O.3     1  UNL1       -0.3786
     28 H           6.0189   -4.2571   21.5456 H       1  UNL1        0.2108
     29 C           5.2108   -2.8157   23.5553 C.ar    1  UNL1        0.0247
     30 C           4.3364   -2.5896   22.3576 C.ar    1  UNL1        0.0012
     31 C           3.3265   -1.4806   22.3649 C.ar    1  UNL1        0.0204
     32 C           3.1909   -0.5976   23.5699 C.ar    1  UNL1        0.0989
     33 N           4.0653   -0.8237   24.7676 N.ar    1  UNL1       -0.2426
     34 C           5.0753   -1.9327   24.7603 C.ar    1  UNL1        0.0969
@<TRIPOS>BOND
     1     7     8    2
     2     8     9   am
     3     9     1    1
     4     1     2   ar
     5     2     3   ar
     6     3     4   ar
     7     4    19    1
     8    20    19    1
     9    20    21    1
    10    21    22    1
    11    23    22    1
    12    23    26    1
    13    26    27    1
    14    26    29    1
    15    29    30   ar
    16    30    31   ar
    17    31    32   ar
    18    32    33   ar
    19    33    34   ar
    20    23    24    1
    21     4     5   ar
    22     5     6   ar
    23    11     8    1
    24    11    12    1
    25    12    13    1
    26    13    14    1
    27    14    15   ar
    28    15    16   ar
    29    16    17   ar
    30    17    18   ar
    31     6     1   ar
    32    18    11    1
    33    24    20    1
    34    18    14   ar
    35    34    29   ar
    36     9    10    1
    37    27    28    1
    38    24    25    1
@<TRIPOS>MOLECULE
*****
 34 38 0 0 0
SMALL
GASTEIGER

@<TRIPOS>ATOM
      1 C           0.2698    1.2042   20.1870 C.ar    1  UNL1        0.0503
      2 C           0.6191   -0.1812   20.6436 C.ar    1  UNL1        0.0143
      3 C           1.7417   -0.9272   19.9852 C.ar    1  UNL1       -0.0029
      4 C           2.5149   -0.2877   18.8702 C.ar    1  UNL1       -0.0208
      5 C           2.1655    1.0978   18.4136 C.ar    1  UNL1       -0.0029
      6 C           1.0430    1.8437   19.0719 C.ar    1  UNL1        0.0143
      7 O           0.8627    3.2379   22.3113 O.2     1  UNL1       -0.2744
      8 C          -0.5563    2.9670   21.9075 C.2     1  UNL1        0.2313
      9 N          -0.8528    1.9502   20.8453 N.am    1  UNL1       -0.2836
     10 H          -1.7841    1.7724   20.5803 H       1  UNL1        0.1549
     11 C          -1.6788    3.7130   22.5659 C.3     1  UNL1        0.1173
     12 C          -1.5504    4.6556   23.7257 C.3     1  UNL1        0.0204
     13 C          -2.9191    5.1725   24.0566 C.3     1  UNL1        0.0351
     14 C          -3.8934    4.5493   23.1014 C.ar    1  UNL1        0.0227
     15 S          -5.3415    4.4837   22.7156 S.2     1  UNL1       -0.0692
     16 C          -5.4698    3.5411   21.5558 C.ar    1  UNL1        0.1338
     17 N          -4.1012    3.0242   21.2249 N.ar    1  UNL1       -0.2405
     18 C          -3.1269    3.6473   22.1801 C.ar    1  UNL1        0.0699
     19 C           3.6374   -1.0337   18.2119 C.3     1  UNL1        0.0420
     20 C           4.3111   -2.1638   18.9322 C.3     1  UNL1        0.0585
     21 C           3.8366   -3.5859   18.9808 C.3     1  UNL1        0.0175
     22 C           4.8098   -4.3712   19.8090 C.3     1  UNL1        0.0199
     23 C           5.8858   -3.4345   20.2724 C.3     1  UNL1        0.0856
     24 N           5.5775   -2.0702   19.7305 N.3     1  UNL1       -0.2971
     25 H           6.3412   -1.7547   19.1324 H       1  UNL1        0.1233
     26 C           7.0633   -3.7982   21.1276 C.3     1  UNL1        0.1484
     27 O           8.3860   -4.1062   20.4908 O.3     1  UNL1       -0.3786
     28 H           9.0345   -4.3202   21.1798 H       1  UNL1        0.2108
     29 C           6.9180   -3.8539   22.6195 C.ar    1  UNL1        0.0247
     30 C           7.6187   -4.9249   23.4018 C.ar    1  UNL1        0.0012
     31 C           7.4735   -4.9806   24.8937 C.ar    1  UNL1        0.0204
     32 C           6.6275   -3.9654   25.6033 C.ar    1  UNL1        0.0989
     33 N           5.9267   -2.8943   24.8210 N.ar    1  UNL1       -0.2426
     34 C           6.0720   -2.8386   23.3291 C.ar    1  UNL1        0.0969
@<TRIPOS>BOND
     1     7     8    2
     2     8     9   am
     3     9     1    1
     4     1     2   ar
     5     2     3   ar
     6     3     4   ar
     7     4    19    1
     8    20    19    1
     9    20    21    1
    10    21    22    1
    11    23    22    1
    12    23    26    1
    13    26    27    1
    14    26    29    1
    15    29    30   ar
    16    30    31   ar
    17    31    32   ar
    18    32    33   ar
    19    33    34   ar
    20    23    24    1
    21     4     5   ar
    22     5     6   ar
    23    11     8    1
    24    11    12    1
    25    12    13    1
    26    13    14    1
    27    14    15   ar
    28    15    16   ar
    29    16    17   ar
    30    17    18   ar
    31     6     1   ar
    32    18    11    1
    33    24    20    1
    34    18    14   ar
    35    34    29   ar
    36     9    10    1
    37    27    28    1
    38    24    25    1
