@<TRIPOS>MOLECULE
*****
 51 56 0 0 0
SMALL
GASTEIGER

@<TRIPOS>ATOM
      1 N           2.5150   -0.1659   25.0035 N.am    1  UNL1       -0.2803
      2 C           3.7995   -0.6511   24.3996 C.2     1  UNL1        0.2508
      3 O           5.0901   -0.4804   25.1448 O.2     1  UNL1       -0.2698
      4 H           1.6679   -0.2779   24.5144 H       1  UNL1        0.1552
      5 C           2.5334    1.8015   29.0507 C.ar    1  UNL1        0.0480
      6 C           2.3415    2.6299   27.8149 C.ar    1  UNL1        0.0158
      7 C           2.3354    1.9741   26.4659 C.ar    1  UNL1        0.0159
      8 C           2.5211    0.4899   26.3526 C.ar    1  UNL1        0.0506
      9 C           2.7130   -0.3384   27.5883 C.ar    1  UNL1        0.0159
     10 C           2.7191    0.3174   28.9374 C.ar    1  UNL1        0.0158
     11 N           2.5518    3.7690   33.0977 N.3     1  UNL1       -0.2660
     12 C           1.3346    3.0278   32.6296 C.3     1  UNL1        0.0941
     13 C           1.3285    2.3720   31.2806 C.3     1  UNL1        0.1081
     14 N           2.5395    2.4573   30.3997 N.pl3   1  UNL1       -0.3046
     15 C           3.7567    3.1985   30.8677 C.3     1  UNL1        0.1081
     16 C           3.7629    3.8544   32.2168 C.3     1  UNL1        0.0941
     17 C           2.5579    4.4248   34.4467 C.3     1  UNL1        0.0993
     18 C           2.4345    1.9060   38.1737 C.ar    1  UNL1        0.1724
     19 C           1.6208    3.1633   38.0910 C.ar    1  UNL1        0.0398
     20 C           1.6619    4.0029   36.8487 C.ar    1  UNL1        0.0004
     21 C           2.5168    3.5851   35.6891 C.ar    1  UNL1       -0.0029
     22 C           3.3305    2.3278   35.7718 C.ar    1  UNL1        0.0371
     23 C           3.2894    1.4882   37.0141 C.ar    1  UNL1        0.1721
     24 C           1.2864    0.0737   39.6141 C.3     1  UNL1        0.2526
     25 O           2.3934    1.0663   39.4161 O.3     1  UNL1       -0.4684
     26 O           4.1031    0.2308   37.0969 O.3     1  UNL1       -0.4684
     27 C           4.8360   -0.2692   35.8874 C.3     1  UNL1        0.2526
     28 C           3.7934   -1.3068   23.0506 C.ar    1  UNL1        0.0703
     29 C           3.1689   -0.6077   21.8797 C.ar    1  UNL1        0.0458
     30 C           3.1628   -1.2634   20.5306 C.ar    1  UNL1        0.1726
     31 C           3.7812   -2.6184   20.3525 C.ar    1  UNL1        0.1736
     32 C           4.4057   -3.3175   21.5235 C.ar    1  UNL1        0.0549
     33 C           4.4118   -2.6618   22.8725 C.ar    1  UNL1        0.0582
     34 N           5.0363   -3.3609   24.0434 N.am    1  UNL1       -0.2801
     35 C           6.5114   -3.6327   24.0552 C.2     1  UNL1        0.2510
     36 O           7.3620   -3.2054   22.8960 O.2     1  UNL1       -0.2698
     37 H           4.4780   -3.6415   24.8043 H       1  UNL1        0.1552
     38 C           7.1359   -4.3320   25.2262 C.ar    1  UNL1        0.0728
     39 C           7.6104   -3.5387   26.4075 C.ar    1  UNL1        0.1033
     40 N           8.2349   -4.2378   27.5785 N.ar    1  UNL1       -0.2437
     41 C           8.3848   -5.7303   27.5682 C.ar    1  UNL1        0.0813
     42 C           9.0093   -6.4294   28.7392 C.ar    1  UNL1        0.0191
     43 C           9.1592   -7.9219   28.7288 C.ar    1  UNL1        0.0015
     44 C           8.6846   -8.7151   27.5475 C.ar    1  UNL1        0.0001
     45 C           8.0602   -8.0160   26.3766 C.ar    1  UNL1        0.0015
     46 C           7.9103   -6.5236   26.3869 C.ar    1  UNL1        0.0178
     47 C           7.2858   -5.8244   25.2159 C.ar    1  UNL1        0.0076
     48 O           2.5383   -0.5643   19.3596 O.3     1  UNL1       -0.4684
     49 C           3.3974    0.2034   18.3990 C.3     1  UNL1        0.2526
     50 O           3.7751   -3.2741   19.0035 O.3     1  UNL1       -0.4683
     51 C           4.5475   -4.5407   18.7818 C.3     1  UNL1        0.2526
@<TRIPOS>BOND
     1    24    25    1
     2    25    18    1
     3    18    19   ar
     4    19    20   ar
     5    20    21   ar
     6    21    17    1
     7    17    11    1
     8    11    12    1
     9    12    13    1
    10    13    14    1
    11    14     5    1
    12     5     6   ar
    13     6     7   ar
    14     7     8   ar
    15     8     1    1
    16     1     2   am
    17     2     3    2
    18     2    28    1
    19    28    29   ar
    20    29    30   ar
    21    30    48    1
    22    48    49    1
    23    30    31   ar
    24    31    50    1
    25    50    51    1
    26    31    32   ar
    27    32    33   ar
    28    33    34    1
    29    34    35   am
    30    35    36    2
    31    35    38    1
    32    38    39   ar
    33    39    40   ar
    34    40    41   ar
    35    41    42   ar
    36    42    43   ar
    37    43    44   ar
    38    44    45   ar
    39    45    46   ar
    40    46    47   ar
    41     8     9   ar
    42     9    10   ar
    43    14    15    1
    44    15    16    1
    45    21    22   ar
    46    22    23   ar
    47    23    26    1
    48    26    27    1
    49    23    18   ar
    50    16    11    1
    51    10     5   ar
    52    33    28   ar
    53    47    38   ar
    54    46    41   ar
    55     1     4    1
    56    34    37    1
@<TRIPOS>MOLECULE
*****
 51 56 0 0 0
SMALL
GASTEIGER

@<TRIPOS>ATOM
      1 N          -0.7499    2.3247   26.4870 N.am    1  UNL1       -0.2803
      2 C          -0.0631    2.5256   25.1688 C.2     1  UNL1        0.2508
      3 O           1.4180    2.3166   25.0552 O.2     1  UNL1       -0.2698
      4 H          -1.7220    2.4618   26.5616 H       1  UNL1        0.1552
      5 C           1.6327    1.0952   30.1012 C.ar    1  UNL1        0.0480
      6 C           1.4898    2.5479   29.7557 C.ar    1  UNL1        0.0158
      7 C           0.6956    2.9577   28.5510 C.ar    1  UNL1        0.0159
      8 C           0.0443    1.9148   27.6918 C.ar    1  UNL1        0.0506
      9 C           0.1872    0.4622   28.0372 C.ar    1  UNL1        0.0159
     10 C           0.9814    0.0523   29.2420 C.ar    1  UNL1        0.0158
     11 N           4.0153   -0.1342   33.7153 N.3     1  UNL1       -0.2660
     12 C           3.9331   -1.0445   32.5259 C.3     1  UNL1        0.0941
     13 C           3.1389   -0.6347   31.3212 C.3     1  UNL1        0.1081
     14 N           2.4269    0.6854   31.3059 N.pl3   1  UNL1       -0.3046
     15 C           2.5090    1.5958   32.4952 C.3     1  UNL1        0.1081
     16 C           3.3033    1.1860   33.6999 C.3     1  UNL1        0.0941
     17 C           4.8095   -0.5439   34.9200 C.3     1  UNL1        0.0993
     18 C           4.8388    2.0618   38.5886 C.ar    1  UNL1        0.1724
     19 C           5.9656    2.1431   37.6020 C.ar    1  UNL1        0.0398
     20 C           5.9558    1.2746   36.3791 C.ar    1  UNL1        0.0004
     21 C           4.8192    0.3247   36.1429 C.ar    1  UNL1       -0.0029
     22 C           3.6924    0.2433   37.1296 C.ar    1  UNL1        0.0371
     23 C           3.7021    1.1119   38.3525 C.ar    1  UNL1        0.1721
     24 C           4.3218    4.3331   39.7394 C.3     1  UNL1        0.2526
     25 O           4.8485    2.9304   39.8116 O.3     1  UNL1       -0.4684
     26 O           2.5753    1.0306   39.3392 O.3     1  UNL1       -0.4684
     27 C           1.4109    1.9695   39.2269 C.3     1  UNL1        0.2526
     28 C          -0.8572    2.9354   23.9641 C.ar    1  UNL1        0.0703
     29 C          -2.1296    3.7115   24.1331 C.ar    1  UNL1        0.0458
     30 C          -2.9238    4.1214   22.9284 C.ar    1  UNL1        0.1726
     31 C          -2.4455    3.7552   21.5546 C.ar    1  UNL1        0.1736
     32 C          -1.1730    2.9791   21.3857 C.ar    1  UNL1        0.0549
     33 C          -0.3789    2.5692   22.5903 C.ar    1  UNL1        0.0582
     34 N           0.8935    1.7932   22.4213 N.am    1  UNL1       -0.2801
     35 C           0.9440    0.6330   21.4719 C.2     1  UNL1        0.2510
     36 O          -0.2781    0.2488   20.6916 O.2     1  UNL1       -0.2698
     37 H           1.6956    2.0454   22.9335 H       1  UNL1        0.1552
     38 C           2.2165   -0.1431   21.3029 C.ar    1  UNL1        0.0728
     39 C           3.4317    0.2262   22.1010 C.ar    1  UNL1        0.1033
     40 N           4.7042   -0.5498   21.9320 N.ar    1  UNL1       -0.2437
     41 C           4.7615   -1.6951   20.9649 C.ar    1  UNL1        0.0813
     42 C           6.0340   -2.4711   20.7960 C.ar    1  UNL1        0.0191
     43 C           6.0912   -3.6163   19.8290 C.ar    1  UNL1        0.0015
     44 C           4.8760   -3.9855   19.0309 C.ar    1  UNL1        0.0001
     45 C           3.6035   -3.2095   19.1999 C.ar    1  UNL1        0.0015
     46 C           3.5463   -2.0643   20.1669 C.ar    1  UNL1        0.0178
     47 C           2.2737   -1.2883   20.3359 C.ar    1  UNL1        0.0076
     48 O          -4.1963    4.8974   23.0974 O.3     1  UNL1       -0.4684
     49 C          -4.6501    5.3044   24.4679 C.3     1  UNL1        0.2526
     50 O          -3.2397    4.1650   20.3500 O.3     1  UNL1       -0.4683
     51 C          -2.6322    4.0663   18.9820 C.3     1  UNL1        0.2526
@<TRIPOS>BOND
     1    24    25    1
     2    25    18    1
     3    18    19   ar
     4    19    20   ar
     5    20    21   ar
     6    21    17    1
     7    17    11    1
     8    11    12    1
     9    12    13    1
    10    13    14    1
    11    14     5    1
    12     5     6   ar
    13     6     7   ar
    14     7     8   ar
    15     8     1    1
    16     1     2   am
    17     2     3    2
    18     2    28    1
    19    28    29   ar
    20    29    30   ar
    21    30    48    1
    22    48    49    1
    23    30    31   ar
    24    31    50    1
    25    50    51    1
    26    31    32   ar
    27    32    33   ar
    28    33    34    1
    29    34    35   am
    30    35    36    2
    31    35    38    1
    32    38    39   ar
    33    39    40   ar
    34    40    41   ar
    35    41    42   ar
    36    42    43   ar
    37    43    44   ar
    38    44    45   ar
    39    45    46   ar
    40    46    47   ar
    41     8     9   ar
    42     9    10   ar
    43    14    15    1
    44    15    16    1
    45    21    22   ar
    46    22    23   ar
    47    23    26    1
    48    26    27    1
    49    23    18   ar
    50    16    11    1
    51    10     5   ar
    52    33    28   ar
    53    47    38   ar
    54    46    41   ar
    55     1     4    1
    56    34    37    1
@<TRIPOS>MOLECULE
*****
 51 56 0 0 0
SMALL
GASTEIGER

@<TRIPOS>ATOM
      1 N           2.7244    0.1137   25.9103 N.am    1  UNL1       -0.2803
      2 C           3.5369   -0.5955   24.8678 C.2     1  UNL1        0.2508
      3 O           4.7498   -1.3818   25.2689 O.2     1  UNL1       -0.2698
      4 H           1.9284    0.6298   25.6471 H       1  UNL1        0.1552
      5 C           3.9256   -0.1173   30.2409 C.ar    1  UNL1        0.0480
      6 C           4.8790    0.4422   29.2270 C.ar    1  UNL1        0.0158
      7 C           4.4785    0.5192   27.7835 C.ar    1  UNL1        0.0159
      8 C           3.1248    0.0367   27.3539 C.ar    1  UNL1        0.0506
      9 C           2.1715   -0.5229   28.3678 C.ar    1  UNL1        0.0159
     10 C           2.5719   -0.5999   29.8114 C.ar    1  UNL1        0.0158
     11 N           5.1269   -0.3484   34.5715 N.3     1  UNL1       -0.2660
     12 C           5.1712    0.9659   33.8499 C.3     1  UNL1        0.0941
     13 C           4.7708    1.0429   32.4064 C.3     1  UNL1        0.1081
     14 N           4.3260   -0.1944   31.6844 N.pl3   1  UNL1       -0.3046
     15 C           4.2817   -1.5087   32.4059 C.3     1  UNL1        0.1081
     16 C           4.6821   -1.5857   33.8495 C.3     1  UNL1        0.0941
     17 C           5.5273   -0.4254   36.0150 C.3     1  UNL1        0.0993
     18 C           3.9323    2.5838   38.9561 C.ar    1  UNL1        0.1724
     19 C           5.3911    2.5763   38.6075 C.ar    1  UNL1        0.0398
     20 C           5.9228    1.5732   37.6271 C.ar    1  UNL1        0.0004
     21 C           4.9956    0.5777   36.9954 C.ar    1  UNL1       -0.0029
     22 C           3.5367    0.5852   37.3440 C.ar    1  UNL1        0.0371
     23 C           3.0050    1.5883   38.3243 C.ar    1  UNL1        0.1721
     24 C           4.2796    4.7022   40.4196 C.3     1  UNL1        0.2526
     25 O           3.4006    3.5869   39.9365 O.3     1  UNL1       -0.4684
     26 O           1.5461    1.5958   38.6730 O.3     1  UNL1       -0.4684
     27 C           0.9111    0.3745   39.2690 C.3     1  UNL1        0.2526
     28 C           3.1366   -0.5185   23.4243 C.ar    1  UNL1        0.0703
     29 C           2.3122    0.6352   22.9352 C.ar    1  UNL1        0.0458
     30 C           1.9118    0.7123   21.4916 C.ar    1  UNL1        0.1726
     31 C           2.3359   -0.3644   20.5372 C.ar    1  UNL1        0.1736
     32 C           3.1603   -1.5182   21.0264 C.ar    1  UNL1        0.0549
     33 C           3.5606   -1.5952   22.4699 C.ar    1  UNL1        0.0582
     34 N           4.3850   -2.7489   22.9590 N.am    1  UNL1       -0.2801
     35 C           5.8321   -2.8517   22.5777 C.2     1  UNL1        0.2510
     36 O           6.4548   -1.8008   21.7073 O.2     1  UNL1       -0.2698
     37 H           3.9763   -3.4387   23.5303 H       1  UNL1        0.1552
     38 C           6.6565   -4.0055   23.0669 C.ar    1  UNL1        0.0728
     39 C           7.6016   -4.7013   22.1327 C.ar    1  UNL1        0.1033
     40 N           8.4259   -5.8551   22.6218 N.ar    1  UNL1       -0.2437
     41 C           8.3052   -6.3131   24.0451 C.ar    1  UNL1        0.0813
     42 C           9.1295   -7.4668   24.5342 C.ar    1  UNL1        0.0191
     43 C           9.0088   -7.9248   25.9575 C.ar    1  UNL1        0.0015
     44 C           8.0636   -7.2290   26.8916 C.ar    1  UNL1        0.0001
     45 C           7.2393   -6.0752   26.4025 C.ar    1  UNL1        0.0015
     46 C           7.3601   -5.6173   24.9793 C.ar    1  UNL1        0.0178
     47 C           6.5357   -4.4635   24.4901 C.ar    1  UNL1        0.0076
     48 O           1.0875    1.8660   21.0025 O.3     1  UNL1       -0.4684
     49 C           1.7150    3.2179   20.8336 C.3     1  UNL1        0.2526
     50 O           1.9355   -0.2874   19.0937 O.3     1  UNL1       -0.4683
     51 C           2.9122    0.2108   18.0701 C.3     1  UNL1        0.2526
@<TRIPOS>BOND
     1    24    25    1
     2    25    18    1
     3    18    19   ar
     4    19    20   ar
     5    20    21   ar
     6    21    17    1
     7    17    11    1
     8    11    12    1
     9    12    13    1
    10    13    14    1
    11    14     5    1
    12     5     6   ar
    13     6     7   ar
    14     7     8   ar
    15     8     1    1
    16     1     2   am
    17     2     3    2
    18     2    28    1
    19    28    29   ar
    20    29    30   ar
    21    30    48    1
    22    48    49    1
    23    30    31   ar
    24    31    50    1
    25    50    51    1
    26    31    32   ar
    27    32    33   ar
    28    33    34    1
    29    34    35   am
    30    35    36    2
    31    35    38    1
    32    38    39   ar
    33    39    40   ar
    34    40    41   ar
    35    41    42   ar
    36    42    43   ar
    37    43    44   ar
    38    44    45   ar
    39    45    46   ar
    40    46    47   ar
    41     8     9   ar
    42     9    10   ar
    43    14    15    1
    44    15    16    1
    45    21    22   ar
    46    22    23   ar
    47    23    26    1
    48    26    27    1
    49    23    18   ar
    50    16    11    1
    51    10     5   ar
    52    33    28   ar
    53    47    38   ar
    54    46    41   ar
    55     1     4    1
    56    34    37    1
@<TRIPOS>MOLECULE
*****
 51 56 0 0 0
SMALL
GASTEIGER

@<TRIPOS>ATOM
      1 N           1.8897    1.4513   32.5462 N.am    1  UNL1       -0.2803
      2 C           3.2438    1.7694   33.1077 C.2     1  UNL1        0.2508
      3 O           4.3657    2.1526   32.1887 O.2     1  UNL1       -0.2698
      4 H           1.1534    1.1998   33.1494 H       1  UNL1        0.1552
      5 C           1.1932    1.6463   28.1047 C.ar    1  UNL1        0.0480
      6 C           0.7903    2.7972   28.9784 C.ar    1  UNL1        0.0158
      7 C           1.0225    2.7322   30.4588 C.ar    1  UNL1        0.0159
      8 C           1.6576    1.5163   31.0657 C.ar    1  UNL1        0.0506
      9 C           2.0605    0.3655   30.1921 C.ar    1  UNL1        0.0159
     10 C           1.8283    0.4305   28.7115 C.ar    1  UNL1        0.0158
     11 N           0.4967    1.8415   23.6632 N.3     1  UNL1       -0.2660
     12 C          -0.4065    2.5906   24.5977 C.3     1  UNL1        0.0941
     13 C          -0.1743    2.5255   26.0781 C.3     1  UNL1        0.1081
     14 N           0.9610    1.7114   26.6242 N.pl3   1  UNL1       -0.3046
     15 C           1.8642    0.9623   25.6898 C.3     1  UNL1        0.1081
     16 C           1.6320    1.0273   24.2093 C.3     1  UNL1        0.0941
     17 C           0.2645    1.9065   22.1827 C.3     1  UNL1        0.0993
     18 C           3.0258   -0.2702   19.3744 C.ar    1  UNL1        0.1724
     19 C           1.7213   -0.8924   19.7757 C.ar    1  UNL1        0.0398
     20 C           0.8009   -0.1668   20.7118 C.ar    1  UNL1        0.0004
     21 C           1.1850    1.1809   21.2466 C.ar    1  UNL1       -0.0029
     22 C           2.4895    1.8031   20.8453 C.ar    1  UNL1        0.0371
     23 C           3.4100    1.0775   19.9092 C.ar    1  UNL1        0.1721
     24 C           3.7790   -0.8451   16.9552 C.3     1  UNL1        0.2526
     25 O           3.9463   -0.9958   18.4382 O.3     1  UNL1       -0.4684
     26 O           4.7146    1.6997   19.5078 O.3     1  UNL1       -0.4684
     27 C           4.8066    2.4976   18.2410 C.3     1  UNL1        0.2526
     28 C           3.4760    1.7045   34.5882 C.ar    1  UNL1        0.0703
     29 C           2.5301    2.3932   35.5266 C.ar    1  UNL1        0.0458
     30 C           2.7623    2.3283   37.0072 C.ar    1  UNL1        0.1726
     31 C           3.9404    1.5745   37.5492 C.ar    1  UNL1        0.1736
     32 C           4.8864    0.8857   36.6107 C.ar    1  UNL1        0.0549
     33 C           4.6542    0.9507   35.1302 C.ar    1  UNL1        0.0582
     34 N           5.6001    0.2619   34.1918 N.am    1  UNL1       -0.2801
     35 C           5.2613   -1.0938   33.6464 C.2     1  UNL1        0.2510
     36 O           3.9765   -1.7606   34.0396 O.2     1  UNL1       -0.2698
     37 H           6.4434    0.6996   33.9337 H       1  UNL1        0.1552
     38 C           6.2073   -1.7825   32.7080 C.ar    1  UNL1        0.0728
     39 C           7.2376   -0.9862   31.9633 C.ar    1  UNL1        0.1033
     40 N           8.1836   -1.6749   31.0249 N.ar    1  UNL1       -0.2437
     41 C           8.0994   -3.1600   30.8310 C.ar    1  UNL1        0.0813
     42 C           9.0454   -3.8487   29.8926 C.ar    1  UNL1        0.0191
     43 C           8.9611   -5.3337   29.6988 C.ar    1  UNL1        0.0015
     44 C           7.9309   -6.1300   30.4434 C.ar    1  UNL1        0.0001
     45 C           6.9849   -5.4413   31.3819 C.ar    1  UNL1        0.0015
     46 C           7.0691   -3.9563   31.5757 C.ar    1  UNL1        0.0178
     47 C           6.1231   -3.2676   32.5142 C.ar    1  UNL1        0.0076
     48 O           1.8163    3.0171   37.9456 O.3     1  UNL1       -0.4684
     49 C           0.9559    2.2084   38.8706 C.3     1  UNL1        0.2526
     50 O           4.1726    1.5095   39.0296 O.3     1  UNL1       -0.4683
     51 C           4.9925    2.5671   39.7074 C.3     1  UNL1        0.2526
@<TRIPOS>BOND
     1    24    25    1
     2    25    18    1
     3    18    19   ar
     4    19    20   ar
     5    20    21   ar
     6    21    17    1
     7    17    11    1
     8    11    12    1
     9    12    13    1
    10    13    14    1
    11    14     5    1
    12     5     6   ar
    13     6     7   ar
    14     7     8   ar
    15     8     1    1
    16     1     2   am
    17     2     3    2
    18     2    28    1
    19    28    29   ar
    20    29    30   ar
    21    30    48    1
    22    48    49    1
    23    30    31   ar
    24    31    50    1
    25    50    51    1
    26    31    32   ar
    27    32    33   ar
    28    33    34    1
    29    34    35   am
    30    35    36    2
    31    35    38    1
    32    38    39   ar
    33    39    40   ar
    34    40    41   ar
    35    41    42   ar
    36    42    43   ar
    37    43    44   ar
    38    44    45   ar
    39    45    46   ar
    40    46    47   ar
    41     8     9   ar
    42     9    10   ar
    43    14    15    1
    44    15    16    1
    45    21    22   ar
    46    22    23   ar
    47    23    26    1
    48    26    27    1
    49    23    18   ar
    50    16    11    1
    51    10     5   ar
    52    33    28   ar
    53    47    38   ar
    54    46    41   ar
    55     1     4    1
    56    34    37    1
@<TRIPOS>MOLECULE
*****
 51 56 0 0 0
SMALL
GASTEIGER

@<TRIPOS>ATOM
      1 N           2.3635    0.8406   31.3583 N.am    1  UNL1       -0.2803
      2 C           3.3014    1.7701   32.0699 C.2     1  UNL1        0.2508
      3 O           4.1158    2.7575   31.2877 O.2     1  UNL1       -0.2698
      4 H           1.8290    0.1925   31.8716 H       1  UNL1        0.1552
      5 C           1.9934    1.0143   26.8768 C.ar    1  UNL1        0.0480
      6 C           2.8653   -0.0245   27.5177 C.ar    1  UNL1        0.0158
      7 C           2.9887   -0.0824   29.0115 C.ar    1  UNL1        0.0159
      8 C           2.2401    0.8985   29.8644 C.ar    1  UNL1        0.0506
      9 C           1.3683    1.9373   29.2236 C.ar    1  UNL1        0.0159
     10 C           1.2449    1.9952   27.7298 C.ar    1  UNL1        0.0158
     11 N           1.6233    1.1879   22.3954 N.3     1  UNL1       -0.2660
     12 C           2.9692    0.9990   23.0301 C.3     1  UNL1        0.0941
     13 C           3.0926    0.9411   24.5239 C.3     1  UNL1        0.1081
     14 N           1.8700    1.0722   25.3830 N.pl3   1  UNL1       -0.3046
     15 C           0.5241    1.2611   24.7485 C.3     1  UNL1        0.1081
     16 C           0.4007    1.3190   23.2546 C.3     1  UNL1        0.0941
     17 C           1.4999    1.2458   20.9017 C.3     1  UNL1        0.0993
     18 C           4.2340   -1.2267   18.3207 C.ar    1  UNL1        0.1724
     19 C           4.2090    0.2657   18.1721 C.ar    1  UNL1        0.0398
     20 C           3.2976    1.0898   19.0324 C.ar    1  UNL1        0.0004
     21 C           2.4113    0.4216   20.0413 C.ar    1  UNL1       -0.0029
     22 C           2.4363   -1.0708   20.1899 C.ar    1  UNL1        0.0371
     23 C           3.3477   -1.8949   19.3296 C.ar    1  UNL1        0.1721
     24 C           6.5479   -2.3346   17.9102 C.3     1  UNL1        0.2526
     25 O           5.1454   -2.0509   17.4603 O.3     1  UNL1       -0.4684
     26 O           3.3727   -3.3874   19.4781 O.3     1  UNL1       -0.4684
     27 C           4.3200   -4.0287   20.4484 C.3     1  UNL1        0.2526
     28 C           3.4248    1.7122   33.5637 C.ar    1  UNL1        0.0703
     29 C           2.4774    2.4932   34.4253 C.ar    1  UNL1        0.0458
     30 C           2.6008    2.4354   35.9191 C.ar    1  UNL1        0.1726
     31 C           3.6716    1.5965   36.5513 C.ar    1  UNL1        0.1736
     32 C           4.6190    0.8155   35.6896 C.ar    1  UNL1        0.0549
     33 C           4.4956    0.8734   34.1958 C.ar    1  UNL1        0.0582
     34 N           5.4430    0.0923   33.3342 N.am    1  UNL1       -0.2801
     35 C           4.9871   -1.1770   32.6778 C.2     1  UNL1        0.2510
     36 O           3.5838   -1.6653   32.8830 O.2     1  UNL1       -0.2698
     37 H           6.3641    0.4128   33.1996 H       1  UNL1        0.1552
     38 C           5.9346   -1.9580   31.8162 C.ar    1  UNL1        0.0728
     39 C           6.6204   -1.2915   30.6605 C.ar    1  UNL1        0.1033
     40 N           7.5678   -2.0725   29.7989 N.ar    1  UNL1       -0.2437
     41 C           7.8295   -3.5200   30.0929 C.ar    1  UNL1        0.0813
     42 C           8.7769   -4.3009   29.2313 C.ar    1  UNL1        0.0191
     43 C           9.0386   -5.7483   29.5253 C.ar    1  UNL1        0.0015
     44 C           8.3528   -6.4148   30.6809 C.ar    1  UNL1        0.0001
     45 C           7.4054   -5.6339   31.5426 C.ar    1  UNL1        0.0015
     46 C           7.1437   -4.1864   31.2485 C.ar    1  UNL1        0.0178
     47 C           6.1962   -3.4054   32.1102 C.ar    1  UNL1        0.0076
     48 O           1.6534    3.2164   36.7808 O.3     1  UNL1       -0.4684
     49 C           1.4904    4.6925   36.5693 C.3     1  UNL1        0.2526
     50 O           3.7950    1.5386   38.0451 O.3     1  UNL1       -0.4683
     51 C           2.7257    0.8745   38.8608 C.3     1  UNL1        0.2526
@<TRIPOS>BOND
     1    24    25    1
     2    25    18    1
     3    18    19   ar
     4    19    20   ar
     5    20    21   ar
     6    21    17    1
     7    17    11    1
     8    11    12    1
     9    12    13    1
    10    13    14    1
    11    14     5    1
    12     5     6   ar
    13     6     7   ar
    14     7     8   ar
    15     8     1    1
    16     1     2   am
    17     2     3    2
    18     2    28    1
    19    28    29   ar
    20    29    30   ar
    21    30    48    1
    22    48    49    1
    23    30    31   ar
    24    31    50    1
    25    50    51    1
    26    31    32   ar
    27    32    33   ar
    28    33    34    1
    29    34    35   am
    30    35    36    2
    31    35    38    1
    32    38    39   ar
    33    39    40   ar
    34    40    41   ar
    35    41    42   ar
    36    42    43   ar
    37    43    44   ar
    38    44    45   ar
    39    45    46   ar
    40    46    47   ar
    41     8     9   ar
    42     9    10   ar
    43    14    15    1
    44    15    16    1
    45    21    22   ar
    46    22    23   ar
    47    23    26    1
    48    26    27    1
    49    23    18   ar
    50    16    11    1
    51    10     5   ar
    52    33    28   ar
    53    47    38   ar
    54    46    41   ar
    55     1     4    1
    56    34    37    1
@<TRIPOS>MOLECULE
*****
 51 56 0 0 0
SMALL
GASTEIGER

@<TRIPOS>ATOM
      1 N           2.5298    2.9405   30.6963 N.am    1  UNL1       -0.2803
      2 C           1.5236    2.5321   31.7311 C.2     1  UNL1        0.2508
      3 O           0.3271    1.7193   31.3340 O.2     1  UNL1       -0.2698
      4 H           3.3151    3.4740   30.9569 H       1  UNL1        0.1552
      5 C           1.9588    1.7271   26.4007 C.ar    1  UNL1        0.0480
      6 C           1.3541    3.0033   26.9063 C.ar    1  UNL1        0.0158
      7 C           1.5444    3.4078   28.3381 C.ar    1  UNL1        0.0159
      8 C           2.3395    2.5360   29.2644 C.ar    1  UNL1        0.0506
      9 C           2.9442    1.2599   28.7588 C.ar    1  UNL1        0.0159
     10 C           2.7539    0.8554   27.3269 C.ar    1  UNL1        0.0158
     11 N           1.3878    0.5137   22.1052 N.3     1  UNL1       -0.2660
     12 C           0.5031    1.5618   22.7125 C.3     1  UNL1        0.0941
     13 C           0.6934    1.9663   24.1443 C.3     1  UNL1        0.1081
     14 N           1.7685    1.3227   24.9689 N.pl3   1  UNL1       -0.3046
     15 C           2.6532    0.2746   24.3617 C.3     1  UNL1        0.1081
     16 C           2.4629   -0.1299   22.9298 C.3     1  UNL1        0.0941
     17 C           1.1975    0.1093   20.6733 C.3     1  UNL1        0.0993
     18 C           4.7070   -1.3423   18.2597 C.ar    1  UNL1        0.1724
     19 C           4.2970    0.0991   18.1948 C.ar    1  UNL1        0.0398
     20 C           3.1272    0.5829   18.9994 C.ar    1  UNL1        0.0004
     21 C           2.3674   -0.3746   19.8688 C.ar    1  UNL1       -0.0029
     22 C           2.7774   -1.8160   19.9336 C.ar    1  UNL1        0.0371
     23 C           3.9472   -2.2998   19.1291 C.ar    1  UNL1        0.1721
     24 C           7.2008   -2.0577   18.1211 C.3     1  UNL1        0.2526
     25 O           5.8769   -1.8262   17.4551 O.3     1  UNL1       -0.4684
     26 O           4.3573   -3.7413   19.1939 O.3     1  UNL1       -0.4684
     27 C           3.3135   -4.8147   19.2846 C.3     1  UNL1        0.2526
     28 C           1.7139    2.9366   33.1629 C.ar    1  UNL1        0.0703
     29 C           1.1174    4.2176   33.6660 C.ar    1  UNL1        0.0458
     30 C           1.3076    4.6221   35.0979 C.ar    1  UNL1        0.1726
     31 C           2.0944    3.7456   36.0266 C.ar    1  UNL1        0.1736
     32 C           2.6910    2.4645   35.5235 C.ar    1  UNL1        0.0549
     33 C           2.5007    2.0601   34.0917 C.ar    1  UNL1        0.0582
     34 N           3.0973    0.7791   33.5886 N.am    1  UNL1       -0.2801
     35 C           4.3774    0.8039   32.8071 C.2     1  UNL1        0.2510
     36 O           5.0609    2.1097   32.5287 O.2     1  UNL1       -0.2698
     37 H           2.6486   -0.0780   33.7713 H       1  UNL1        0.1552
     38 C           4.9739   -0.4772   32.3040 C.ar    1  UNL1        0.0728
     39 C           5.2772   -1.5905   33.2625 C.ar    1  UNL1        0.1033
     40 N           5.8737   -2.8716   32.7595 N.ar    1  UNL1       -0.2437
     41 C           6.1670   -3.0394   31.2980 C.ar    1  UNL1        0.0813
     42 C           6.7635   -4.3204   30.7950 C.ar    1  UNL1        0.0191
     43 C           7.0567   -4.4882   29.3335 C.ar    1  UNL1        0.0015
     44 C           6.7534   -3.3749   28.3751 C.ar    1  UNL1        0.0001
     45 C           6.1569   -2.0938   28.8781 C.ar    1  UNL1        0.0015
     46 C           5.8637   -1.9261   30.3395 C.ar    1  UNL1        0.0178
     47 C           5.2671   -0.6450   30.8426 C.ar    1  UNL1        0.0076
     48 O           0.7111    5.9031   35.6009 O.3     1  UNL1       -0.4684
     49 C          -0.3920    6.5692   34.8331 C.3     1  UNL1        0.2526
     50 O           2.2847    4.1500   37.4584 O.3     1  UNL1       -0.4683
     51 C           3.3978    3.5505   38.2656 C.3     1  UNL1        0.2526
@<TRIPOS>BOND
     1    24    25    1
     2    25    18    1
     3    18    19   ar
     4    19    20   ar
     5    20    21   ar
     6    21    17    1
     7    17    11    1
     8    11    12    1
     9    12    13    1
    10    13    14    1
    11    14     5    1
    12     5     6   ar
    13     6     7   ar
    14     7     8   ar
    15     8     1    1
    16     1     2   am
    17     2     3    2
    18     2    28    1
    19    28    29   ar
    20    29    30   ar
    21    30    48    1
    22    48    49    1
    23    30    31   ar
    24    31    50    1
    25    50    51    1
    26    31    32   ar
    27    32    33   ar
    28    33    34    1
    29    34    35   am
    30    35    36    2
    31    35    38    1
    32    38    39   ar
    33    39    40   ar
    34    40    41   ar
    35    41    42   ar
    36    42    43   ar
    37    43    44   ar
    38    44    45   ar
    39    45    46   ar
    40    46    47   ar
    41     8     9   ar
    42     9    10   ar
    43    14    15    1
    44    15    16    1
    45    21    22   ar
    46    22    23   ar
    47    23    26    1
    48    26    27    1
    49    23    18   ar
    50    16    11    1
    51    10     5   ar
    52    33    28   ar
    53    47    38   ar
    54    46    41   ar
    55     1     4    1
    56    34    37    1
@<TRIPOS>MOLECULE
*****
 51 56 0 0 0
SMALL
GASTEIGER

@<TRIPOS>ATOM
      1 N           2.0067    0.2120   26.3703 N.am    1  UNL1       -0.2803
      2 C           2.9995    0.7014   25.3580 C.2     1  UNL1        0.2508
      3 O           3.8854    1.8684   25.6797 O.2     1  UNL1       -0.2698
      4 H           1.4252   -0.5539   26.1592 H       1  UNL1        0.1552
      5 C           1.6859    2.2446   30.3723 C.ar    1  UNL1        0.0480
      6 C           2.7526    1.2166   30.1365 C.ar    1  UNL1        0.0158
      7 C           2.8595    0.5391   28.8025 C.ar    1  UNL1        0.0159
      8 C           1.8997    0.8895   27.7043 C.ar    1  UNL1        0.0506
      9 C           0.8331    1.9174   27.9401 C.ar    1  UNL1        0.0159
     10 C           0.7261    2.5950   29.2741 C.ar    1  UNL1        0.0158
     11 N           1.3651    4.2772   34.3743 N.3     1  UNL1       -0.2660
     12 C           2.1171    2.9854   34.2472 C.3     1  UNL1        0.0941
     13 C           2.2240    2.3079   32.9132 C.3     1  UNL1        0.1081
     14 N           1.5790    2.9221   31.7063 N.pl3   1  UNL1       -0.3046
     15 C           0.8270    4.2138   31.8333 C.3     1  UNL1        0.1081
     16 C           0.7201    4.8913   33.1673 C.3     1  UNL1        0.0941
     17 C           1.2582    4.9547   35.7082 C.3     1  UNL1        0.0993
     18 C           3.7846    3.5468   39.1557 C.ar    1  UNL1        0.1724
     19 C           4.2927    4.6246   38.2446 C.ar    1  UNL1        0.0398
     20 C           3.4506    5.0938   37.0955 C.ar    1  UNL1        0.0004
     21 C           2.1004    4.4853   36.8575 C.ar    1  UNL1       -0.0029
     22 C           1.5923    3.4076   37.7686 C.ar    1  UNL1        0.0371
     23 C           2.4344    2.9383   38.9177 C.ar    1  UNL1        0.1721
     24 C           5.5153    4.0457   41.0281 C.3     1  UNL1        0.2526
     25 O           4.6267    3.0775   40.3050 O.3     1  UNL1       -0.4684
     26 O           1.9263    1.8605   39.8289 O.3     1  UNL1       -0.4684
     27 C           1.5153    0.5330   39.2642 C.3     1  UNL1        0.2526
     28 C           3.1065    0.0239   24.0240 C.ar    1  UNL1        0.0703
     29 C           2.5747    0.6996   22.7949 C.ar    1  UNL1        0.0458
     30 C           2.6817    0.0221   21.4609 C.ar    1  UNL1        0.1726
     31 C           3.3204   -1.3311   21.3560 C.ar    1  UNL1        0.1736
     32 C           3.8522   -2.0067   22.5852 C.ar    1  UNL1        0.0549
     33 C           3.7452   -1.3292   23.9191 C.ar    1  UNL1        0.0582
     34 N           4.2770   -2.0049   25.1482 N.am    1  UNL1       -0.2801
     35 C           5.6315   -1.6390   25.6786 C.2     1  UNL1        0.2510
     36 O           6.4543   -0.5974   24.9800 O.2     1  UNL1       -0.2698
     37 H           3.7370   -2.6885   25.6068 H       1  UNL1        0.1552
     38 C           6.1633   -2.3147   26.9078 C.ar    1  UNL1        0.0728
     39 C           7.0768   -3.4973   26.7777 C.ar    1  UNL1        0.1033
     40 N           7.6086   -4.1730   28.0067 N.ar    1  UNL1       -0.2437
     41 C           7.2268   -3.6661   29.3660 C.ar    1  UNL1        0.0813
     42 C           7.7585   -4.3418   30.5950 C.ar    1  UNL1        0.0191
     43 C           7.3767   -3.8350   31.9541 C.ar    1  UNL1        0.0015
     44 C           6.4632   -2.6524   32.0842 C.ar    1  UNL1        0.0001
     45 C           5.9314   -1.9767   30.8552 C.ar    1  UNL1        0.0015
     46 C           6.3132   -2.4836   29.4960 C.ar    1  UNL1        0.0178
     47 C           5.7815   -1.8078   28.2669 C.ar    1  UNL1        0.0076
     48 O           2.1499    0.6977   20.2318 O.3     1  UNL1       -0.4684
     49 C           0.7428    0.4372   19.7821 C.3     1  UNL1        0.2526
     50 O           3.4274   -2.0086   20.0220 O.3     1  UNL1       -0.4683
     51 C           4.5795   -1.6977   19.1132 C.3     1  UNL1        0.2526
@<TRIPOS>BOND
     1    24    25    1
     2    25    18    1
     3    18    19   ar
     4    19    20   ar
     5    20    21   ar
     6    21    17    1
     7    17    11    1
     8    11    12    1
     9    12    13    1
    10    13    14    1
    11    14     5    1
    12     5     6   ar
    13     6     7   ar
    14     7     8   ar
    15     8     1    1
    16     1     2   am
    17     2     3    2
    18     2    28    1
    19    28    29   ar
    20    29    30   ar
    21    30    48    1
    22    48    49    1
    23    30    31   ar
    24    31    50    1
    25    50    51    1
    26    31    32   ar
    27    32    33   ar
    28    33    34    1
    29    34    35   am
    30    35    36    2
    31    35    38    1
    32    38    39   ar
    33    39    40   ar
    34    40    41   ar
    35    41    42   ar
    36    42    43   ar
    37    43    44   ar
    38    44    45   ar
    39    45    46   ar
    40    46    47   ar
    41     8     9   ar
    42     9    10   ar
    43    14    15    1
    44    15    16    1
    45    21    22   ar
    46    22    23   ar
    47    23    26    1
    48    26    27    1
    49    23    18   ar
    50    16    11    1
    51    10     5   ar
    52    33    28   ar
    53    47    38   ar
    54    46    41   ar
    55     1     4    1
    56    34    37    1
@<TRIPOS>MOLECULE
*****
 51 56 0 0 0
SMALL
GASTEIGER

@<TRIPOS>ATOM
      1 N          -2.1450    3.0615   25.0284 N.am    1  UNL1       -0.2803
      2 C          -1.6613    3.4120   23.6525 C.2     1  UNL1        0.2508
      3 O          -0.1910    3.4294   23.3562 O.2     1  UNL1       -0.2698
      4 H          -3.1101    3.0500   25.2229 H       1  UNL1        0.1552
      5 C           0.8151    2.0623   28.2673 C.ar    1  UNL1        0.0480
      6 C           0.4170    1.0179   27.2667 C.ar    1  UNL1        0.0158
      7 C          -0.5696    1.3510   26.1872 C.ar    1  UNL1        0.0159
      8 C          -1.1583    2.7284   26.1081 C.ar    1  UNL1        0.0506
      9 C          -0.7603    3.7727   27.1085 C.ar    1  UNL1        0.0159
     10 C           0.2264    3.4397   28.1882 C.ar    1  UNL1        0.0158
     11 N           3.7751    1.0630   31.5060 N.3     1  UNL1       -0.2660
     12 C           2.7672    0.0413   31.0698 C.3     1  UNL1        0.0941
     13 C           1.7806    0.3744   29.9903 C.3     1  UNL1        0.1081
     14 N           1.8017    1.7292   29.3468 N.pl3   1  UNL1       -0.3046
     15 C           2.8095    2.7509   29.7830 C.3     1  UNL1        0.1081
     16 C           3.7963    2.4179   30.8626 C.3     1  UNL1        0.0941
     17 C           4.7618    0.7300   32.5856 C.3     1  UNL1        0.0993
     18 C           3.6072    1.1936   36.9102 C.ar    1  UNL1        0.1724
     19 C           4.6288    0.1699   36.5122 C.ar    1  UNL1        0.0398
     20 C           5.0136    0.0153   35.0707 C.ar    1  UNL1        0.0004
     21 C           4.3769    0.8845   34.0272 C.ar    1  UNL1       -0.0029
     22 C           3.3553    1.9083   34.4251 C.ar    1  UNL1        0.0371
     23 C           2.9705    2.0628   35.8666 C.ar    1  UNL1        0.1721
     24 C           1.9276    0.7758   38.8478 C.3     1  UNL1        0.2526
     25 O           3.2224    1.3482   38.3517 O.3     1  UNL1       -0.4684
     26 O           1.9489    3.0866   36.2645 O.3     1  UNL1       -0.4684
     27 C           1.7828    4.3359   35.4511 C.3     1  UNL1        0.2526
     28 C          -2.6480    3.7450   22.5729 C.ar    1  UNL1        0.0703
     29 C          -3.8665    4.5581   22.8953 C.ar    1  UNL1        0.0458
     30 C          -4.8532    4.8912   21.8157 C.ar    1  UNL1        0.1726
     31 C          -4.6213    4.4112   20.4136 C.ar    1  UNL1        0.1736
     32 C          -3.4027    3.5980   20.0912 C.ar    1  UNL1        0.0549
     33 C          -2.4161    3.2650   21.1708 C.ar    1  UNL1        0.0582
     34 N          -1.1976    2.4519   20.8484 N.am    1  UNL1       -0.2801
     35 C          -0.2524    2.9094   19.7773 C.2     1  UNL1        0.2510
     36 O          -0.5257    4.1801   19.0286 O.2     1  UNL1       -0.2698
     37 H          -1.0181    1.6178   21.3398 H       1  UNL1        0.1552
     38 C           0.9662    2.0962   19.4548 C.ar    1  UNL1        0.0728
     39 C           2.0747    2.6963   18.6418 C.ar    1  UNL1        0.1033
     40 N           3.2932    1.8832   18.3193 N.ar    1  UNL1       -0.2437
     41 C           3.4033    0.4699   18.8100 C.ar    1  UNL1        0.0813
     42 C           4.6218   -0.3432   18.4875 C.ar    1  UNL1        0.0191
     43 C           4.7318   -1.7563   18.9782 C.ar    1  UNL1        0.0015
     44 C           3.6233   -2.3564   19.7912 C.ar    1  UNL1        0.0001
     45 C           2.4047   -1.5433   20.1137 C.ar    1  UNL1        0.0015
     46 C           2.2947   -0.1301   19.6230 C.ar    1  UNL1        0.0178
     47 C           1.0762    0.6831   19.9455 C.ar    1  UNL1        0.0076
     48 O          -6.0717    5.7043   22.1381 O.3     1  UNL1       -0.4684
     49 C          -7.2051    5.0865   22.9020 C.3     1  UNL1        0.2526
     50 O          -5.6079    4.7442   19.3340 O.3     1  UNL1       -0.4683
     51 C          -5.1957    4.6738   17.8935 C.3     1  UNL1        0.2526
@<TRIPOS>BOND
     1    24    25    1
     2    25    18    1
     3    18    19   ar
     4    19    20   ar
     5    20    21   ar
     6    21    17    1
     7    17    11    1
     8    11    12    1
     9    12    13    1
    10    13    14    1
    11    14     5    1
    12     5     6   ar
    13     6     7   ar
    14     7     8   ar
    15     8     1    1
    16     1     2   am
    17     2     3    2
    18     2    28    1
    19    28    29   ar
    20    29    30   ar
    21    30    48    1
    22    48    49    1
    23    30    31   ar
    24    31    50    1
    25    50    51    1
    26    31    32   ar
    27    32    33   ar
    28    33    34    1
    29    34    35   am
    30    35    36    2
    31    35    38    1
    32    38    39   ar
    33    39    40   ar
    34    40    41   ar
    35    41    42   ar
    36    42    43   ar
    37    43    44   ar
    38    44    45   ar
    39    45    46   ar
    40    46    47   ar
    41     8     9   ar
    42     9    10   ar
    43    14    15    1
    44    15    16    1
    45    21    22   ar
    46    22    23   ar
    47    23    26    1
    48    26    27    1
    49    23    18   ar
    50    16    11    1
    51    10     5   ar
    52    33    28   ar
    53    47    38   ar
    54    46    41   ar
    55     1     4    1
    56    34    37    1
@<TRIPOS>MOLECULE
*****
 51 56 0 0 0
SMALL
GASTEIGER

@<TRIPOS>ATOM
      1 N           2.5904   -0.1156   26.0496 N.am    1  UNL1       -0.2803
      2 C           3.2086    0.6696   24.9310 C.2     1  UNL1        0.2508
      3 O           3.6840    2.0718   25.1722 O.2     1  UNL1       -0.2698
      4 H           2.2784   -1.0358   25.8913 H       1  UNL1        0.1552
      5 C           2.1617    1.7352   30.1290 C.ar    1  UNL1        0.0480
      6 C           3.3848    0.9342   29.7935 C.ar    1  UNL1        0.0158
      7 C           3.5277    0.3173   28.4337 C.ar    1  UNL1        0.0159
      8 C           2.4475    0.5014   27.4094 C.ar    1  UNL1        0.0506
      9 C           1.2244    1.3023   27.7448 C.ar    1  UNL1        0.0159
     10 C           1.0815    1.9193   29.1046 C.ar    1  UNL1        0.0158
     11 N           1.7331    3.5860   34.2083 N.3     1  UNL1       -0.2660
     12 C           2.4167    2.2597   34.0544 C.3     1  UNL1        0.0941
     13 C           2.5596    1.6428   32.6947 C.3     1  UNL1        0.1081
     14 N           2.0188    2.3521   31.4887 N.pl3   1  UNL1       -0.3046
     15 C           1.3352    3.6784   31.6425 C.3     1  UNL1        0.1081
     16 C           1.1923    4.2954   33.0023 C.3     1  UNL1        0.0941
     17 C           1.5902    4.2029   35.5680 C.3     1  UNL1        0.0993
     18 C           4.2246    2.8318   38.9489 C.ar    1  UNL1        0.1724
     19 C           4.6773    3.9429   38.0485 C.ar    1  UNL1        0.0398
     20 C           3.7991    4.3999   36.9216 C.ar    1  UNL1        0.0004
     21 C           2.4684    3.7458   36.6950 C.ar    1  UNL1       -0.0029
     22 C           2.0157    2.6348   37.5954 C.ar    1  UNL1        0.0371
     23 C           2.8939    2.1778   38.7223 C.ar    1  UNL1        0.1721
     24 C           6.1914    3.2701   40.5889 C.3     1  UNL1        0.2526
     25 O           5.1028    2.3748   40.0759 O.3     1  UNL1       -0.4684
     26 O           2.4412    1.0667   39.6227 O.3     1  UNL1       -0.4684
     27 C           1.2012    0.2906   39.2911 C.3     1  UNL1        0.2526
     28 C           3.3515    0.0527   23.5712 C.ar    1  UNL1        0.0703
     29 C           4.6483   -0.5854   23.1697 C.ar    1  UNL1        0.0458
     30 C           4.7912   -1.2023   21.8099 C.ar    1  UNL1        0.1726
     31 C           3.6374   -1.1811   20.8516 C.ar    1  UNL1        0.1736
     32 C           2.3407   -0.5429   21.2532 C.ar    1  UNL1        0.0549
     33 C           2.1977    0.0740   22.6129 C.ar    1  UNL1        0.0582
     34 N           0.9010    0.7122   23.0144 N.am    1  UNL1       -0.2801
     35 C           0.6965    2.1848   22.8153 C.2     1  UNL1        0.2510
     36 O           1.7888    3.0192   22.2148 O.2     1  UNL1       -0.2698
     37 H           0.1841    0.1645   23.4086 H       1  UNL1        0.1552
     38 C          -0.6003    2.8229   23.2169 C.ar    1  UNL1        0.0728
     39 C          -1.4855    3.4417   22.1760 C.ar    1  UNL1        0.1033
     40 N          -2.7823    4.0799   22.5774 N.ar    1  UNL1       -0.2437
     41 C          -3.1938    4.0992   24.0198 C.ar    1  UNL1        0.0813
     42 C          -4.4906    4.7373   24.4213 C.ar    1  UNL1        0.0191
     43 C          -4.9020    4.7567   25.8635 C.ar    1  UNL1        0.0015
     44 C          -4.0168    4.1379   26.9044 C.ar    1  UNL1        0.0001
     45 C          -2.7200    3.4997   26.5030 C.ar    1  UNL1        0.0015
     46 C          -2.3085    3.4804   25.0607 C.ar    1  UNL1        0.0178
     47 C          -1.0117    2.8423   24.6591 C.ar    1  UNL1        0.0076
     48 O           6.0880   -1.8405   21.4084 O.3     1  UNL1       -0.4684
     49 C           6.8854   -2.6160   22.4147 C.3     1  UNL1        0.2526
     50 O           3.7804   -1.7979   19.4919 O.3     1  UNL1       -0.4683
     51 C           3.5574   -3.2699   19.3089 C.3     1  UNL1        0.2526
@<TRIPOS>BOND
     1    24    25    1
     2    25    18    1
     3    18    19   ar
     4    19    20   ar
     5    20    21   ar
     6    21    17    1
     7    17    11    1
     8    11    12    1
     9    12    13    1
    10    13    14    1
    11    14     5    1
    12     5     6   ar
    13     6     7   ar
    14     7     8   ar
    15     8     1    1
    16     1     2   am
    17     2     3    2
    18     2    28    1
    19    28    29   ar
    20    29    30   ar
    21    30    48    1
    22    48    49    1
    23    30    31   ar
    24    31    50    1
    25    50    51    1
    26    31    32   ar
    27    32    33   ar
    28    33    34    1
    29    34    35   am
    30    35    36    2
    31    35    38    1
    32    38    39   ar
    33    39    40   ar
    34    40    41   ar
    35    41    42   ar
    36    42    43   ar
    37    43    44   ar
    38    44    45   ar
    39    45    46   ar
    40    46    47   ar
    41     8     9   ar
    42     9    10   ar
    43    14    15    1
    44    15    16    1
    45    21    22   ar
    46    22    23   ar
    47    23    26    1
    48    26    27    1
    49    23    18   ar
    50    16    11    1
    51    10     5   ar
    52    33    28   ar
    53    47    38   ar
    54    46    41   ar
    55     1     4    1
    56    34    37    1
