@<TRIPOS>MOLECULE
*****
 30 32 0 0 0
SMALL
GASTEIGER

@<TRIPOS>ATOM
      1 O          -9.0552  -19.7976   22.2344 O.2     1  UNL1       -0.2732
      2 C          -8.3622  -18.6870   21.5020 C.2     1  UNL1        0.2430
      3 N          -8.3411  -17.3042   22.0828 N.am    1  UNL1       -0.2972
      4 H          -7.8863  -16.5753   21.6021 H       1  UNL1        0.1500
      5 C          -7.6903  -18.9592   20.1889 C.3     1  UNL1        0.1759
      6 N          -6.2602  -18.5573   19.9806 N.am    1  UNL1       -0.2931
      7 C          -5.1682  -19.2492   20.7414 C.2     1  UNL1        0.2462
      8 O          -5.5063  -20.3430   21.7105 O.2     1  UNL1       -0.2701
      9 H          -6.0382  -17.8394   19.3445 H       1  UNL1        0.1502
     10 C          -3.7381  -18.8473   20.5331 C.ar    1  UNL1        0.0534
     11 C          -2.7986  -18.7860   21.7008 C.ar    1  UNL1        0.0054
     12 C          -1.3686  -18.3841   21.4924 C.ar    1  UNL1        0.0115
     13 C          -0.8780  -18.0435   20.1164 C.ar    1  UNL1        0.0577
     14 CL          0.5521  -17.6416   19.9081 Cl      1  UNL1       -0.0822
     15 C          -1.8176  -18.1048   18.9488 C.ar    1  UNL1        0.0115
     16 C          -3.2476  -18.5067   19.1571 C.ar    1  UNL1        0.0054
     17 C          -9.0131  -17.0319   23.3960 C.3     1  UNL1        0.1169
     18 C         -10.4665  -17.3559   23.5761 C.ar    1  UNL1       -0.0003
     19 C         -11.5065  -16.5837   22.8196 C.ar    1  UNL1       -0.0015
     20 C         -12.9599  -16.9077   22.9997 C.ar    1  UNL1        0.0111
     21 C         -13.3735  -18.0039   23.9364 C.ar    1  UNL1        0.0577
     22 CL        -14.8269  -18.3279   24.1166 Cl      1  UNL1       -0.0822
     23 C         -12.3336  -18.7761   24.6929 C.ar    1  UNL1        0.0111
     24 C         -10.8801  -18.4521   24.5128 C.ar    1  UNL1       -0.0015
     25 C          -8.2315  -16.4357   24.5289 C.ar    1  UNL1       -0.0003
     26 C          -6.8483  -15.9073   24.2896 C.ar    1  UNL1       -0.0024
     27 C          -6.0667  -15.3110   25.4226 C.ar    1  UNL1       -0.0003
     28 C          -6.6684  -15.2431   26.7949 C.ar    1  UNL1       -0.0000
     29 C          -8.0517  -15.7716   27.0342 C.ar    1  UNL1       -0.0003
     30 C          -8.8333  -16.3678   25.9013 C.ar    1  UNL1       -0.0024
@<TRIPOS>BOND
     1     1     2    2
     2     2     5    1
     3     5     6    1
     4     6     7   am
     5     7     8    2
     6     7    10    1
     7    10    11   ar
     8    11    12   ar
     9    12    13   ar
    10    13    14    1
    11    13    15   ar
    12    15    16   ar
    13     2     3   am
    14     3    17    1
    15    17    25    1
    16    25    26   ar
    17    26    27   ar
    18    27    28   ar
    19    28    29   ar
    20    29    30   ar
    21    17    18    1
    22    18    19   ar
    23    19    20   ar
    24    20    21   ar
    25    21    22    1
    26    21    23   ar
    27    23    24   ar
    28    16    10   ar
    29    30    25   ar
    30    24    18   ar
    31     6     9    1
    32     3     4    1
@<TRIPOS>MOLECULE
*****
 30 32 0 0 0
SMALL
GASTEIGER

@<TRIPOS>ATOM
      1 O          -9.3310  -16.9214   20.9905 O.2     1  UNL1       -0.2732
      2 C          -8.7390  -18.2469   21.3680 C.2     1  UNL1        0.2430
      3 N          -8.8792  -18.7586   22.7710 N.am    1  UNL1       -0.2972
      4 H          -8.4906  -19.6286   23.0188 H       1  UNL1        0.1500
      5 C          -8.0069  -19.0607   20.3425 C.3     1  UNL1        0.1759
      6 N          -6.5651  -18.7720   20.0457 N.am    1  UNL1       -0.2931
      7 C          -5.4984  -19.2210   20.9999 C.2     1  UNL1        0.2462
      8 O          -5.8734  -19.9587   22.2510 O.2     1  UNL1       -0.2701
      9 H          -6.3189  -18.2878   19.2246 H       1  UNL1        0.1502
     10 C          -4.0566  -18.9323   20.7031 C.ar    1  UNL1        0.0534
     11 C          -3.6286  -18.6144   19.3011 C.ar    1  UNL1        0.0054
     12 C          -2.1869  -18.3257   19.0043 C.ar    1  UNL1        0.0115
     13 C          -1.1732  -18.3549   20.1096 C.ar    1  UNL1        0.0577
     14 CL          0.2685  -18.0662   19.8127 Cl      1  UNL1       -0.0822
     15 C          -1.6013  -18.6728   21.5116 C.ar    1  UNL1        0.0115
     16 C          -3.0430  -18.9615   21.8083 C.ar    1  UNL1        0.0054
     17 C          -9.6114  -17.9448   23.7966 C.3     1  UNL1        0.1169
     18 C          -8.8440  -17.1192   24.7862 C.ar    1  UNL1       -0.0003
     19 C          -7.8658  -16.0888   24.3049 C.ar    1  UNL1       -0.0015
     20 C          -7.0984  -15.2632   25.2946 C.ar    1  UNL1        0.0111
     21 C          -7.3092  -15.4680   26.7656 C.ar    1  UNL1        0.0577
     22 CL         -6.5418  -14.6423   27.7553 Cl      1  UNL1       -0.0822
     23 C          -8.2873  -16.4983   27.2468 C.ar    1  UNL1        0.0111
     24 C          -9.0547  -17.3240   26.2572 C.ar    1  UNL1       -0.0015
     25 C         -11.1108  -17.9567   23.8324 C.ar    1  UNL1       -0.0003
     26 C         -11.8909  -17.1266   22.8566 C.ar    1  UNL1       -0.0024
     27 C         -13.3905  -17.1384   22.8924 C.ar    1  UNL1       -0.0003
     28 C         -14.1099  -17.9804   23.9041 C.ar    1  UNL1       -0.0000
     29 C         -13.3297  -18.8106   24.8800 C.ar    1  UNL1       -0.0003
     30 C         -11.8303  -18.7987   24.8441 C.ar    1  UNL1       -0.0024
@<TRIPOS>BOND
     1     1     2    2
     2     2     5    1
     3     5     6    1
     4     6     7   am
     5     7     8    2
     6     7    10    1
     7    10    11   ar
     8    11    12   ar
     9    12    13   ar
    10    13    14    1
    11    13    15   ar
    12    15    16   ar
    13     2     3   am
    14     3    17    1
    15    17    25    1
    16    25    26   ar
    17    26    27   ar
    18    27    28   ar
    19    28    29   ar
    20    29    30   ar
    21    17    18    1
    22    18    19   ar
    23    19    20   ar
    24    20    21   ar
    25    21    22    1
    26    21    23   ar
    27    23    24   ar
    28    16    10   ar
    29    30    25   ar
    30    24    18   ar
    31     6     9    1
    32     3     4    1
@<TRIPOS>MOLECULE
*****
 30 32 0 0 0
SMALL
GASTEIGER

@<TRIPOS>ATOM
      1 O          -8.2457  -15.7872   21.9532 O.2     1  UNL1       -0.2732
      2 C          -7.6746  -16.7140   22.9850 C.2     1  UNL1        0.2430
      3 N          -8.3133  -18.0489   23.2297 N.am    1  UNL1       -0.2972
      4 H          -7.9384  -18.6572   23.9070 H       1  UNL1        0.1500
      5 C          -6.4648  -16.3059   23.7723 C.3     1  UNL1        0.1759
      6 N          -5.1101  -16.3225   23.1282 N.am    1  UNL1       -0.2931
      7 C          -4.5679  -17.5981   22.5548 C.2     1  UNL1        0.2462
      8 O          -5.3803  -18.8571   22.6255 O.2     1  UNL1       -0.2701
      9 H          -4.5770  -15.4962   23.0818 H       1  UNL1        0.1502
     10 C          -3.2133  -17.6148   21.9107 C.ar    1  UNL1        0.0534
     11 C          -2.6585  -18.8967   21.3640 C.ar    1  UNL1        0.0054
     12 C          -1.3040  -18.9133   20.7200 C.ar    1  UNL1        0.0115
     13 C          -0.5042  -17.6480   20.6227 C.ar    1  UNL1        0.0577
     14 CL          0.8505  -17.6647   19.9786 Cl      1  UNL1       -0.0822
     15 C          -1.0590  -16.3661   21.1694 C.ar    1  UNL1        0.0115
     16 C          -2.4135  -16.3495   21.8134 C.ar    1  UNL1        0.0054
     17 C          -9.5232  -18.4571   22.4425 C.3     1  UNL1        0.1169
     18 C          -9.3602  -19.1253   21.1095 C.ar    1  UNL1       -0.0003
     19 C          -7.9914  -19.4882   20.6148 C.ar    1  UNL1       -0.0015
     20 C          -7.8284  -20.1564   19.2817 C.ar    1  UNL1        0.0111
     21 C          -9.0343  -20.4616   18.4433 C.ar    1  UNL1        0.0577
     22 CL         -8.8714  -21.1297   17.1103 Cl      1  UNL1       -0.0822
     23 C         -10.4031  -20.0986   18.9380 C.ar    1  UNL1        0.0111
     24 C         -10.5660  -19.4304   20.2711 C.ar    1  UNL1       -0.0015
     25 C         -10.8959  -18.1972   22.9883 C.ar    1  UNL1       -0.0003
     26 C         -11.4119  -19.0099   24.1386 C.ar    1  UNL1       -0.0024
     27 C         -12.7847  -18.7500   24.6845 C.ar    1  UNL1       -0.0003
     28 C         -13.6414  -17.6773   24.0801 C.ar    1  UNL1       -0.0000
     29 C         -13.1253  -16.8645   22.9298 C.ar    1  UNL1       -0.0003
     30 C         -11.7526  -17.1244   22.3839 C.ar    1  UNL1       -0.0024
@<TRIPOS>BOND
     1     1     2    2
     2     2     5    1
     3     5     6    1
     4     6     7   am
     5     7     8    2
     6     7    10    1
     7    10    11   ar
     8    11    12   ar
     9    12    13   ar
    10    13    14    1
    11    13    15   ar
    12    15    16   ar
    13     2     3   am
    14     3    17    1
    15    17    25    1
    16    25    26   ar
    17    26    27   ar
    18    27    28   ar
    19    28    29   ar
    20    29    30   ar
    21    17    18    1
    22    18    19   ar
    23    19    20   ar
    24    20    21   ar
    25    21    22    1
    26    21    23   ar
    27    23    24   ar
    28    16    10   ar
    29    30    25   ar
    30    24    18   ar
    31     6     9    1
    32     3     4    1
@<TRIPOS>MOLECULE
*****
 30 32 0 0 0
SMALL
GASTEIGER

@<TRIPOS>ATOM
      1 O          -8.4565  -15.7705   22.2431 O.2     1  UNL1       -0.2732
      2 C          -7.7024  -16.7460   23.0974 C.2     1  UNL1        0.2430
      3 N          -8.1687  -18.1677   23.2024 N.am    1  UNL1       -0.2972
      4 H          -7.6738  -18.8080   23.7631 H       1  UNL1        0.1500
      5 C          -6.4821  -16.2997   23.8467 C.3     1  UNL1        0.1759
      6 N          -5.1422  -16.3100   23.1722 N.am    1  UNL1       -0.2931
      7 C          -4.5897  -17.5912   22.6216 C.2     1  UNL1        0.2462
      8 O          -5.3768  -18.8620   22.7454 O.2     1  UNL1       -0.2701
      9 H          -4.6256  -15.4760   23.0909 H       1  UNL1        0.1502
     10 C          -3.2499  -17.6016   21.9471 C.ar    1  UNL1        0.0534
     11 C          -2.7240  -18.8700   21.3433 C.ar    1  UNL1        0.0054
     12 C          -1.3842  -18.8803   20.6688 C.ar    1  UNL1        0.0115
     13 C          -0.5704  -17.6222   20.5982 C.ar    1  UNL1        0.0577
     14 CL          0.7694  -17.6326   19.9237 Cl      1  UNL1       -0.0822
     15 C          -1.0963  -16.3539   21.2020 C.ar    1  UNL1        0.0115
     16 C          -2.4360  -16.3435   21.8764 C.ar    1  UNL1        0.0054
     17 C          -9.3892  -18.6141   22.4531 C.3     1  UNL1        0.1169
     18 C         -10.7429  -18.5009   23.0892 C.ar    1  UNL1       -0.0003
     19 C         -11.8285  -17.7208   22.4087 C.ar    1  UNL1       -0.0015
     20 C         -13.1822  -17.6076   23.0447 C.ar    1  UNL1        0.0111
     21 C         -13.4504  -18.2746   24.3613 C.ar    1  UNL1        0.0577
     22 CL        -14.8041  -18.1615   24.9974 Cl      1  UNL1       -0.0822
     23 C         -12.3648  -19.0547   25.0417 C.ar    1  UNL1        0.0111
     24 C         -11.0111  -19.1679   24.4056 C.ar    1  UNL1       -0.0015
     25 C          -9.2558  -19.1736   21.0678 C.ar    1  UNL1       -0.0003
     26 C         -10.4814  -19.5571   20.2926 C.ar    1  UNL1       -0.0024
     27 C         -10.3481  -20.1166   18.9072 C.ar    1  UNL1       -0.0003
     28 C          -8.9891  -20.2926   18.2970 C.ar    1  UNL1       -0.0000
     29 C          -7.7635  -19.9090   19.0722 C.ar    1  UNL1       -0.0003
     30 C          -7.8969  -19.3496   20.4576 C.ar    1  UNL1       -0.0024
@<TRIPOS>BOND
     1     1     2    2
     2     2     5    1
     3     5     6    1
     4     6     7   am
     5     7     8    2
     6     7    10    1
     7    10    11   ar
     8    11    12   ar
     9    12    13   ar
    10    13    14    1
    11    13    15   ar
    12    15    16   ar
    13     2     3   am
    14     3    17    1
    15    17    25    1
    16    25    26   ar
    17    26    27   ar
    18    27    28   ar
    19    28    29   ar
    20    29    30   ar
    21    17    18    1
    22    18    19   ar
    23    19    20   ar
    24    20    21   ar
    25    21    22    1
    26    21    23   ar
    27    23    24   ar
    28    16    10   ar
    29    30    25   ar
    30    24    18   ar
    31     6     9    1
    32     3     4    1
@<TRIPOS>MOLECULE
*****
 30 32 0 0 0
SMALL
GASTEIGER

@<TRIPOS>ATOM
      1 O          -5.2449  -18.2444   19.6548 O.2     1  UNL1       -0.2732
      2 C          -6.1615  -18.9092   20.6387 C.2     1  UNL1        0.2430
      3 N          -5.9287  -18.7432   22.1112 N.am    1  UNL1       -0.2972
      4 H          -6.5302  -19.1795   22.7569 H       1  UNL1        0.1500
      5 C          -7.3108  -19.7399   20.1501 C.3     1  UNL1        0.1759
      6 N          -8.6373  -19.6688   20.8470 N.am    1  UNL1       -0.2931
      7 C          -9.1110  -18.3692   21.4271 C.2     1  UNL1        0.2462
      8 O          -8.2584  -17.1407   21.3104 O.2     1  UNL1       -0.2701
      9 H          -9.1969  -20.4752   20.9237 H       1  UNL1        0.1502
     10 C         -10.4375  -18.2982   22.1240 C.ar    1  UNL1        0.0534
     11 C         -10.5499  -18.6985   23.5652 C.ar    1  UNL1        0.0054
     12 C         -11.8763  -18.6274   24.2620 C.ar    1  UNL1        0.0115
     13 C         -13.0902  -18.1560   23.5176 C.ar    1  UNL1        0.0577
     14 CL        -14.4167  -18.0849   24.2145 Cl      1  UNL1       -0.0822
     15 C         -12.9778  -17.7557   22.0765 C.ar    1  UNL1        0.0115
     16 C         -11.6514  -17.8268   21.3796 C.ar    1  UNL1        0.0054
     17 C          -4.7792  -17.9124   22.5998 C.3     1  UNL1        0.1169
     18 C          -3.4536  -17.9814   21.9013 C.ar    1  UNL1       -0.0003
     19 C          -2.8663  -19.3127   21.5369 C.ar    1  UNL1       -0.0015
     20 C          -1.5407  -19.3817   20.8384 C.ar    1  UNL1        0.0111
     21 C          -0.8024  -18.1194   20.5042 C.ar    1  UNL1        0.0577
     22 CL          0.5232  -18.1884   19.8056 Cl      1  UNL1       -0.0822
     23 C          -1.3897  -16.7882   20.8685 C.ar    1  UNL1        0.0111
     24 C          -2.7154  -16.7192   21.5671 C.ar    1  UNL1       -0.0015
     25 C          -4.9555  -17.0127   23.7870 C.ar    1  UNL1       -0.0003
     26 C          -4.1449  -17.2413   25.0282 C.ar    1  UNL1       -0.0024
     27 C          -4.3211  -16.3415   26.2154 C.ar    1  UNL1       -0.0003
     28 C          -5.3079  -15.2131   26.1614 C.ar    1  UNL1       -0.0000
     29 C          -6.1185  -14.9845   24.9201 C.ar    1  UNL1       -0.0003
     30 C          -5.9423  -15.8843   23.7329 C.ar    1  UNL1       -0.0024
@<TRIPOS>BOND
     1     1     2    2
     2     2     5    1
     3     5     6    1
     4     6     7   am
     5     7     8    2
     6     7    10    1
     7    10    11   ar
     8    11    12   ar
     9    12    13   ar
    10    13    14    1
    11    13    15   ar
    12    15    16   ar
    13     2     3   am
    14     3    17    1
    15    17    25    1
    16    25    26   ar
    17    26    27   ar
    18    27    28   ar
    19    28    29   ar
    20    29    30   ar
    21    17    18    1
    22    18    19   ar
    23    19    20   ar
    24    20    21   ar
    25    21    22    1
    26    21    23   ar
    27    23    24   ar
    28    16    10   ar
    29    30    25   ar
    30    24    18   ar
    31     6     9    1
    32     3     4    1
