@<TRIPOS>MOLECULE
*****
 43 47 0 0 0
SMALL
GASTEIGER

@<TRIPOS>ATOM
      1 N           5.0554   -0.3641   21.6104 N.ar    1  UNL1       -0.3260
      2 C           4.1562   -0.6895   20.4547 C.ar    1  UNL1        0.0433
      3 C           2.8249   -0.0463   20.7078 C.ar    1  UNL1        0.0383
      4 C           2.9013    0.6764   22.0200 C.ar    1  UNL1        0.0256
      5 C           1.8937    1.4881   22.7789 C.ar    1  UNL1        0.0389
      6 C           2.2647    2.1033   24.0957 C.ar    1  UNL1        0.1392
      7 C           3.6432    1.9069   24.6535 C.ar    1  UNL1        0.0384
      8 C           4.6507    1.0952   23.8946 C.ar    1  UNL1        0.0203
      9 C           4.2798    0.4800   22.5778 C.ar    1  UNL1        0.0606
     10 C           6.4800   -0.8055   21.7706 C.3     1  UNL1        0.1324
     11 C           7.4440   -4.4498   24.2281 C.ar    1  UNL1        0.0015
     12 C           6.0286   -3.9625   24.1327 C.ar    1  UNL1       -0.0002
     13 C           5.7072   -2.7477   23.3135 C.ar    1  UNL1       -0.0024
     14 C           6.8013   -2.0202   22.5897 C.ar    1  UNL1        0.0004
     15 C           8.2167   -2.5076   22.6852 C.ar    1  UNL1       -0.0024
     16 C           8.5381   -3.7224   23.5044 C.ar    1  UNL1       -0.0002
     17 C           8.7295   -9.3089   27.5048 C.3     1  UNL1        0.0521
     18 C           8.4081   -8.0941   26.6856 C.ar    1  UNL1        0.0594
     19 C           8.9369   -7.9712   25.2872 C.ar    1  UNL1        0.0147
     20 C           8.6155   -6.7564   24.4681 C.ar    1  UNL1        0.0028
     21 C           7.7654   -5.6646   25.0473 C.ar    1  UNL1        0.0192
     22 C           7.2367   -5.7876   26.4456 C.ar    1  UNL1        0.0984
     23 N           7.5580   -7.0024   27.2648 N.ar    1  UNL1       -0.2481
     24 C           4.5238   -1.5133   19.2562 C.3     1  UNL1        0.0495
     25 C           4.9693   -2.9348   19.4313 C.3     1  UNL1        0.0376
     26 C           6.2600   -2.6158   18.7370 C.3     1  UNL1        0.0059
     27 C           3.6785   -3.2538   20.1256 C.3     1  UNL1        0.0059
     28 C           5.4148   -4.3564   19.6064 C.2     1  UNL1        0.0500
     29 O           4.6642   -5.4661   18.9317 O.co2   1  UNL1       -0.5492
     30 O           6.6109   -4.6683   20.4560 O.co2   1  UNL1       -0.5492
     31 S           1.6275   -0.1141   19.8070 S.3     1  UNL1       -0.1142
     32 C           1.1036    1.1341   19.1607 C.3     1  UNL1        0.0434
     33 C          -0.1145    1.0751   20.0341 C.3     1  UNL1        0.0112
     34 C           2.3216    1.1930   18.2873 C.3     1  UNL1        0.0112
     35 C           0.5797    2.3822   18.5143 C.3     1  UNL1        0.0112
     36 O           1.2571    2.9149   24.8547 O.3     1  UNL1       -0.4690
     37 C           1.3458    3.0139   26.3488 C.3     1  UNL1        0.2508
     38 C           0.7918    1.9157   27.2074 C.ar    1  UNL1        0.1026
     39 C          -0.6876    1.8145   27.4337 C.ar    1  UNL1        0.0185
     40 C          -1.2415    0.7163   28.2923 C.ar    1  UNL1        0.0029
     41 C          -0.3161   -0.2806   28.9245 C.ar    1  UNL1        0.0207
     42 C           1.1633   -0.1794   28.6982 C.ar    1  UNL1        0.0986
     43 N           1.7172    0.9187   27.8396 N.ar    1  UNL1       -0.2445
@<TRIPOS>UNITY_ATOM_ATTR
29 1
charge -1
@<TRIPOS>BOND
     1    17    18    1
     2    18    19   ar
     3    19    20   ar
     4    20    21   ar
     5    21    11    1
     6    11    12   ar
     7    12    13   ar
     8    13    14   ar
     9    14    10    1
    10    10     1    1
    11     1     2   ar
    12     2    24    1
    13    24    25    1
    14    25    26    1
    15    25    27    1
    16    25    28    1
    17    28    29   ar
    18    28    30   ar
    19     2     3   ar
    20     3    31    1
    21    31    32    1
    22    32    33    1
    23    32    34    1
    24    32    35    1
    25     3     4   ar
    26     4     5   ar
    27     5     6   ar
    28     6    36    1
    29    36    37    1
    30    37    38    1
    31    38    39   ar
    32    39    40   ar
    33    40    41   ar
    34    41    42   ar
    35    42    43   ar
    36     6     7   ar
    37     7     8   ar
    38     8     9   ar
    39    14    15   ar
    40    15    16   ar
    41    21    22   ar
    42    22    23   ar
    43    23    18   ar
    44    16    11   ar
    45     9     1   ar
    46     9     4   ar
    47    43    38   ar
@<TRIPOS>MOLECULE
*****
 43 47 0 0 0
SMALL
GASTEIGER

@<TRIPOS>ATOM
      1 N           4.0982    0.2848   22.3726 N.ar    1  UNL1       -0.3260
      2 C           3.9946   -0.6961   21.2426 C.ar    1  UNL1        0.0433
      3 C           4.4909   -2.0235   21.7341 C.ar    1  UNL1        0.0383
      4 C           4.9012   -1.8630   23.1680 C.ar    1  UNL1        0.0256
      5 C           5.4644   -2.8316   24.1652 C.ar    1  UNL1        0.0389
      6 C           5.7850   -2.3735   25.5571 C.ar    1  UNL1        0.1392
      7 C           5.5424   -0.9468   25.9517 C.ar    1  UNL1        0.0384
      8 C           4.9791    0.0218   24.9544 C.ar    1  UNL1        0.0203
      9 C           4.6585   -0.4363   23.5626 C.ar    1  UNL1        0.0606
     10 C           3.7098    1.7328   22.3217 C.3     1  UNL1        0.1324
     11 C          -0.4241    2.9988   23.5700 C.ar    1  UNL1        0.0015
     12 C           0.2145    1.7967   24.2001 C.ar    1  UNL1       -0.0002
     13 C           1.5925    1.3747   23.7841 C.ar    1  UNL1       -0.0024
     14 C           2.3319    2.1547   22.7378 C.ar    1  UNL1        0.0004
     15 C           1.6933    3.3569   22.1076 C.ar    1  UNL1       -0.0024
     16 C           0.3153    3.7790   22.5236 C.ar    1  UNL1       -0.0002
     17 C          -5.9358    4.6871   25.2342 C.3     1  UNL1        0.0521
     18 C          -4.5579    4.2650   24.8182 C.ar    1  UNL1        0.0594
     19 C          -3.5618    3.8317   25.8527 C.ar    1  UNL1        0.0147
     20 C          -2.1839    3.4097   25.4366 C.ar    1  UNL1        0.0028
     21 C          -1.8020    3.4209   23.9860 C.ar    1  UNL1        0.0192
     22 C          -2.7981    3.8542   22.9516 C.ar    1  UNL1        0.0984
     23 N          -4.1760    4.2762   23.3677 N.ar    1  UNL1       -0.2481
     24 C           3.4843   -0.4014   19.8632 C.3     1  UNL1        0.0495
     25 C           2.1173    0.1880   19.6792 C.3     1  UNL1        0.0376
     26 C           2.7038    1.2881   18.8452 C.3     1  UNL1        0.0059
     27 C           1.5308   -0.9121   20.5133 C.3     1  UNL1        0.0059
     28 C           0.7503    0.7774   19.4952 C.2     1  UNL1        0.0500
     29 O           0.4013    1.4773   18.2152 O.co2   1  UNL1       -0.5492
     30 O          -0.2678    0.6670   20.5912 O.co2   1  UNL1       -0.5492
     31 S           4.5640   -3.2893   20.9326 S.3     1  UNL1       -0.1142
     32 C           5.0483   -3.2515   19.5134 C.3     1  UNL1        0.0434
     33 C           3.7003   -3.7093   19.0411 C.3     1  UNL1        0.0112
     34 C           6.3964   -2.7936   19.9857 C.3     1  UNL1        0.0112
     35 C           5.5327   -3.2136   18.0943 C.3     1  UNL1        0.0112
     36 O           6.3483   -3.3421   26.5544 O.3     1  UNL1       -0.4690
     37 C           7.7494   -3.8533   26.3947 C.3     1  UNL1        0.2508
     38 C           8.0210   -5.0326   25.5086 C.ar    1  UNL1        0.1026
     39 C           7.8068   -6.4243   26.0256 C.ar    1  UNL1        0.0185
     40 C           8.0784   -7.6037   25.1394 C.ar    1  UNL1        0.0029
     41 C           8.5643   -7.3914   23.7363 C.ar    1  UNL1        0.0207
     42 C           8.7785   -5.9997   23.2193 C.ar    1  UNL1        0.0986
     43 N           8.5069   -4.8204   24.1054 N.ar    1  UNL1       -0.2445
@<TRIPOS>UNITY_ATOM_ATTR
29 1
charge -1
@<TRIPOS>BOND
     1    17    18    1
     2    18    19   ar
     3    19    20   ar
     4    20    21   ar
     5    21    11    1
     6    11    12   ar
     7    12    13   ar
     8    13    14   ar
     9    14    10    1
    10    10     1    1
    11     1     2   ar
    12     2    24    1
    13    24    25    1
    14    25    26    1
    15    25    27    1
    16    25    28    1
    17    28    29   ar
    18    28    30   ar
    19     2     3   ar
    20     3    31    1
    21    31    32    1
    22    32    33    1
    23    32    34    1
    24    32    35    1
    25     3     4   ar
    26     4     5   ar
    27     5     6   ar
    28     6    36    1
    29    36    37    1
    30    37    38    1
    31    38    39   ar
    32    39    40   ar
    33    40    41   ar
    34    41    42   ar
    35    42    43   ar
    36     6     7   ar
    37     7     8   ar
    38     8     9   ar
    39    14    15   ar
    40    15    16   ar
    41    21    22   ar
    42    22    23   ar
    43    23    18   ar
    44    16    11   ar
    45     9     1   ar
    46     9     4   ar
    47    43    38   ar
@<TRIPOS>MOLECULE
*****
 43 47 0 0 0
SMALL
GASTEIGER

@<TRIPOS>ATOM
      1 N           4.8152   -2.7751   22.5326 N.ar    1  UNL1       -0.3260
      2 C           6.0334   -3.4863   22.0224 C.ar    1  UNL1        0.0433
      3 C           7.0718   -3.4616   23.1045 C.ar    1  UNL1        0.0383
      4 C           6.4955   -2.7350   24.2835 C.ar    1  UNL1        0.0256
      5 C           7.0604   -2.4050   25.6333 C.ar    1  UNL1        0.0389
      6 C           6.2308   -1.6506   26.6295 C.ar    1  UNL1        0.1392
      7 C           4.8361   -1.2264   26.2760 C.ar    1  UNL1        0.0384
      8 C           4.2711   -1.5565   24.9263 C.ar    1  UNL1        0.0203
      9 C           5.1008   -2.3108   23.9300 C.ar    1  UNL1        0.0606
     10 C           3.5361   -2.5651   21.7779 C.3     1  UNL1        0.1324
     11 C           2.8554    1.2714   19.5267 C.ar    1  UNL1        0.0015
     12 C           4.1343    1.0618   20.2820 C.ar    1  UNL1       -0.0002
     13 C           4.3612   -0.2171   21.0324 C.ar    1  UNL1       -0.0024
     14 C           3.3092   -1.2863   21.0275 C.ar    1  UNL1        0.0004
     15 C           2.0303   -1.0766   20.2722 C.ar    1  UNL1       -0.0024
     16 C           1.8034    0.2022   19.5218 C.ar    1  UNL1       -0.0002
     17 C           1.9477    6.3867   16.5251 C.3     1  UNL1        0.0521
     18 C           2.1747    5.1078   17.2755 C.ar    1  UNL1        0.0594
     19 C           3.5696    4.5952   17.4791 C.ar    1  UNL1        0.0147
     20 C           3.7965    3.3164   18.2295 C.ar    1  UNL1        0.0028
     21 C           2.6285    2.5502   18.7763 C.ar    1  UNL1        0.0192
     22 C           1.2336    3.0629   18.5726 C.ar    1  UNL1        0.0984
     23 N           1.0067    4.3417   17.8222 N.ar    1  UNL1       -0.2481
     24 C           6.1862   -4.1124   20.6679 C.3     1  UNL1        0.0495
     25 C           5.9756   -3.2881   19.4326 C.3     1  UNL1        0.0376
     26 C           4.8271   -4.1695   19.0402 C.3     1  UNL1        0.0059
     27 C           7.1242   -2.4068   19.8249 C.3     1  UNL1        0.0059
     28 C           5.7650   -2.4638   18.1971 C.2     1  UNL1        0.0500
     29 O           6.9376   -2.0741   17.3466 O.co2   1  UNL1       -0.5492
     30 O           4.3819   -2.0292   17.8122 O.co2   1  UNL1       -0.5492
     31 S           8.4454   -4.0585   23.0222 S.3     1  UNL1       -0.1142
     32 C           8.6130   -5.5474   22.9489 C.3     1  UNL1        0.0434
     33 C           9.2337   -5.4107   21.5902 C.3     1  UNL1        0.0112
     34 C           7.9924   -5.6840   24.3076 C.3     1  UNL1        0.0112
     35 C           8.7806   -7.0362   22.8757 C.3     1  UNL1        0.0112
     36 O           6.7957   -1.3205   27.9793 O.3     1  UNL1       -0.4690
     37 C           6.0383   -1.6902   29.2202 C.3     1  UNL1        0.2508
     38 C           6.3539   -2.9686   29.9386 C.ar    1  UNL1        0.1026
     39 C           6.3542   -3.0058   31.4381 C.ar    1  UNL1        0.0185
     40 C           6.6698   -4.2843   32.1566 C.ar    1  UNL1        0.0029
     41 C           6.9851   -5.5254   31.3754 C.ar    1  UNL1        0.0207
     42 C           6.9849   -5.4881   29.8759 C.ar    1  UNL1        0.0986
     43 N           6.6693   -4.2098   29.1575 N.ar    1  UNL1       -0.2445
@<TRIPOS>UNITY_ATOM_ATTR
29 1
charge -1
@<TRIPOS>BOND
     1    17    18    1
     2    18    19   ar
     3    19    20   ar
     4    20    21   ar
     5    21    11    1
     6    11    12   ar
     7    12    13   ar
     8    13    14   ar
     9    14    10    1
    10    10     1    1
    11     1     2   ar
    12     2    24    1
    13    24    25    1
    14    25    26    1
    15    25    27    1
    16    25    28    1
    17    28    29   ar
    18    28    30   ar
    19     2     3   ar
    20     3    31    1
    21    31    32    1
    22    32    33    1
    23    32    34    1
    24    32    35    1
    25     3     4   ar
    26     4     5   ar
    27     5     6   ar
    28     6    36    1
    29    36    37    1
    30    37    38    1
    31    38    39   ar
    32    39    40   ar
    33    40    41   ar
    34    41    42   ar
    35    42    43   ar
    36     6     7   ar
    37     7     8   ar
    38     8     9   ar
    39    14    15   ar
    40    15    16   ar
    41    21    22   ar
    42    22    23   ar
    43    23    18   ar
    44    16    11   ar
    45     9     1   ar
    46     9     4   ar
    47    43    38   ar
@<TRIPOS>MOLECULE
*****
 43 47 0 0 0
SMALL
GASTEIGER

@<TRIPOS>ATOM
      1 N           5.5455   -0.0813   20.1547 N.ar    1  UNL1       -0.3260
      2 C           4.3324   -0.4666   19.3611 C.ar    1  UNL1        0.0433
      3 C           3.2800    0.5782   19.5864 C.ar    1  UNL1        0.0383
      4 C           3.8427    1.6093   20.5192 C.ar    1  UNL1        0.0256
      5 C           3.2611    2.8667   21.0942 C.ar    1  UNL1        0.0389
      6 C           4.0796    3.7165   22.0204 C.ar    1  UNL1        0.1392
      7 C           5.4798    3.3089   22.3716 C.ar    1  UNL1        0.0384
      8 C           6.0614    2.0515   21.7966 C.ar    1  UNL1        0.0203
      9 C           5.2429    1.2017   20.8704 C.ar    1  UNL1        0.0606
     10 C           6.8349   -0.8449   20.2209 C.3     1  UNL1        0.1324
     11 C           7.3288   -4.1721   23.2101 C.ar    1  UNL1        0.0015
     12 C           6.4572   -2.9954   23.5348 C.ar    1  UNL1       -0.0002
     13 C           6.2925   -1.8863   22.5385 C.ar    1  UNL1       -0.0024
     14 C           6.9995   -1.9539   21.2172 C.ar    1  UNL1        0.0004
     15 C           7.8712   -3.1307   20.8925 C.ar    1  UNL1       -0.0024
     16 C           8.0358   -4.2398   21.8888 C.ar    1  UNL1       -0.0002
     17 C           7.9875   -8.6085   27.1955 C.3     1  UNL1        0.0521
     18 C           7.8228   -7.4994   26.1992 C.ar    1  UNL1        0.0594
     19 C           8.3820   -7.6457   24.8149 C.ar    1  UNL1        0.0147
     20 C           8.2173   -6.5366   23.8186 C.ar    1  UNL1        0.0028
     21 C           7.4935   -5.2812   24.2064 C.ar    1  UNL1        0.0192
     22 C           6.9344   -5.1351   25.5906 C.ar    1  UNL1        0.0984
     23 N           7.0990   -6.2442   26.5870 N.ar    1  UNL1       -0.2481
     24 C           4.1956   -1.6832   18.4943 C.3     1  UNL1        0.0495
     25 C           4.3436   -3.0508   19.0926 C.3     1  UNL1        0.0376
     26 C           5.4367   -3.3608   18.1134 C.3     1  UNL1        0.0059
     27 C           3.2504   -2.7407   20.0718 C.3     1  UNL1        0.0059
     28 C           4.4916   -4.4184   19.6908 C.2     1  UNL1        0.0500
     29 O           4.7353   -5.6028   18.8033 O.co2   1  UNL1       -0.5492
     30 O           4.3959   -4.6015   21.1765 O.co2   1  UNL1       -0.5492
     31 S           1.9061    0.5900   18.9846 S.3     1  UNL1       -0.1142
     32 C           0.7671    1.2228   19.7278 C.3     1  UNL1        0.0434
     33 C           0.7936    0.1013   20.7234 C.3     1  UNL1        0.0112
     34 C           0.7406    2.3444   18.7321 C.3     1  UNL1        0.0112
     35 C          -0.3719    1.8557   20.4709 C.3     1  UNL1        0.0112
     36 O           3.4980    4.9739   22.5954 O.3     1  UNL1       -0.4690
     37 C           2.8085    4.9407   23.9271 C.3     1  UNL1        0.2508
     38 C           1.9965    3.7428   24.3216 C.ar    1  UNL1        0.1026
     39 C           0.5885    3.5948   23.8258 C.ar    1  UNL1        0.0185
     40 C          -0.2235    2.3968   24.2203 C.ar    1  UNL1        0.0029
     41 C           0.3724    1.3469   25.1105 C.ar    1  UNL1        0.0207
     42 C           1.7804    1.4949   25.6063 C.ar    1  UNL1        0.0986
     43 N           2.5924    2.6928   25.2119 N.ar    1  UNL1       -0.2445
@<TRIPOS>UNITY_ATOM_ATTR
29 1
charge -1
@<TRIPOS>BOND
     1    17    18    1
     2    18    19   ar
     3    19    20   ar
     4    20    21   ar
     5    21    11    1
     6    11    12   ar
     7    12    13   ar
     8    13    14   ar
     9    14    10    1
    10    10     1    1
    11     1     2   ar
    12     2    24    1
    13    24    25    1
    14    25    26    1
    15    25    27    1
    16    25    28    1
    17    28    29   ar
    18    28    30   ar
    19     2     3   ar
    20     3    31    1
    21    31    32    1
    22    32    33    1
    23    32    34    1
    24    32    35    1
    25     3     4   ar
    26     4     5   ar
    27     5     6   ar
    28     6    36    1
    29    36    37    1
    30    37    38    1
    31    38    39   ar
    32    39    40   ar
    33    40    41   ar
    34    41    42   ar
    35    42    43   ar
    36     6     7   ar
    37     7     8   ar
    38     8     9   ar
    39    14    15   ar
    40    15    16   ar
    41    21    22   ar
    42    22    23   ar
    43    23    18   ar
    44    16    11   ar
    45     9     1   ar
    46     9     4   ar
    47    43    38   ar
@<TRIPOS>MOLECULE
*****
 43 47 0 0 0
SMALL
GASTEIGER

@<TRIPOS>ATOM
      1 N           4.0245    0.3417   22.3576 N.ar    1  UNL1       -0.3260
      2 C           3.9456   -0.6915   21.2731 C.ar    1  UNL1        0.0433
      3 C           4.4623   -1.9859   21.8277 C.ar    1  UNL1        0.0383
      4 C           4.8605   -1.7526   23.2549 C.ar    1  UNL1        0.0256
      5 C           5.4346   -2.6642   24.2986 C.ar    1  UNL1        0.0389
      6 C           5.7381   -2.1373   25.6698 C.ar    1  UNL1        0.1392
      7 C           5.4675   -0.6987   25.9973 C.ar    1  UNL1        0.0384
      8 C           4.8934    0.2129   24.9536 C.ar    1  UNL1        0.0203
      9 C           4.5899   -0.3140   23.5824 C.ar    1  UNL1        0.0606
     10 C           3.6106    1.7786   22.2382 C.3     1  UNL1        0.1324
     11 C          -0.5258    3.0396   23.4834 C.ar    1  UNL1        0.0015
     12 C           0.1002    1.8184   24.0890 C.ar    1  UNL1       -0.0002
     13 C           1.4789    1.3980   23.6740 C.ar    1  UNL1       -0.0024
     14 C           2.2318    2.1989   22.6533 C.ar    1  UNL1        0.0004
     15 C           1.6059    3.4202   22.0477 C.ar    1  UNL1       -0.0024
     16 C           0.2271    3.8406   22.4627 C.ar    1  UNL1       -0.0002
     17 C          -6.0408    4.7212   25.1434 C.3     1  UNL1        0.0521
     18 C          -4.6621    4.3008   24.7284 C.ar    1  UNL1        0.0594
     19 C          -3.6477    3.9255   25.7679 C.ar    1  UNL1        0.0147
     20 C          -2.2690    3.5051   25.3528 C.ar    1  UNL1        0.0028
     21 C          -1.9045    3.4600   23.8984 C.ar    1  UNL1        0.0192
     22 C          -2.9189    3.8354   22.8591 C.ar    1  UNL1        0.0984
     23 N          -4.2977    4.2558   23.2741 N.ar    1  UNL1       -0.2481
     24 C           3.4389   -0.4694   19.8788 C.3     1  UNL1        0.0495
     25 C           2.0908    0.1510   19.6607 C.3     1  UNL1        0.0376
     26 C           1.4631   -0.9145   20.5095 C.3     1  UNL1        0.0059
     27 C           2.7185    1.2165   18.8118 C.3     1  UNL1        0.0059
     28 C           0.7426    0.7714   19.4425 C.2     1  UNL1        0.0500
     29 O           0.4363    1.4638   18.1476 O.co2   1  UNL1       -0.5492
     30 O          -0.2993    0.6993   20.5192 O.co2   1  UNL1       -0.5492
     31 S           4.5631   -3.2854   21.0854 S.3     1  UNL1       -0.1142
     32 C           4.9906   -3.2967   19.6475 C.3     1  UNL1        0.0434
     33 C           6.3441   -2.7876   20.0460 C.3     1  UNL1        0.0112
     34 C           3.6370   -3.8057   19.2492 C.3     1  UNL1        0.0112
     35 C           5.4179   -3.3080   18.2098 C.3     1  UNL1        0.0112
     36 O           6.3122   -3.0490   26.7135 O.3     1  UNL1       -0.4690
     37 C           6.1073   -2.7464   28.1684 C.3     1  UNL1        0.2508
     38 C           6.5324   -3.7403   29.2082 C.ar    1  UNL1        0.1026
     39 C           6.5119   -3.3623   30.6597 C.ar    1  UNL1        0.0185
     40 C           6.9370   -4.3563   31.6996 C.ar    1  UNL1        0.0029
     41 C           7.3826   -5.7282   31.2880 C.ar    1  UNL1        0.0207
     42 C           7.4031   -6.1061   29.8366 C.ar    1  UNL1        0.0986
     43 N           6.9780   -5.1122   28.7967 N.ar    1  UNL1       -0.2445
@<TRIPOS>UNITY_ATOM_ATTR
29 1
charge -1
@<TRIPOS>BOND
     1    17    18    1
     2    18    19   ar
     3    19    20   ar
     4    20    21   ar
     5    21    11    1
     6    11    12   ar
     7    12    13   ar
     8    13    14   ar
     9    14    10    1
    10    10     1    1
    11     1     2   ar
    12     2    24    1
    13    24    25    1
    14    25    26    1
    15    25    27    1
    16    25    28    1
    17    28    29   ar
    18    28    30   ar
    19     2     3   ar
    20     3    31    1
    21    31    32    1
    22    32    33    1
    23    32    34    1
    24    32    35    1
    25     3     4   ar
    26     4     5   ar
    27     5     6   ar
    28     6    36    1
    29    36    37    1
    30    37    38    1
    31    38    39   ar
    32    39    40   ar
    33    40    41   ar
    34    41    42   ar
    35    42    43   ar
    36     6     7   ar
    37     7     8   ar
    38     8     9   ar
    39    14    15   ar
    40    15    16   ar
    41    21    22   ar
    42    22    23   ar
    43    23    18   ar
    44    16    11   ar
    45     9     1   ar
    46     9     4   ar
    47    43    38   ar
@<TRIPOS>MOLECULE
*****
 43 47 0 0 0
SMALL
GASTEIGER

@<TRIPOS>ATOM
      1 N           5.1294    0.2929   21.3766 N.ar    1  UNL1       -0.3260
      2 C           4.9431   -0.8360   20.4066 C.ar    1  UNL1        0.0433
      3 C           5.7212   -2.0145   20.9120 C.ar    1  UNL1        0.0383
      4 C           6.3885   -1.6141   22.1943 C.ar    1  UNL1        0.0256
      5 C           7.2819   -2.3638   23.1376 C.ar    1  UNL1        0.0389
      6 C           7.8094   -1.6874   24.3681 C.ar    1  UNL1        0.1392
      7 C           7.4437   -0.2613   24.6553 C.ar    1  UNL1        0.0384
      8 C           6.5503    0.4884   23.7120 C.ar    1  UNL1        0.0203
      9 C           6.0227   -0.1880   22.4815 C.ar    1  UNL1        0.0606
     10 C           4.5280    1.6622   21.2620 C.3     1  UNL1        0.1324
     11 C           0.7506    2.6552   23.4969 C.ar    1  UNL1        0.0015
     12 C           1.1772    3.4995   22.3328 C.ar    1  UNL1       -0.0002
     13 C           2.4364    3.1685   21.5878 C.ar    1  UNL1       -0.0024
     14 C           3.2689    1.9932   22.0069 C.ar    1  UNL1        0.0004
     15 C           2.8422    1.1490   23.1711 C.ar    1  UNL1       -0.0024
     16 C           1.5831    1.4799   23.9161 C.ar    1  UNL1       -0.0002
     17 C          -4.2859    3.9791   26.4770 C.3     1  UNL1        0.0521
     18 C          -3.0268    3.6481   25.7320 C.ar    1  UNL1        0.0594
     19 C          -1.8641    3.0386   26.4578 C.ar    1  UNL1        0.0147
     20 C          -0.6050    2.7076   25.7128 C.ar    1  UNL1        0.0028
     21 C          -0.5085    2.9862   24.2419 C.ar    1  UNL1        0.0192
     22 C          -1.6712    3.5957   23.5162 C.ar    1  UNL1        0.0984
     23 N          -2.9303    3.9267   24.2612 N.ar    1  UNL1       -0.2481
     24 C           4.1226   -0.7937   19.1516 C.3     1  UNL1        0.0495
     25 C           2.7046   -0.3069   19.1985 C.3     1  UNL1        0.0376
     26 C           3.0109    0.6894   18.1199 C.3     1  UNL1        0.0059
     27 C           2.3984   -1.3032   20.2772 C.3     1  UNL1        0.0059
     28 C           1.2865    0.1799   19.2455 C.2     1  UNL1        0.0500
     29 O           0.4347   -0.1063   20.4465 O.co2   1  UNL1       -0.5492
     30 O           0.7204    0.9529   18.0914 O.co2   1  UNL1       -0.5492
     31 S           5.8156   -3.3578   20.2510 S.3     1  UNL1       -0.1142
     32 C           4.5770   -4.1756   20.0341 C.3     1  UNL1        0.0434
     33 C           4.8299   -4.1665   18.5556 C.3     1  UNL1        0.0112
     34 C           4.3241   -4.1847   21.5125 C.3     1  UNL1        0.0112
     35 C           3.3384   -4.9934   19.8172 C.3     1  UNL1        0.0112
     36 O           8.7029   -2.4371   25.3114 O.3     1  UNL1       -0.4690
     37 C           9.3073   -3.7445   24.8926 C.3     1  UNL1        0.2508
     38 C           8.6414   -5.0341   25.2714 C.ar    1  UNL1        0.1026
     39 C           7.5443   -5.0395   26.2942 C.ar    1  UNL1        0.0185
     40 C           6.8784   -6.3293   26.6730 C.ar    1  UNL1        0.0029
     41 C           7.3098   -7.6134   26.0290 C.ar    1  UNL1        0.0207
     42 C           8.4070   -7.6080   25.0062 C.ar    1  UNL1        0.0986
     43 N           9.0728   -6.3183   24.6274 N.ar    1  UNL1       -0.2445
@<TRIPOS>UNITY_ATOM_ATTR
29 1
charge -1
@<TRIPOS>BOND
     1    17    18    1
     2    18    19   ar
     3    19    20   ar
     4    20    21   ar
     5    21    11    1
     6    11    12   ar
     7    12    13   ar
     8    13    14   ar
     9    14    10    1
    10    10     1    1
    11     1     2   ar
    12     2    24    1
    13    24    25    1
    14    25    26    1
    15    25    27    1
    16    25    28    1
    17    28    29   ar
    18    28    30   ar
    19     2     3   ar
    20     3    31    1
    21    31    32    1
    22    32    33    1
    23    32    34    1
    24    32    35    1
    25     3     4   ar
    26     4     5   ar
    27     5     6   ar
    28     6    36    1
    29    36    37    1
    30    37    38    1
    31    38    39   ar
    32    39    40   ar
    33    40    41   ar
    34    41    42   ar
    35    42    43   ar
    36     6     7   ar
    37     7     8   ar
    38     8     9   ar
    39    14    15   ar
    40    15    16   ar
    41    21    22   ar
    42    22    23   ar
    43    23    18   ar
    44    16    11   ar
    45     9     1   ar
    46     9     4   ar
    47    43    38   ar
@<TRIPOS>MOLECULE
*****
 43 47 0 0 0
SMALL
GASTEIGER

@<TRIPOS>ATOM
      1 N           3.7218    0.1978   21.5279 N.ar    1  UNL1       -0.3260
      2 C           3.2502   -0.4800   20.2757 C.ar    1  UNL1        0.0433
      3 C           3.6100   -1.9331   20.3715 C.ar    1  UNL1        0.0383
      4 C           4.3039   -2.1533   21.6830 C.ar    1  UNL1        0.0256
      5 C           4.8817   -3.3829   22.3187 C.ar    1  UNL1        0.0389
      6 C           5.5287   -3.2955   23.6692 C.ar    1  UNL1        0.1392
      7 C           5.5979   -1.9785   24.3839 C.ar    1  UNL1        0.0384
      8 C           5.0200   -0.7490   23.7482 C.ar    1  UNL1        0.0203
      9 C           4.3730   -0.8363   22.3977 C.ar    1  UNL1        0.0606
     10 C           3.5691    1.6541   21.8533 C.3     1  UNL1        0.1324
     11 C          -0.1373    3.1157   23.9454 C.ar    1  UNL1        0.0015
     12 C           0.3305    1.7048   24.1465 C.ar    1  UNL1       -0.0002
     13 C           1.5659    1.2175   23.4492 C.ar    1  UNL1       -0.0024
     14 C           2.3337    2.1412   22.5507 C.ar    1  UNL1        0.0004
     15 C           1.8659    3.5522   22.3495 C.ar    1  UNL1       -0.0024
     16 C           0.6305    4.0395   23.0468 C.ar    1  UNL1       -0.0002
     17 C          -5.0790    5.0647   26.7346 C.3     1  UNL1        0.0521
     18 C          -3.8436    4.5774   26.0373 C.ar    1  UNL1        0.0594
     19 C          -2.9187    3.6215   26.7307 C.ar    1  UNL1        0.0147
     20 C          -1.6832    3.1342   26.0334 C.ar    1  UNL1        0.0028
     21 C          -1.3727    3.6029   24.6427 C.ar    1  UNL1        0.0192
     22 C          -2.2976    4.5589   23.9493 C.ar    1  UNL1        0.0984
     23 N          -3.5331    5.0461   24.6467 N.ar    1  UNL1       -0.2481
     24 C           2.5430    0.1795   19.1290 C.3     1  UNL1        0.0495
     25 C           1.3293    1.0237   19.3819 C.3     1  UNL1        0.0376
     26 C           0.6727   -0.1297   20.0808 C.3     1  UNL1        0.0059
     27 C           1.9859    2.1771   18.6831 C.3     1  UNL1        0.0059
     28 C           0.1155    1.8679   19.6349 C.2     1  UNL1        0.0500
     29 O          -0.7862    1.5572   20.7927 O.co2   1  UNL1       -0.5492
     30 O          -0.1967    3.0228   18.7301 O.co2   1  UNL1       -0.5492
     31 S           3.3257   -2.9818   19.3375 S.3     1  UNL1       -0.1142
     32 C           4.3397   -4.0505   19.0545 C.3     1  UNL1        0.0434
     33 C           3.4151   -5.0807   19.6322 C.3     1  UNL1        0.0112
     34 C           5.2642   -3.0202   18.4769 C.3     1  UNL1        0.0112
     35 C           5.3537   -5.1190   18.7716 C.3     1  UNL1        0.0112
     36 O           6.1066   -4.5251   24.3050 O.3     1  UNL1       -0.4690
     37 C           7.3860   -4.4365   25.0829 C.3     1  UNL1        0.2508
     38 C           7.4703   -5.0298   26.4580 C.ar    1  UNL1        0.1026
     39 C           6.4995   -4.6042   27.5193 C.ar    1  UNL1        0.0185
     40 C           6.5838   -5.1975   28.8944 C.ar    1  UNL1        0.0029
     41 C           7.6389   -6.2164   29.2082 C.ar    1  UNL1        0.0207
     42 C           8.6097   -6.6420   28.1469 C.ar    1  UNL1        0.0986
     43 N           8.5255   -6.0487   26.7719 N.ar    1  UNL1       -0.2445
@<TRIPOS>UNITY_ATOM_ATTR
29 1
charge -1
@<TRIPOS>BOND
     1    17    18    1
     2    18    19   ar
     3    19    20   ar
     4    20    21   ar
     5    21    11    1
     6    11    12   ar
     7    12    13   ar
     8    13    14   ar
     9    14    10    1
    10    10     1    1
    11     1     2   ar
    12     2    24    1
    13    24    25    1
    14    25    26    1
    15    25    27    1
    16    25    28    1
    17    28    29   ar
    18    28    30   ar
    19     2     3   ar
    20     3    31    1
    21    31    32    1
    22    32    33    1
    23    32    34    1
    24    32    35    1
    25     3     4   ar
    26     4     5   ar
    27     5     6   ar
    28     6    36    1
    29    36    37    1
    30    37    38    1
    31    38    39   ar
    32    39    40   ar
    33    40    41   ar
    34    41    42   ar
    35    42    43   ar
    36     6     7   ar
    37     7     8   ar
    38     8     9   ar
    39    14    15   ar
    40    15    16   ar
    41    21    22   ar
    42    22    23   ar
    43    23    18   ar
    44    16    11   ar
    45     9     1   ar
    46     9     4   ar
    47    43    38   ar
@<TRIPOS>MOLECULE
*****
 43 47 0 0 0
SMALL
GASTEIGER

@<TRIPOS>ATOM
      1 N           4.1106    0.1400   22.2161 N.ar    1  UNL1       -0.3260
      2 C           3.2998    0.2727   20.9611 C.ar    1  UNL1        0.0433
      3 C           1.9079    0.6755   21.3490 C.ar    1  UNL1        0.0383
      4 C           1.8585    0.7917   22.8437 C.ar    1  UNL1        0.0256
      5 C           0.7497    1.1561   23.7859 C.ar    1  UNL1        0.0389
      6 C           1.0023    1.1895   25.2641 C.ar    1  UNL1        0.1392
      7 C           2.3637    0.8585   25.8000 C.ar    1  UNL1        0.0384
      8 C           3.4724    0.4941   24.8578 C.ar    1  UNL1        0.0203
      9 C           3.2198    0.4607   23.3796 C.ar    1  UNL1        0.0606
     10 C           5.5580   -0.2458   22.2940 C.3     1  UNL1        0.1324
     11 C           6.7731   -3.9991   24.4588 C.ar    1  UNL1        0.0015
     12 C           6.8275   -2.6760   25.1632 C.ar    1  UNL1       -0.0002
     13 C           6.4224   -1.4248   24.4417 C.ar    1  UNL1       -0.0024
     14 C           5.9630   -1.4968   23.0156 C.ar    1  UNL1        0.0004
     15 C           5.9087   -2.8200   22.3111 C.ar    1  UNL1       -0.0024
     16 C           6.3137   -4.0712   23.0326 C.ar    1  UNL1       -0.0002
     17 C           8.3932   -9.0036   27.3449 C.3     1  UNL1        0.0521
     18 C           7.9882   -7.7525   26.6234 C.ar    1  UNL1        0.0594
     19 C           8.2182   -7.6308   25.1461 C.ar    1  UNL1        0.0147
     20 C           7.8132   -6.3797   24.4245 C.ar    1  UNL1        0.0028
     21 C           7.1781   -5.2502   25.1803 C.ar    1  UNL1        0.0192
     22 C           6.9481   -5.3719   26.6576 C.ar    1  UNL1        0.0984
     23 N           7.3532   -6.6230   27.3791 N.ar    1  UNL1       -0.2481
     24 C           3.7941    0.0431   19.5637 C.3     1  UNL1        0.0495
     25 C           4.3137   -1.3061   19.1642 C.3     1  UNL1        0.0376
     26 C           5.5347   -0.6621   18.5773 C.3     1  UNL1        0.0059
     27 C           3.0928   -1.9501   19.7511 C.3     1  UNL1        0.0059
     28 C           4.8334   -2.6554   18.7647 C.2     1  UNL1        0.0500
     29 O           4.2350   -3.8957   19.3592 O.co2   1  UNL1       -0.5492
     30 O           5.9515   -2.7642   17.7708 O.co2   1  UNL1       -0.5492
     31 S           0.7659    0.9194   20.4075 S.3     1  UNL1       -0.1142
     32 C           0.8347    2.0477   19.4214 C.3     1  UNL1        0.0434
     33 C           0.9159    1.0592   18.2961 C.3     1  UNL1        0.0112
     34 C           0.7535    3.0360   20.5467 C.3     1  UNL1        0.0112
     35 C           0.9034    3.1760   18.4354 C.3     1  UNL1        0.0112
     36 O          -0.1064    1.5540   26.2064 O.3     1  UNL1       -0.4690
     37 C          -0.5961    2.9701   26.2765 C.3     1  UNL1        0.2508
     38 C          -1.9708    3.3136   25.7845 C.ar    1  UNL1        0.1026
     39 C          -2.2594    3.3251   24.3125 C.ar    1  UNL1        0.0185
     40 C          -3.6342    3.6686   23.8205 C.ar    1  UNL1        0.0029
     41 C          -4.7203    4.0006   24.8003 C.ar    1  UNL1        0.0207
     42 C          -4.4316    3.9890   26.2723 C.ar    1  UNL1        0.0986
     43 N          -3.0569    3.6456   26.7643 N.ar    1  UNL1       -0.2445
@<TRIPOS>UNITY_ATOM_ATTR
29 1
charge -1
@<TRIPOS>BOND
     1    17    18    1
     2    18    19   ar
     3    19    20   ar
     4    20    21   ar
     5    21    11    1
     6    11    12   ar
     7    12    13   ar
     8    13    14   ar
     9    14    10    1
    10    10     1    1
    11     1     2   ar
    12     2    24    1
    13    24    25    1
    14    25    26    1
    15    25    27    1
    16    25    28    1
    17    28    29   ar
    18    28    30   ar
    19     2     3   ar
    20     3    31    1
    21    31    32    1
    22    32    33    1
    23    32    34    1
    24    32    35    1
    25     3     4   ar
    26     4     5   ar
    27     5     6   ar
    28     6    36    1
    29    36    37    1
    30    37    38    1
    31    38    39   ar
    32    39    40   ar
    33    40    41   ar
    34    41    42   ar
    35    42    43   ar
    36     6     7   ar
    37     7     8   ar
    38     8     9   ar
    39    14    15   ar
    40    15    16   ar
    41    21    22   ar
    42    22    23   ar
    43    23    18   ar
    44    16    11   ar
    45     9     1   ar
    46     9     4   ar
    47    43    38   ar
@<TRIPOS>MOLECULE
*****
 43 47 0 0 0
SMALL
GASTEIGER

@<TRIPOS>ATOM
      1 N           3.0872    1.3874   21.7540 N.ar    1  UNL1       -0.3260
      2 C           2.6918    0.7328   20.4635 C.ar    1  UNL1        0.0433
      3 C           3.1173   -0.7043   20.5234 C.ar    1  UNL1        0.0383
      4 C           3.7756   -0.9379   21.8509 C.ar    1  UNL1        0.0256
      5 C           4.3895   -2.1608   22.4653 C.ar    1  UNL1        0.0389
      6 C           4.9849   -2.0909   23.8403 C.ar    1  UNL1        0.1392
      7 C           4.9663   -0.7981   24.6008 C.ar    1  UNL1        0.0384
      8 C           4.3523    0.4247   23.9864 C.ar    1  UNL1        0.0203
      9 C           3.7570    0.3548   22.6114 C.ar    1  UNL1        0.0606
     10 C           2.8537    2.8226   22.1223 C.3     1  UNL1        0.1324
     11 C          -0.9516    4.0213   24.2038 C.ar    1  UNL1        0.0015
     12 C          -0.3717    2.6563   24.4285 C.ar    1  UNL1       -0.0002
     13 C           0.8967    2.2567   23.7347 C.ar    1  UNL1       -0.0024
     14 C           1.5854    3.2221   22.8162 C.ar    1  UNL1        0.0004
     15 C           1.0055    4.5872   22.5915 C.ar    1  UNL1       -0.0024
     16 C          -0.2630    4.9868   23.2853 C.ar    1  UNL1       -0.0002
     17 C          -6.0253    5.6197   26.9791 C.3     1  UNL1        0.0521
     18 C          -4.7569    5.2201   26.2853 C.ar    1  UNL1        0.0594
     19 C          -4.2706    6.0032   25.1019 C.ar    1  UNL1        0.0147
     20 C          -3.0021    5.6036   24.4081 C.ar    1  UNL1        0.0028
     21 C          -2.2200    4.4209   24.8977 C.ar    1  UNL1        0.0192
     22 C          -2.7064    3.6378   26.0810 C.ar    1  UNL1        0.0984
     23 N          -3.9748    4.0374   26.7748 N.ar    1  UNL1       -0.2481
     24 C           1.9936    1.3985   19.3149 C.3     1  UNL1        0.0495
     25 C           0.6866    2.1003   19.5367 C.3     1  UNL1        0.0376
     26 C           0.1445    0.8767   20.2140 C.3     1  UNL1        0.0059
     27 C           1.2287    3.3239   18.8593 C.3     1  UNL1        0.0059
     28 C          -0.6205    2.8021   19.7585 C.2     1  UNL1        0.0500
     29 O          -1.0942    3.8330   18.7772 O.co2   1  UNL1       -0.5492
     30 O          -1.4538    2.4730   20.9615 O.co2   1  UNL1       -0.5492
     31 S           2.9192   -1.7281   19.4452 S.3     1  UNL1       -0.1142
     32 C           4.1024   -2.4447   18.8648 C.3     1  UNL1        0.0434
     33 C           3.5469   -3.7521   19.3465 C.3     1  UNL1        0.0112
     34 C           4.6578   -1.1372   18.3832 C.3     1  UNL1        0.0112
     35 C           5.2855   -3.1611   18.2845 C.3     1  UNL1        0.0112
     36 O           5.5989   -3.3138   24.4548 O.3     1  UNL1       -0.4690
     37 C           6.8059   -3.9440   23.8255 C.3     1  UNL1        0.2508
     38 C           7.3234   -5.2537   24.3419 C.ar    1  UNL1        0.1026
     39 C           7.1355   -5.6180   25.7848 C.ar    1  UNL1        0.0185
     40 C           7.6531   -6.9278   26.3012 C.ar    1  UNL1        0.0029
     41 C           8.3585   -7.8733   25.3747 C.ar    1  UNL1        0.0207
     42 C           8.5464   -7.5090   23.9318 C.ar    1  UNL1        0.0986
     43 N           8.0289   -6.1992   23.4154 N.ar    1  UNL1       -0.2445
@<TRIPOS>UNITY_ATOM_ATTR
29 1
charge -1
@<TRIPOS>BOND
     1    17    18    1
     2    18    19   ar
     3    19    20   ar
     4    20    21   ar
     5    21    11    1
     6    11    12   ar
     7    12    13   ar
     8    13    14   ar
     9    14    10    1
    10    10     1    1
    11     1     2   ar
    12     2    24    1
    13    24    25    1
    14    25    26    1
    15    25    27    1
    16    25    28    1
    17    28    29   ar
    18    28    30   ar
    19     2     3   ar
    20     3    31    1
    21    31    32    1
    22    32    33    1
    23    32    34    1
    24    32    35    1
    25     3     4   ar
    26     4     5   ar
    27     5     6   ar
    28     6    36    1
    29    36    37    1
    30    37    38    1
    31    38    39   ar
    32    39    40   ar
    33    40    41   ar
    34    41    42   ar
    35    42    43   ar
    36     6     7   ar
    37     7     8   ar
    38     8     9   ar
    39    14    15   ar
    40    15    16   ar
    41    21    22   ar
    42    22    23   ar
    43    23    18   ar
    44    16    11   ar
    45     9     1   ar
    46     9     4   ar
    47    43    38   ar
