@<TRIPOS>MOLECULE
*****
 34 36 0 0 0
SMALL
GASTEIGER

@<TRIPOS>ATOM
      1 C          -7.9424  -18.7949   22.2054 C.2     1  UNL1        0.2271
      2 O          -7.7952  -17.4117   21.6442 O.2     1  UNL1       -0.2748
      3 N          -9.0026  -19.0807   23.2274 N.am    1  UNL1       -0.2774
      4 C          -9.2681  -20.4075   23.8750 C.3     1  UNL1        0.0935
      5 C         -10.4131  -20.2367   24.8290 C.3     1  UNL1        0.0233
      6 C         -10.8551  -18.8045   24.7710 C.3     1  UNL1        0.0254
      7 C          -9.9834  -18.0901   23.7812 C.3     1  UNL1        0.1190
      8 C          -7.0295  -19.8923   21.7447 C.3     1  UNL1        0.1010
      9 N          -6.9063  -18.9812   19.3148 N.3     1  UNL1       -0.3215
     10 C          -6.2978  -19.7618   20.4419 C.3     1  UNL1        0.0644
     11 H          -7.8113  -18.6119   19.6067 H       1  UNL1        0.1188
     12 H          -7.0326  -19.5918   18.5076 H       1  UNL1        0.1188
     13 C          -4.9575  -20.4118   20.2660 C.3     1  UNL1        0.0447
     14 C          -3.7122  -19.5755   20.2682 C.ar    1  UNL1        0.0090
     15 C          -3.1656  -19.0409   18.9777 C.ar    1  UNL1        0.0300
     16 C          -1.9204  -18.2046   18.9799 C.ar    1  UNL1        0.1672
     17 F          -1.3736  -17.6699   17.6894 F       1  UNL1       -0.2018
     18 C          -1.2217  -17.9030   20.2726 C.ar    1  UNL1        0.1696
     19 F           0.0235  -17.0667   20.2748 F       1  UNL1       -0.2017
     20 C          -1.7683  -18.4377   21.5630 C.ar    1  UNL1        0.0612
     21 C          -3.0136  -19.2739   21.5609 C.ar    1  UNL1        0.1386
     22 F          -3.5602  -19.8086   22.8513 F       1  UNL1       -0.2044
     23 C         -10.0762  -16.6396   23.4101 C.3     1  UNL1        0.2266
     24 O          -9.6432  -15.5865   24.3866 O.3     1  UNL1       -0.4584
     25 C          -8.2578  -15.6204   24.9609 C.ar    1  UNL1        0.2278
     26 C          -8.0578  -15.5137   26.4436 C.ar    1  UNL1        0.0783
     27 C          -6.6726  -15.5476   27.0179 C.ar    1  UNL1        0.1053
     28 N          -5.4873  -15.6880   26.1094 N.ar    1  UNL1       -0.2216
     29 C          -5.6873  -15.7947   24.6266 C.ar    1  UNL1        0.2377
     30 N          -7.0726  -15.7608   24.0524 N.ar    1  UNL1       -0.1887
     31 C          -4.5020  -15.9351   23.7181 C.3     1  UNL1        0.4524
     32 F          -3.3167  -16.0756   22.8096 F       1  UNL1       -0.1632
     33 F          -4.2120  -17.2847   24.3051 F       1  UNL1       -0.1632
     34 F          -4.7920  -14.5855   23.1311 F       1  UNL1       -0.1632
@<TRIPOS>BOND
     1    10     9    1
     2    10     8    1
     3     8     1    1
     4     1     2    2
     5     1     3   am
     6     3     4    1
     7     4     5    1
     8     5     6    1
     9     6     7    1
    10     7    23    1
    11    23    24    1
    12    24    25    1
    13    25    26   ar
    14    26    27   ar
    15    27    28   ar
    16    28    29   ar
    17    29    31    1
    18    31    32    1
    19    31    33    1
    20    31    34    1
    21    29    30   ar
    22    10    13    1
    23    13    14    1
    24    14    15   ar
    25    15    16   ar
    26    16    17    1
    27    16    18   ar
    28    18    19    1
    29    18    20   ar
    30    20    21   ar
    31    21    22    1
    32     7     3    1
    33    30    25   ar
    34    21    14   ar
    35     9    11    1
    36     9    12    1
@<TRIPOS>MOLECULE
*****
 34 36 0 0 0
SMALL
GASTEIGER

@<TRIPOS>ATOM
      1 C          -8.7852  -17.2874   24.6362 C.2     1  UNL1        0.2271
      2 O          -8.2951  -17.6311   23.2608 O.2     1  UNL1       -0.2748
      3 N          -7.9391  -16.4464   25.5455 N.am    1  UNL1       -0.2774
      4 C          -8.2948  -16.0238   26.9401 C.3     1  UNL1        0.0935
      5 C          -7.1643  -15.1965   27.4764 C.3     1  UNL1        0.0233
      6 C          -6.1098  -15.1078   26.4132 C.3     1  UNL1        0.0254
      7 C          -6.5887  -15.8803   25.2199 C.3     1  UNL1        0.1190
      8 C         -10.1214  -17.7847   25.1023 C.3     1  UNL1        0.1010
      9 N          -9.9549  -20.3576   25.4226 N.3     1  UNL1       -0.3215
     10 C         -10.5722  -19.1700   24.7453 C.3     1  UNL1        0.0644
     11 H          -9.2527  -20.0407   26.0911 H       1  UNL1        0.1188
     12 H          -9.5139  -20.9561   24.7242 H       1  UNL1        0.1188
     13 C         -11.6404  -19.3680   23.7110 C.3     1  UNL1        0.0447
     14 C         -11.6309  -18.5462   22.4561 C.ar    1  UNL1        0.0090
     15 C         -10.7712  -18.9565   21.2974 C.ar    1  UNL1        0.0300
     16 C         -10.7617  -18.1347   20.0426 C.ar    1  UNL1        0.1672
     17 F          -9.9021  -18.5450   18.8838 F       1  UNL1       -0.2018
     18 C         -11.6119  -16.9027   19.9465 C.ar    1  UNL1        0.1696
     19 F         -11.6024  -16.0809   18.6917 F       1  UNL1       -0.2017
     20 C         -12.4716  -16.4924   21.1052 C.ar    1  UNL1        0.0612
     21 C         -12.4811  -17.3141   22.3600 C.ar    1  UNL1        0.1386
     22 F         -13.3407  -16.9039   23.5187 F       1  UNL1       -0.2044
     23 C          -5.8473  -16.0558   23.9277 C.3     1  UNL1        0.2266
     24 O          -4.4242  -16.5297   23.9380 O.3     1  UNL1       -0.4584
     25 C          -3.9265  -17.4327   22.8485 C.ar    1  UNL1        0.2278
     26 C          -2.5115  -17.3154   22.3650 C.ar    1  UNL1        0.0783
     27 C          -2.0138  -18.2184   21.2756 C.ar    1  UNL1        0.1053
     28 N          -2.9313  -19.2387   20.6696 N.ar    1  UNL1       -0.2216
     29 C          -4.3463  -19.3561   21.1531 C.ar    1  UNL1        0.2377
     30 N          -4.8439  -18.4531   22.2425 N.ar    1  UNL1       -0.1887
     31 C          -5.2638  -20.3765   20.5472 C.3     1  UNL1        0.4524
     32 F          -6.1812  -21.3968   19.9412 F       1  UNL1       -0.1632
     33 F          -6.4406  -19.6931   21.1781 F       1  UNL1       -0.1632
     34 F          -4.0870  -21.0598   19.9162 F       1  UNL1       -0.1632
@<TRIPOS>BOND
     1    10     9    1
     2    10     8    1
     3     8     1    1
     4     1     2    2
     5     1     3   am
     6     3     4    1
     7     4     5    1
     8     5     6    1
     9     6     7    1
    10     7    23    1
    11    23    24    1
    12    24    25    1
    13    25    26   ar
    14    26    27   ar
    15    27    28   ar
    16    28    29   ar
    17    29    31    1
    18    31    32    1
    19    31    33    1
    20    31    34    1
    21    29    30   ar
    22    10    13    1
    23    13    14    1
    24    14    15   ar
    25    15    16   ar
    26    16    17    1
    27    16    18   ar
    28    18    19    1
    29    18    20   ar
    30    20    21   ar
    31    21    22    1
    32     7     3    1
    33    30    25   ar
    34    21    14   ar
    35     9    11    1
    36     9    12    1
@<TRIPOS>MOLECULE
*****
 34 36 0 0 0
SMALL
GASTEIGER

@<TRIPOS>ATOM
      1 C          -7.7930  -18.4565   22.6739 C.2     1  UNL1        0.2271
      2 O          -8.4617  -19.7672   22.9658 O.2     1  UNL1       -0.2748
      3 N          -8.0560  -17.2686   23.5511 N.am    1  UNL1       -0.2774
      4 C          -7.4631  -15.9008   23.3843 C.3     1  UNL1        0.0935
      5 C          -7.9988  -15.0267   24.4793 C.3     1  UNL1        0.0233
      6 C          -8.9228  -15.8541   25.3228 C.3     1  UNL1        0.0254
      7 C          -8.9582  -17.2396   24.7492 C.3     1  UNL1        0.1190
      8 C          -6.8613  -18.3339   21.5048 C.3     1  UNL1        0.1010
      9 N          -7.5568  -20.1671   19.8001 N.3     1  UNL1       -0.3215
     10 C          -6.5200  -19.5445   20.6875 C.3     1  UNL1        0.0644
     11 H          -8.4282  -19.6424   19.8755 H       1  UNL1        0.1188
     12 H          -7.7153  -21.1327   20.0880 H       1  UNL1        0.1188
     13 C          -5.1419  -20.1327   20.7577 C.3     1  UNL1        0.0447
     14 C          -3.9399  -19.2432   20.6399 C.ar    1  UNL1        0.0090
     15 C          -3.3555  -18.9468   19.2906 C.ar    1  UNL1        0.0300
     16 C          -2.1535  -18.0574   19.1728 C.ar    1  UNL1        0.1672
     17 F          -1.5690  -17.7609   17.8235 F       1  UNL1       -0.2018
     18 C          -1.5358  -17.4642   20.4044 C.ar    1  UNL1        0.1696
     19 F          -0.3338  -16.5747   20.2866 F       1  UNL1       -0.2017
     20 C          -2.1202  -17.7606   21.7537 C.ar    1  UNL1        0.0612
     21 C          -3.3222  -18.6500   21.8715 C.ar    1  UNL1        0.1386
     22 F          -3.9067  -18.9464   23.2207 F       1  UNL1       -0.2044
     23 C          -9.7557  -18.3938   25.2804 C.3     1  UNL1        0.2266
     24 O         -11.1863  -18.5708   24.8658 O.3     1  UNL1       -0.4584
     25 C         -11.6322  -18.1305   23.5029 C.ar    1  UNL1        0.2278
     26 C         -12.5994  -16.9928   23.3614 C.ar    1  UNL1        0.0783
     27 C         -13.0453  -16.5526   21.9986 C.ar    1  UNL1        0.1053
     28 N         -12.5240  -17.2501   20.7772 N.ar    1  UNL1       -0.2216
     29 C         -11.5568  -18.3878   20.9187 C.ar    1  UNL1        0.2377
     30 N         -11.1109  -18.8280   22.2816 N.ar    1  UNL1       -0.1887
     31 C         -11.0355  -19.0854   19.6974 C.3     1  UNL1        0.4524
     32 F         -10.5141  -19.7829   18.4760 F       1  UNL1       -0.1632
     33 F         -10.7463  -20.3069   20.5185 F       1  UNL1       -0.1632
     34 F         -11.3246  -17.8638   18.8763 F       1  UNL1       -0.1632
@<TRIPOS>BOND
     1    10     9    1
     2    10     8    1
     3     8     1    1
     4     1     2    2
     5     1     3   am
     6     3     4    1
     7     4     5    1
     8     5     6    1
     9     6     7    1
    10     7    23    1
    11    23    24    1
    12    24    25    1
    13    25    26   ar
    14    26    27   ar
    15    27    28   ar
    16    28    29   ar
    17    29    31    1
    18    31    32    1
    19    31    33    1
    20    31    34    1
    21    29    30   ar
    22    10    13    1
    23    13    14    1
    24    14    15   ar
    25    15    16   ar
    26    16    17    1
    27    16    18   ar
    28    18    19    1
    29    18    20   ar
    30    20    21   ar
    31    21    22    1
    32     7     3    1
    33    30    25   ar
    34    21    14   ar
    35     9    11    1
    36     9    12    1
@<TRIPOS>MOLECULE
*****
 34 36 0 0 0
SMALL
GASTEIGER

@<TRIPOS>ATOM
      1 C          -9.9046  -19.5561   22.6111 C.2     1  UNL1        0.2271
      2 O          -9.1818  -19.7646   23.9088 O.2     1  UNL1       -0.2748
      3 N          -9.1400  -19.5412   21.3207 N.am    1  UNL1       -0.2774
      4 C          -9.7230  -19.3446   19.9526 C.3     1  UNL1        0.0935
      5 C          -8.6014  -19.4021   18.9581 C.3     1  UNL1        0.0233
      6 C          -7.3253  -19.6342   19.7116 C.3     1  UNL1        0.0254
      7 C          -7.6582  -19.7202   21.1717 C.3     1  UNL1        0.1190
      8 C         -11.3920  -19.3626   22.6037 C.3     1  UNL1        0.1010
      9 N         -12.9413  -17.7697   21.2574 N.3     1  UNL1       -0.3215
     10 C         -11.9695  -17.9969   22.3772 C.3     1  UNL1        0.0644
     11 H         -13.0938  -18.6452   20.7567 H       1  UNL1        0.1188
     12 H         -12.5638  -17.0724   20.6158 H       1  UNL1        0.1188
     13 C         -11.5753  -16.8582   23.2706 C.3     1  UNL1        0.0447
     14 C         -10.1458  -16.4069   23.3239 C.ar    1  UNL1        0.0090
     15 C          -9.4159  -16.3809   24.6340 C.ar    1  UNL1        0.0300
     16 C          -7.9864  -15.9296   24.6873 C.ar    1  UNL1        0.1672
     17 F          -7.2564  -15.9035   25.9975 F       1  UNL1       -0.2018
     18 C          -7.2869  -15.5042   23.4305 C.ar    1  UNL1        0.1696
     19 F          -5.8574  -15.0529   23.4838 F       1  UNL1       -0.2017
     20 C          -8.0168  -15.5302   22.1203 C.ar    1  UNL1        0.0612
     21 C          -9.4463  -15.9815   22.0670 C.ar    1  UNL1        0.1386
     22 F         -10.1762  -16.0076   20.7569 F       1  UNL1       -0.2044
     23 C          -6.6808  -19.9455   22.2871 C.3     1  UNL1        0.2266
     24 O          -5.2440  -20.2437   21.9764 O.3     1  UNL1       -0.4584
     25 C          -4.2821  -19.1203   21.7254 C.ar    1  UNL1        0.2278
     26 C          -3.9610  -18.1488   22.8222 C.ar    1  UNL1        0.0783
     27 C          -2.9992  -17.0255   22.5712 C.ar    1  UNL1        0.1053
     28 N          -2.3585  -16.8737   21.2234 N.ar    1  UNL1       -0.2216
     29 C          -2.6796  -17.8453   20.1267 C.ar    1  UNL1        0.2377
     30 N          -3.6414  -18.9686   20.3777 N.ar    1  UNL1       -0.1887
     31 C          -2.0389  -17.6935   18.7789 C.3     1  UNL1        0.4524
     32 F          -1.3982  -17.5417   17.4311 F       1  UNL1       -0.1632
     33 F          -3.2539  -16.9670   18.2831 F       1  UNL1       -0.1632
     34 F          -0.8238  -18.4200   19.2747 F       1  UNL1       -0.1632
@<TRIPOS>BOND
     1    10     9    1
     2    10     8    1
     3     8     1    1
     4     1     2    2
     5     1     3   am
     6     3     4    1
     7     4     5    1
     8     5     6    1
     9     6     7    1
    10     7    23    1
    11    23    24    1
    12    24    25    1
    13    25    26   ar
    14    26    27   ar
    15    27    28   ar
    16    28    29   ar
    17    29    31    1
    18    31    32    1
    19    31    33    1
    20    31    34    1
    21    29    30   ar
    22    10    13    1
    23    13    14    1
    24    14    15   ar
    25    15    16   ar
    26    16    17    1
    27    16    18   ar
    28    18    19    1
    29    18    20   ar
    30    20    21   ar
    31    21    22    1
    32     7     3    1
    33    30    25   ar
    34    21    14   ar
    35     9    11    1
    36     9    12    1
@<TRIPOS>MOLECULE
*****
 34 36 0 0 0
SMALL
GASTEIGER

@<TRIPOS>ATOM
      1 C          -8.9481  -19.9868   22.7679 C.2     1  UNL1        0.2271
      2 O          -7.5217  -20.2740   23.1326 O.2     1  UNL1       -0.2748
      3 N          -9.3191  -19.7286   21.3377 N.am    1  UNL1       -0.2774
      4 C         -10.6965  -19.4292   20.8244 C.3     1  UNL1        0.0935
      5 C         -10.6067  -19.2400   19.3390 C.3     1  UNL1        0.0233
      6 C          -9.1739  -19.4225   18.9343 C.3     1  UNL1        0.0254
      7 C          -8.3782  -19.7245   20.1695 C.3     1  UNL1        0.1190
      8 C         -10.0034  -19.9579   23.8335 C.3     1  UNL1        0.1010
      9 N         -11.9351  -18.6884   25.0195 N.3     1  UNL1       -0.3215
     10 C         -10.7092  -18.6741   24.1553 C.3     1  UNL1        0.0644
     11 H         -12.1443  -19.6474   25.2971 H       1  UNL1        0.1188
     12 H         -12.7236  -18.3059   24.4976 H       1  UNL1        0.1188
     13 C         -10.1892  -17.3759   23.6130 C.3     1  UNL1        0.0447
     14 C          -8.9510  -16.7617   24.1959 C.ar    1  UNL1        0.0090
     15 C          -8.9150  -16.3786   25.6457 C.ar    1  UNL1        0.0300
     16 C          -7.6769  -15.7644   26.2286 C.ar    1  UNL1        0.1672
     17 F          -7.6408  -15.3812   27.6784 F       1  UNL1       -0.2018
     18 C          -6.4748  -15.5333   25.3617 C.ar    1  UNL1        0.1696
     19 F          -5.2367  -14.9191   25.9446 F       1  UNL1       -0.2017
     20 C          -6.5108  -15.9164   23.9119 C.ar    1  UNL1        0.0612
     21 C          -7.7489  -16.5306   23.3290 C.ar    1  UNL1        0.1386
     22 F          -7.7850  -16.9137   21.8792 F       1  UNL1       -0.2044
     23 C          -6.9008  -19.9778   20.2266 C.3     1  UNL1        0.2266
     24 O          -5.9381  -18.8860   19.8648 O.3     1  UNL1       -0.4584
     25 C          -4.7615  -18.5996   20.7502 C.ar    1  UNL1        0.2278
     26 C          -4.8895  -18.7438   22.2377 C.ar    1  UNL1        0.0783
     27 C          -3.7130  -18.4575   23.1229 C.ar    1  UNL1        0.1053
     28 N          -2.4084  -18.0269   22.5207 N.ar    1  UNL1       -0.2216
     29 C          -2.2804  -17.8827   21.0332 C.ar    1  UNL1        0.2377
     30 N          -3.4569  -18.1690   20.1479 N.ar    1  UNL1       -0.1887
     31 C          -0.9758  -17.4521   20.4309 C.3     1  UNL1        0.4524
     32 F           0.3287  -17.0215   19.8287 F       1  UNL1       -0.1632
     33 F          -0.8624  -18.7741   19.7314 F       1  UNL1       -0.1632
     34 F          -1.0893  -16.1301   21.1304 F       1  UNL1       -0.1632
@<TRIPOS>BOND
     1    10     9    1
     2    10     8    1
     3     8     1    1
     4     1     2    2
     5     1     3   am
     6     3     4    1
     7     4     5    1
     8     5     6    1
     9     6     7    1
    10     7    23    1
    11    23    24    1
    12    24    25    1
    13    25    26   ar
    14    26    27   ar
    15    27    28   ar
    16    28    29   ar
    17    29    31    1
    18    31    32    1
    19    31    33    1
    20    31    34    1
    21    29    30   ar
    22    10    13    1
    23    13    14    1
    24    14    15   ar
    25    15    16   ar
    26    16    17    1
    27    16    18   ar
    28    18    19    1
    29    18    20   ar
    30    20    21   ar
    31    21    22    1
    32     7     3    1
    33    30    25   ar
    34    21    14   ar
    35     9    11    1
    36     9    12    1
@<TRIPOS>MOLECULE
*****
 34 36 0 0 0
SMALL
GASTEIGER

@<TRIPOS>ATOM
      1 C          -9.1705  -20.1874   22.6582 C.2     1  UNL1        0.2271
      2 O          -7.7872  -20.3850   23.2036 O.2     1  UNL1       -0.2748
      3 N          -9.3682  -19.9111   21.1972 N.am    1  UNL1       -0.2774
      4 C         -10.6844  -19.6931   20.5113 C.3     1  UNL1        0.0935
      5 C         -10.4141  -19.4514   19.0557 C.3     1  UNL1        0.0233
      6 C          -8.9310  -19.5201   18.8420 C.3     1  UNL1        0.0254
      7 C          -8.2847  -19.8041   20.1654 C.3     1  UNL1        0.1190
      8 C         -10.3561  -20.2661   23.5737 C.3     1  UNL1        0.1010
      9 N          -9.9963  -18.9706   25.7968 N.3     1  UNL1       -0.3215
     10 C         -10.6872  -19.1121   24.4729 C.3     1  UNL1        0.0644
     11 H          -9.3388  -19.7404   25.9212 H       1  UNL1        0.1188
     12 H         -10.6887  -18.9904   26.5455 H       1  UNL1        0.1188
     13 C         -11.7091  -18.0996   24.0483 C.3     1  UNL1        0.0447
     14 C         -11.5027  -17.3071   22.7917 C.ar    1  UNL1        0.0090
     15 C         -10.2259  -16.5474   22.5853 C.ar    1  UNL1        0.0300
     16 C         -10.0194  -15.7549   21.3286 C.ar    1  UNL1        0.1672
     17 F          -8.7426  -14.9952   21.1221 F       1  UNL1       -0.2018
     18 C         -11.0899  -15.7220   20.2783 C.ar    1  UNL1        0.1696
     19 F         -10.8834  -14.9294   19.0216 F       1  UNL1       -0.2017
     20 C         -12.3667  -16.4816   20.4847 C.ar    1  UNL1        0.0612
     21 C         -12.5731  -17.2741   21.7414 C.ar    1  UNL1        0.1386
     22 F         -13.8499  -18.0338   21.9478 F       1  UNL1       -0.2044
     23 C          -6.8130  -19.9548   20.4137 C.3     1  UNL1        0.2266
     24 O          -5.8708  -18.8529   20.0291 O.3     1  UNL1       -0.4584
     25 C          -4.6895  -18.5386   20.8984 C.ar    1  UNL1        0.2278
     26 C          -4.8085  -18.6380   22.3903 C.ar    1  UNL1        0.0783
     27 C          -3.6272  -18.3237   23.2596 C.ar    1  UNL1        0.1053
     28 N          -2.3268  -17.9099   22.6369 N.ar    1  UNL1       -0.2216
     29 C          -2.2077  -17.8104   21.1450 C.ar    1  UNL1        0.2377
     30 N          -3.3891  -18.1247   20.2757 N.ar    1  UNL1       -0.1887
     31 C          -0.9073  -17.3966   20.5223 C.3     1  UNL1        0.4524
     32 F           0.3931  -16.9828   19.8996 F       1  UNL1       -0.1632
     33 F          -0.7440  -18.7730   19.9488 F       1  UNL1       -0.1632
     34 F          -1.0707  -16.0202   21.0958 F       1  UNL1       -0.1632
@<TRIPOS>BOND
     1    10     9    1
     2    10     8    1
     3     8     1    1
     4     1     2    2
     5     1     3   am
     6     3     4    1
     7     4     5    1
     8     5     6    1
     9     6     7    1
    10     7    23    1
    11    23    24    1
    12    24    25    1
    13    25    26   ar
    14    26    27   ar
    15    27    28   ar
    16    28    29   ar
    17    29    31    1
    18    31    32    1
    19    31    33    1
    20    31    34    1
    21    29    30   ar
    22    10    13    1
    23    13    14    1
    24    14    15   ar
    25    15    16   ar
    26    16    17    1
    27    16    18   ar
    28    18    19    1
    29    18    20   ar
    30    20    21   ar
    31    21    22    1
    32     7     3    1
    33    30    25   ar
    34    21    14   ar
    35     9    11    1
    36     9    12    1
@<TRIPOS>MOLECULE
*****
 34 36 0 0 0
SMALL
GASTEIGER

@<TRIPOS>ATOM
      1 C          -8.5736  -19.2279   22.1345 C.2     1  UNL1        0.2271
      2 O          -8.5451  -20.2341   23.2466 O.2     1  UNL1       -0.2748
      3 N          -9.5366  -18.0791   22.1870 N.am    1  UNL1       -0.2774
      4 C          -9.6794  -17.0004   21.1544 C.3     1  UNL1        0.0935
      5 C         -10.7570  -16.0618   21.6106 C.3     1  UNL1        0.0233
      6 C         -11.2801  -16.5604   22.9250 C.3     1  UNL1        0.0254
      7 C         -10.5259  -17.8071   23.2812 C.3     1  UNL1        0.1190
      8 C          -7.6391  -19.3705   20.9699 C.3     1  UNL1        0.1010
      9 N          -6.0640  -21.3241   20.2971 N.3     1  UNL1       -0.3215
     10 C          -6.3448  -20.1108   21.1332 C.3     1  UNL1        0.0644
     11 H          -6.8547  -21.5002   19.6772 H       1  UNL1        0.1188
     12 H          -5.9225  -22.1307   20.9052 H       1  UNL1        0.1188
     13 C          -5.3311  -19.6378   22.1326 C.3     1  UNL1        0.0447
     14 C          -4.1576  -18.8200   21.6810 C.ar    1  UNL1        0.0090
     15 C          -3.6540  -18.9442   20.2736 C.ar    1  UNL1        0.0300
     16 C          -2.4805  -18.1264   19.8220 C.ar    1  UNL1        0.1672
     17 F          -1.9767  -18.2505   18.4145 F       1  UNL1       -0.2018
     18 C          -1.8105  -17.1843   20.7779 C.ar    1  UNL1        0.1696
     19 F          -0.6370  -16.3664   20.3263 F       1  UNL1       -0.2017
     20 C          -2.3142  -17.0600   22.1853 C.ar    1  UNL1        0.0612
     21 C          -3.4877  -17.8779   22.6369 C.ar    1  UNL1        0.1386
     22 F          -3.9914  -17.7537   24.0443 F       1  UNL1       -0.2044
     23 C         -10.7258  -18.6363   24.5152 C.3     1  UNL1        0.2266
     24 O          -9.6374  -18.7254   25.5434 O.3     1  UNL1       -0.4584
     25 C          -8.8012  -17.5201   25.8569 C.ar    1  UNL1        0.2278
     26 C          -8.9370  -16.8382   27.1860 C.ar    1  UNL1        0.0783
     27 C          -8.1009  -15.6330   27.4994 C.ar    1  UNL1        0.1053
     28 N          -7.1290  -15.1096   26.4837 N.ar    1  UNL1       -0.2216
     29 C          -6.9933  -15.7915   25.1546 C.ar    1  UNL1        0.2377
     30 N          -7.8294  -16.9967   24.8412 N.ar    1  UNL1       -0.1887
     31 C          -6.0214  -15.2682   24.1389 C.3     1  UNL1        0.4524
     32 F          -5.0496  -14.7448   23.1232 F       1  UNL1       -0.1632
     33 F          -5.0220  -15.0113   25.2275 F       1  UNL1       -0.1632
     34 F          -7.0209  -15.5250   23.0503 F       1  UNL1       -0.1632
@<TRIPOS>BOND
     1    10     9    1
     2    10     8    1
     3     8     1    1
     4     1     2    2
     5     1     3   am
     6     3     4    1
     7     4     5    1
     8     5     6    1
     9     6     7    1
    10     7    23    1
    11    23    24    1
    12    24    25    1
    13    25    26   ar
    14    26    27   ar
    15    27    28   ar
    16    28    29   ar
    17    29    31    1
    18    31    32    1
    19    31    33    1
    20    31    34    1
    21    29    30   ar
    22    10    13    1
    23    13    14    1
    24    14    15   ar
    25    15    16   ar
    26    16    17    1
    27    16    18   ar
    28    18    19    1
    29    18    20   ar
    30    20    21   ar
    31    21    22    1
    32     7     3    1
    33    30    25   ar
    34    21    14   ar
    35     9    11    1
    36     9    12    1
@<TRIPOS>MOLECULE
*****
 34 36 0 0 0
SMALL
GASTEIGER

@<TRIPOS>ATOM
      1 C          -9.1998  -20.2591   22.7147 C.2     1  UNL1        0.2271
      2 O          -7.8768  -20.5982   23.3351 O.2     1  UNL1       -0.2748
      3 N          -9.2841  -19.9521   21.2489 N.am    1  UNL1       -0.2774
      4 C         -10.5302  -19.5983   20.4924 C.3     1  UNL1        0.0935
      5 C         -10.1533  -19.3725   19.0581 C.3     1  UNL1        0.0233
      6 C          -8.6744  -19.5867   18.9282 C.3     1  UNL1        0.0254
      7 C          -8.1372  -19.9449   20.2821 C.3     1  UNL1        0.1190
      8 C         -10.4384  -20.2271   23.5601 C.3     1  UNL1        0.1010
      9 N          -9.9984  -18.8951   25.7469 N.3     1  UNL1       -0.3215
     10 C         -10.7166  -19.0434   24.4384 C.3     1  UNL1        0.0644
     11 H          -9.3638  -19.6829   25.8777 H       1  UNL1        0.1188
     12 H         -10.6778  -18.8759   26.5074 H       1  UNL1        0.1188
     13 C         -11.7129  -18.0079   24.0082 C.3     1  UNL1        0.0447
     14 C         -11.4899  -17.2320   22.7440 C.ar    1  UNL1        0.0090
     15 C         -10.2184  -16.4597   22.5525 C.ar    1  UNL1        0.0300
     16 C          -9.9954  -15.6837   21.2883 C.ar    1  UNL1        0.1672
     17 F          -8.7238  -14.9113   21.0967 F       1  UNL1       -0.2018
     18 C         -11.0439  -15.6801   20.2156 C.ar    1  UNL1        0.1696
     19 F         -10.8209  -14.9042   18.9515 F       1  UNL1       -0.2017
     20 C         -12.3154  -16.4525   20.4072 C.ar    1  UNL1        0.0612
     21 C         -12.5384  -17.2284   21.6714 C.ar    1  UNL1        0.1386
     22 F         -13.8099  -18.0008   21.8630 F       1  UNL1       -0.2044
     23 C          -6.7046  -20.2436   20.6115 C.3     1  UNL1        0.2266
     24 O          -5.6185  -19.3246   20.1363 O.3     1  UNL1       -0.4584
     25 C          -4.5896  -18.8167   21.1025 C.ar    1  UNL1        0.2278
     26 C          -3.1331  -19.0702   20.8492 C.ar    1  UNL1        0.0783
     27 C          -2.1043  -18.5623   21.8154 C.ar    1  UNL1        0.1053
     28 N          -2.5321  -17.8009   23.0350 N.ar    1  UNL1       -0.2216
     29 C          -3.9886  -17.5474   23.2883 C.ar    1  UNL1        0.2377
     30 N          -5.0174  -18.0553   22.3221 N.ar    1  UNL1       -0.1887
     31 C          -4.4163  -16.7860   24.5079 C.3     1  UNL1        0.4524
     32 F          -4.8441  -16.0247   25.7274 F       1  UNL1       -0.1632
     33 F          -3.6662  -17.7533   25.3749 F       1  UNL1       -0.1632
     34 F          -5.1665  -15.8188   23.6409 F       1  UNL1       -0.1632
@<TRIPOS>BOND
     1    10     9    1
     2    10     8    1
     3     8     1    1
     4     1     2    2
     5     1     3   am
     6     3     4    1
     7     4     5    1
     8     5     6    1
     9     6     7    1
    10     7    23    1
    11    23    24    1
    12    24    25    1
    13    25    26   ar
    14    26    27   ar
    15    27    28   ar
    16    28    29   ar
    17    29    31    1
    18    31    32    1
    19    31    33    1
    20    31    34    1
    21    29    30   ar
    22    10    13    1
    23    13    14    1
    24    14    15   ar
    25    15    16   ar
    26    16    17    1
    27    16    18   ar
    28    18    19    1
    29    18    20   ar
    30    20    21   ar
    31    21    22    1
    32     7     3    1
    33    30    25   ar
    34    21    14   ar
    35     9    11    1
    36     9    12    1
@<TRIPOS>MOLECULE
*****
 34 36 0 0 0
SMALL
GASTEIGER

@<TRIPOS>ATOM
      1 C          -8.3378  -17.1638   22.0606 C.2     1  UNL1        0.2271
      2 O          -8.9742  -15.8686   22.4694 O.2     1  UNL1       -0.2748
      3 N          -8.9766  -18.0119   21.0010 N.am    1  UNL1       -0.2774
      4 C          -8.4590  -19.3243   20.4912 C.3     1  UNL1        0.0935
      5 C          -9.4077  -19.8200   19.4402 C.3     1  UNL1        0.0233
      6 C         -10.5115  -18.8139   19.3005 C.3     1  UNL1        0.0254
      7 C         -10.2450  -17.6965   20.2651 C.3     1  UNL1        0.1190
      8 C          -7.0625  -17.6111   22.7114 C.3     1  UNL1        0.1010
      9 N          -6.4153  -15.1366   23.1672 N.3     1  UNL1       -0.3215
     10 C          -6.0657  -16.5952   23.1848 C.3     1  UNL1        0.0644
     11 H          -7.3618  -15.0182   22.8061 H       1  UNL1        0.1188
     12 H          -5.7580  -14.6366   22.5685 H       1  UNL1        0.1188
     13 C          -4.7193  -17.0377   23.6760 C.3     1  UNL1        0.0447
     14 C          -3.6789  -17.4991   22.6989 C.ar    1  UNL1        0.0090
     15 C          -2.6818  -16.5231   22.1484 C.ar    1  UNL1        0.0300
     16 C          -1.6414  -16.9845   21.1714 C.ar    1  UNL1        0.1672
     17 F          -0.6441  -16.0085   20.6207 F       1  UNL1       -0.2018
     18 C          -1.5981  -18.4219   20.7448 C.ar    1  UNL1        0.1696
     19 F          -0.5577  -18.8833   19.7677 F       1  UNL1       -0.2017
     20 C          -2.5952  -19.3979   21.2953 C.ar    1  UNL1        0.0612
     21 C          -3.6356  -18.9365   22.2724 C.ar    1  UNL1        0.1386
     22 F          -4.6327  -19.9125   22.8230 F       1  UNL1       -0.2044
     23 C         -11.0974  -16.4776   20.4596 C.3     1  UNL1        0.2266
     24 O         -12.3712  -16.5709   21.2461 O.3     1  UNL1       -0.4584
     25 C         -12.4321  -17.4269   22.4765 C.ar    1  UNL1        0.2278
     26 C         -13.6031  -17.3194   23.4077 C.ar    1  UNL1        0.0783
     27 C         -13.6638  -18.1754   24.6380 C.ar    1  UNL1        0.1053
     28 N         -12.5537  -19.1387   24.9370 N.ar    1  UNL1       -0.2216
     29 C         -11.3827  -19.2461   24.0058 C.ar    1  UNL1        0.2377
     30 N         -11.3219  -18.3902   22.7755 N.ar    1  UNL1       -0.1887
     31 C         -10.2725  -20.2095   24.3049 C.3     1  UNL1        0.4524
     32 F          -9.1623  -21.1728   24.6040 F       1  UNL1       -0.1632
     33 F         -10.3923  -20.7770   22.9216 F       1  UNL1       -0.1632
     34 F         -10.1526  -19.6419   25.6882 F       1  UNL1       -0.1632
@<TRIPOS>BOND
     1    10     9    1
     2    10     8    1
     3     8     1    1
     4     1     2    2
     5     1     3   am
     6     3     4    1
     7     4     5    1
     8     5     6    1
     9     6     7    1
    10     7    23    1
    11    23    24    1
    12    24    25    1
    13    25    26   ar
    14    26    27   ar
    15    27    28   ar
    16    28    29   ar
    17    29    31    1
    18    31    32    1
    19    31    33    1
    20    31    34    1
    21    29    30   ar
    22    10    13    1
    23    13    14    1
    24    14    15   ar
    25    15    16   ar
    26    16    17    1
    27    16    18   ar
    28    18    19    1
    29    18    20   ar
    30    20    21   ar
    31    21    22    1
    32     7     3    1
    33    30    25   ar
    34    21    14   ar
    35     9    11    1
    36     9    12    1
