@<TRIPOS>MOLECULE
*****
 28 30 0 0 0
SMALL
GASTEIGER

@<TRIPOS>ATOM
      1 O          -7.7049  -19.8397   22.4859 O.2     1  UNL1       -0.2732
      2 C          -7.4766  -18.7678   21.4617 C.2     1  UNL1        0.2430
      3 N          -7.8827  -17.3535   21.7529 N.am    1  UNL1       -0.2972
      4 H          -7.7328  -16.6500   21.0807 H       1  UNL1        0.1500
      5 C          -6.8422  -19.1102   20.1463 C.3     1  UNL1        0.1759
      6 N          -5.4987  -18.5450   19.7919 N.am    1  UNL1       -0.2931
      7 C          -4.2953  -18.8995   20.6142 C.2     1  UNL1        0.2467
      8 O          -4.4354  -19.8192   21.7909 O.2     1  UNL1       -0.2701
      9 H          -5.4067  -17.9415   19.0196 H       1  UNL1        0.1502
     10 C          -2.9518  -18.3344   20.2598 C.ar    1  UNL1        0.0603
     11 C          -2.2299  -18.5261   18.9589 C.ar    1  UNL1        0.0120
     12 C          -0.9263  -17.7885   19.0392 C.ar    1  UNL1        0.0356
     13 S          -0.8425  -17.1410   20.3897 S.2     1  UNL1       -0.0858
     14 C          -2.0943  -17.4784   21.1440 C.ar    1  UNL1        0.0400
     15 C          -8.5170  -17.0110   23.0683 C.3     1  UNL1        0.1169
     16 C          -9.9715  -17.2980   23.2969 C.ar    1  UNL1       -0.0003
     17 C         -10.3810  -18.4335   24.1874 C.ar    1  UNL1       -0.0015
     18 C         -11.8355  -18.7205   24.4159 C.ar    1  UNL1        0.0111
     19 C         -12.8804  -17.8720   23.7540 C.ar    1  UNL1        0.0577
     20 CL        -14.3348  -18.1590   23.9825 Cl      1  UNL1       -0.0822
     21 C         -12.4709  -16.7365   22.8635 C.ar    1  UNL1        0.0111
     22 C         -11.0164  -16.4495   22.6349 C.ar    1  UNL1       -0.0015
     23 C          -7.6969  -16.3816   24.1552 C.ar    1  UNL1       -0.0003
     24 C          -8.3156  -16.0953   25.4913 C.ar    1  UNL1       -0.0024
     25 C          -7.4955  -15.4658   26.5781 C.ar    1  UNL1       -0.0003
     26 C          -6.0567  -15.1226   26.3288 C.ar    1  UNL1       -0.0000
     27 C          -5.4381  -15.4089   24.9927 C.ar    1  UNL1       -0.0003
     28 C          -6.2582  -16.0384   23.9059 C.ar    1  UNL1       -0.0024
@<TRIPOS>BOND
     1     1     2    2
     2     2     5    1
     3     5     6    1
     4     6     7   am
     5     7     8    2
     6     7    10    1
     7    10    11   ar
     8    11    12   ar
     9    12    13   ar
    10    13    14   ar
    11     2     3   am
    12     3    15    1
    13    15    23    1
    14    23    24   ar
    15    24    25   ar
    16    25    26   ar
    17    26    27   ar
    18    27    28   ar
    19    15    16    1
    20    16    17   ar
    21    17    18   ar
    22    18    19   ar
    23    19    20    1
    24    19    21   ar
    25    21    22   ar
    26    14    10   ar
    27    28    23   ar
    28    22    16   ar
    29     6     9    1
    30     3     4    1
@<TRIPOS>MOLECULE
*****
 28 30 0 0 0
SMALL
GASTEIGER

@<TRIPOS>ATOM
      1 O          -7.9351  -20.0989   22.6897 O.2     1  UNL1       -0.2732
      2 C          -7.3090  -19.2425   21.6292 C.2     1  UNL1        0.2430
      3 N          -7.6549  -17.7856   21.5407 N.am    1  UNL1       -0.2972
      4 H          -7.2440  -17.2236   20.8446 H       1  UNL1        0.1500
      5 C          -6.3372  -19.8430   20.6571 C.3     1  UNL1        0.1759
      6 N          -5.0747  -19.1111   20.3098 N.am    1  UNL1       -0.2931
      7 C          -3.9855  -18.9682   21.3312 C.2     1  UNL1        0.2467
      8 O          -4.1588  -19.5571   22.6999 O.2     1  UNL1       -0.2701
      9 H          -4.9610  -18.7246   19.4116 H       1  UNL1        0.1502
     10 C          -2.7231  -18.2363   20.9840 C.ar    1  UNL1        0.0603
     11 C          -2.3120  -16.8911   21.5051 C.ar    1  UNL1        0.0120
     12 C          -0.9849  -16.5445   20.8979 C.ar    1  UNL1        0.0356
     13 S          -0.5758  -17.6756   20.0015 S.2     1  UNL1       -0.0858
     14 C          -1.6500  -18.7211   20.0548 C.ar    1  UNL1        0.0400
     15 C          -8.6268  -17.1851   22.5127 C.3     1  UNL1        0.1169
     16 C          -8.1332  -16.6034   23.8042 C.ar    1  UNL1       -0.0003
     17 C          -6.8081  -15.9022   23.8530 C.ar    1  UNL1       -0.0015
     18 C          -6.3145  -15.3205   25.1446 C.ar    1  UNL1        0.0111
     19 C          -7.1461  -15.4399   26.3872 C.ar    1  UNL1        0.0577
     20 CL         -6.6525  -14.8582   27.6787 Cl      1  UNL1       -0.0822
     21 C          -8.4712  -16.1410   26.3383 C.ar    1  UNL1        0.0111
     22 C          -8.9648  -16.7228   25.0469 C.ar    1  UNL1       -0.0015
     23 C         -10.0923  -17.1663   22.1932 C.ar    1  UNL1       -0.0003
     24 C         -10.6196  -16.2311   21.1457 C.ar    1  UNL1       -0.0024
     25 C         -12.0850  -16.2123   20.8262 C.ar    1  UNL1       -0.0003
     26 C         -13.0231  -17.1288   21.5542 C.ar    1  UNL1       -0.0000
     27 C         -12.4958  -18.0640   22.6017 C.ar    1  UNL1       -0.0003
     28 C         -11.0304  -18.0828   22.9212 C.ar    1  UNL1       -0.0024
@<TRIPOS>BOND
     1     1     2    2
     2     2     5    1
     3     5     6    1
     4     6     7   am
     5     7     8    2
     6     7    10    1
     7    10    11   ar
     8    11    12   ar
     9    12    13   ar
    10    13    14   ar
    11     2     3   am
    12     3    15    1
    13    15    23    1
    14    23    24   ar
    15    24    25   ar
    16    25    26   ar
    17    26    27   ar
    18    27    28   ar
    19    15    16    1
    20    16    17   ar
    21    17    18   ar
    22    18    19   ar
    23    19    20    1
    24    19    21   ar
    25    21    22   ar
    26    14    10   ar
    27    28    23   ar
    28    22    16   ar
    29     6     9    1
    30     3     4    1
@<TRIPOS>MOLECULE
*****
 28 30 0 0 0
SMALL
GASTEIGER

@<TRIPOS>ATOM
      1 O          -7.9067  -20.1890   22.7048 O.2     1  UNL1       -0.2732
      2 C          -7.2355  -19.3991   21.6205 C.2     1  UNL1        0.2430
      3 N          -7.5390  -17.9391   21.4587 N.am    1  UNL1       -0.2972
      4 H          -7.0984  -17.4207   20.7470 H       1  UNL1        0.1500
      5 C          -6.2608  -20.0693   20.6980 C.3     1  UNL1        0.1759
      6 N          -5.0174  -19.3485   20.2685 N.am    1  UNL1       -0.2931
      7 C          -3.9123  -19.1071   21.2537 C.2     1  UNL1        0.2467
      8 O          -4.0506  -19.5866   22.6683 O.2     1  UNL1       -0.2701
      9 H          -4.9267  -19.0338   19.3401 H       1  UNL1        0.1502
     10 C          -2.6689  -18.3863   20.8242 C.ar    1  UNL1        0.0603
     11 C          -1.6354  -18.9039   19.8682 C.ar    1  UNL1        0.0120
     12 C          -0.5685  -17.8588   19.7285 C.ar    1  UNL1        0.0356
     13 S          -0.9426  -16.6954   20.5983 S.2     1  UNL1       -0.0858
     14 C          -2.2407  -17.0214   21.2755 C.ar    1  UNL1        0.0400
     15 C          -8.5136  -17.2689   22.3811 C.3     1  UNL1        0.1169
     16 C          -8.0335  -16.6579   23.6641 C.ar    1  UNL1       -0.0003
     17 C          -8.9085  -16.6865   24.8821 C.ar    1  UNL1       -0.0015
     18 C          -8.4283  -16.0754   26.1651 C.ar    1  UNL1        0.0111
     19 C          -7.0731  -15.4358   26.2301 C.ar    1  UNL1        0.0577
     20 CL         -6.5930  -14.8247   27.5131 Cl      1  UNL1       -0.0822
     21 C          -6.1981  -15.4072   25.0121 C.ar    1  UNL1        0.0111
     22 C          -6.6782  -16.0182   23.7291 C.ar    1  UNL1       -0.0015
     23 C          -9.9685  -17.2098   22.0205 C.ar    1  UNL1       -0.0003
     24 C         -10.9079  -18.2683   22.5174 C.ar    1  UNL1       -0.0024
     25 C         -12.3627  -18.2091   22.1568 C.ar    1  UNL1       -0.0003
     26 C         -12.8780  -17.0914   21.2993 C.ar    1  UNL1       -0.0000
     27 C         -11.9386  -16.0329   20.8025 C.ar    1  UNL1       -0.0003
     28 C         -10.4838  -16.0921   21.1631 C.ar    1  UNL1       -0.0024
@<TRIPOS>BOND
     1     1     2    2
     2     2     5    1
     3     5     6    1
     4     6     7   am
     5     7     8    2
     6     7    10    1
     7    10    11   ar
     8    11    12   ar
     9    12    13   ar
    10    13    14   ar
    11     2     3   am
    12     3    15    1
    13    15    23    1
    14    23    24   ar
    15    24    25   ar
    16    25    26   ar
    17    26    27   ar
    18    27    28   ar
    19    15    16    1
    20    16    17   ar
    21    17    18   ar
    22    18    19   ar
    23    19    20    1
    24    19    21   ar
    25    21    22   ar
    26    14    10   ar
    27    28    23   ar
    28    22    16   ar
    29     6     9    1
    30     3     4    1
@<TRIPOS>MOLECULE
*****
 28 30 0 0 0
SMALL
GASTEIGER

@<TRIPOS>ATOM
      1 O          -8.0035  -15.8322   21.9535 O.2     1  UNL1       -0.2732
      2 C          -7.4425  -16.8417   22.9109 C.2     1  UNL1        0.2430
      3 N          -8.1143  -18.1725   23.0764 N.am    1  UNL1       -0.2972
      4 H          -7.7462  -18.8350   23.7047 H       1  UNL1        0.1500
      5 C          -6.2098  -16.5202   23.7027 C.3     1  UNL1        0.1759
      6 N          -4.8747  -16.4621   23.0213 N.am    1  UNL1       -0.2931
      7 C          -4.2843  -17.7037   22.4213 C.2     1  UNL1        0.2467
      8 O          -5.0290  -19.0032   22.5026 O.2     1  UNL1       -0.2701
      9 H          -4.3859  -15.6092   22.9679 H       1  UNL1        0.1502
     10 C          -2.9492  -17.6457   21.7399 C.ar    1  UNL1        0.0603
     11 C          -2.1084  -16.4179   21.5509 C.ar    1  UNL1        0.0120
     12 C          -0.8601  -16.8187   20.8221 C.ar    1  UNL1        0.0356
     13 S          -0.9295  -18.2942   20.5608 S.2     1  UNL1       -0.0858
     14 C          -2.2206  -18.8052   21.1280 C.ar    1  UNL1        0.0400
     15 C          -9.3471  -18.4940   22.2846 C.3     1  UNL1        0.1169
     16 C          -9.2277  -19.1842   20.9582 C.ar    1  UNL1       -0.0003
     17 C          -7.8781  -19.5831   20.4390 C.ar    1  UNL1       -0.0015
     18 C          -7.7588  -20.2732   19.1125 C.ar    1  UNL1        0.0111
     19 C          -8.9890  -20.5644   18.3052 C.ar    1  UNL1        0.0577
     20 CL         -8.8696  -21.2546   16.9788 Cl      1  UNL1       -0.0822
     21 C         -10.3386  -20.1655   18.8244 C.ar    1  UNL1        0.0111
     22 C         -10.4579  -19.4754   20.1508 C.ar    1  UNL1       -0.0015
     23 C         -10.6992  -18.1254   22.8193 C.ar    1  UNL1       -0.0003
     24 C         -11.3457  -18.9741   23.8737 C.ar    1  UNL1       -0.0024
     25 C         -12.6978  -18.6054   24.4083 C.ar    1  UNL1       -0.0003
     26 C         -13.4034  -17.3881   23.8885 C.ar    1  UNL1       -0.0000
     27 C         -12.7570  -16.5394   22.8341 C.ar    1  UNL1       -0.0003
     28 C         -11.4049  -16.9081   22.2995 C.ar    1  UNL1       -0.0024
@<TRIPOS>BOND
     1     1     2    2
     2     2     5    1
     3     5     6    1
     4     6     7   am
     5     7     8    2
     6     7    10    1
     7    10    11   ar
     8    11    12   ar
     9    12    13   ar
    10    13    14   ar
    11     2     3   am
    12     3    15    1
    13    15    23    1
    14    23    24   ar
    15    24    25   ar
    16    25    26   ar
    17    26    27   ar
    18    27    28   ar
    19    15    16    1
    20    16    17   ar
    21    17    18   ar
    22    18    19   ar
    23    19    20    1
    24    19    21   ar
    25    21    22   ar
    26    14    10   ar
    27    28    23   ar
    28    22    16   ar
    29     6     9    1
    30     3     4    1
@<TRIPOS>MOLECULE
*****
 28 30 0 0 0
SMALL
GASTEIGER

@<TRIPOS>ATOM
      1 O          -8.1246  -15.8659   22.1275 O.2     1  UNL1       -0.2732
      2 C          -7.4189  -16.8429   23.0207 C.2     1  UNL1        0.2430
      3 N          -7.9420  -18.2414   23.1639 N.am    1  UNL1       -0.2972
      4 H          -7.4788  -18.8825   23.7501 H       1  UNL1        0.1500
      5 C          -6.1901  -16.4213   23.7706 C.3     1  UNL1        0.1759
      6 N          -4.8677  -16.3533   23.0657 N.am    1  UNL1       -0.2931
      7 C          -4.2551  -17.5997   22.4989 C.2     1  UNL1        0.2467
      8 O          -4.9648  -18.9140   22.6370 O.2     1  UNL1       -0.2701
      9 H          -4.4020  -15.4907   22.9751 H       1  UNL1        0.1502
     10 C          -2.9327  -17.5318   21.7941 C.ar    1  UNL1        0.0603
     11 C          -2.0637  -16.3159   21.6652 C.ar    1  UNL1        0.0120
     12 C          -0.8411  -16.7005   20.8859 C.ar    1  UNL1        0.0356
     13 S          -0.9546  -18.1541   20.5331 S.2     1  UNL1       -0.0858
     14 C          -2.2473  -18.6678   21.0944 C.ar    1  UNL1        0.0400
     15 C          -9.1708  -18.6630   22.4140 C.3     1  UNL1        0.1169
     16 C         -10.5225  -18.5201   23.0483 C.ar    1  UNL1       -0.0003
     17 C         -10.8368  -19.2551   24.3176 C.ar    1  UNL1       -0.0015
     18 C         -12.1886  -19.1121   24.9519 C.ar    1  UNL1        0.0111
     19 C         -13.2260  -18.2343   24.3170 C.ar    1  UNL1        0.0577
     20 CL        -14.5777  -18.0914   24.9513 Cl      1  UNL1       -0.0822
     21 C         -12.9116  -17.4993   23.0478 C.ar    1  UNL1        0.0111
     22 C         -11.5599  -17.6422   22.4134 C.ar    1  UNL1       -0.0015
     23 C          -9.0478  -19.2276   21.0297 C.ar    1  UNL1       -0.0003
     24 C         -10.2809  -19.5432   20.2361 C.ar    1  UNL1       -0.0024
     25 C         -10.1579  -20.1077   18.8519 C.ar    1  UNL1       -0.0003
     26 C          -8.8017  -20.3566   18.2612 C.ar    1  UNL1       -0.0000
     27 C          -7.5686  -20.0410   19.0548 C.ar    1  UNL1       -0.0003
     28 C          -7.6916  -19.4765   20.4390 C.ar    1  UNL1       -0.0024
@<TRIPOS>BOND
     1     1     2    2
     2     2     5    1
     3     5     6    1
     4     6     7   am
     5     7     8    2
     6     7    10    1
     7    10    11   ar
     8    11    12   ar
     9    12    13   ar
    10    13    14   ar
    11     2     3   am
    12     3    15    1
    13    15    23    1
    14    23    24   ar
    15    24    25   ar
    16    25    26   ar
    17    26    27   ar
    18    27    28   ar
    19    15    16    1
    20    16    17   ar
    21    17    18   ar
    22    18    19   ar
    23    19    20    1
    24    19    21   ar
    25    21    22   ar
    26    14    10   ar
    27    28    23   ar
    28    22    16   ar
    29     6     9    1
    30     3     4    1
@<TRIPOS>MOLECULE
*****
 28 30 0 0 0
SMALL
GASTEIGER

@<TRIPOS>ATOM
      1 O          -7.3567  -16.5626   21.4526 O.2     1  UNL1       -0.2732
      2 C          -7.3385  -17.4816   22.6381 C.2     1  UNL1        0.2430
      3 N          -6.7265  -18.8460   22.5199 N.am    1  UNL1       -0.2972
      4 H          -6.7145  -19.4491   23.2980 H       1  UNL1        0.1500
      5 C          -7.9322  -17.0362   23.9416 C.3     1  UNL1        0.1759
      6 N          -9.4213  -17.0238   24.1221 N.am    1  UNL1       -0.2931
      7 C         -10.2359  -18.2159   23.7158 C.2     1  UNL1        0.2467
      8 O          -9.5615  -19.4205   23.1289 O.2     1  UNL1       -0.2701
      9 H          -9.8639  -16.2333   24.5073 H       1  UNL1        0.1502
     10 C         -11.7250  -18.2036   23.8964 C.ar    1  UNL1        0.0603
     11 C         -12.7251  -17.6341   22.9344 C.ar    1  UNL1        0.0120
     12 C         -14.0936  -17.8371   23.5141 C.ar    1  UNL1        0.0356
     13 S         -13.9392  -18.5321   24.8344 S.2     1  UNL1       -0.0858
     14 C         -12.4753  -18.7586   25.0707 C.ar    1  UNL1        0.0400
     15 C          -6.1328  -19.2914   21.2164 C.3     1  UNL1        0.1169
     16 C          -4.6835  -19.0362   20.9263 C.ar    1  UNL1       -0.0003
     17 C          -3.7010  -18.9248   22.0543 C.ar    1  UNL1       -0.0015
     18 C          -2.2516  -18.6696   21.7641 C.ar    1  UNL1        0.0111
     19 C          -1.7847  -18.5257   20.3459 C.ar    1  UNL1        0.0577
     20 CL         -0.3354  -18.2705   20.0558 Cl      1  UNL1       -0.0822
     21 C          -2.7671  -18.6370   19.2179 C.ar    1  UNL1        0.0111
     22 C          -4.2165  -18.8923   19.5081 C.ar    1  UNL1       -0.0015
     23 C          -6.9885  -19.9921   20.2031 C.ar    1  UNL1       -0.0003
     24 C          -6.5880  -21.3431   19.6888 C.ar    1  UNL1       -0.0024
     25 C          -7.4437  -22.0437   18.6755 C.ar    1  UNL1       -0.0003
     26 C          -8.6999  -21.3933   18.1764 C.ar    1  UNL1       -0.0000
     27 C          -9.1004  -20.0424   18.6907 C.ar    1  UNL1       -0.0003
     28 C          -8.2447  -19.3417   19.7040 C.ar    1  UNL1       -0.0024
@<TRIPOS>BOND
     1     1     2    2
     2     2     5    1
     3     5     6    1
     4     6     7   am
     5     7     8    2
     6     7    10    1
     7    10    11   ar
     8    11    12   ar
     9    12    13   ar
    10    13    14   ar
    11     2     3   am
    12     3    15    1
    13    15    23    1
    14    23    24   ar
    15    24    25   ar
    16    25    26   ar
    17    26    27   ar
    18    27    28   ar
    19    15    16    1
    20    16    17   ar
    21    17    18   ar
    22    18    19   ar
    23    19    20    1
    24    19    21   ar
    25    21    22   ar
    26    14    10   ar
    27    28    23   ar
    28    22    16   ar
    29     6     9    1
    30     3     4    1
