@<TRIPOS>MOLECULE
*****
 34 37 0 0 0
SMALL
GASTEIGER

@<TRIPOS>ATOM
      1 C          -9.0135  -18.7110   20.7048 C.ar    1  UNL1        0.0951
      2 C          -9.7185  -19.2978   19.5180 C.ar    1  UNL1        0.1454
      3 F         -11.1196  -18.8726   19.1922 F       1  UNL1       -0.2040
      4 C          -9.0225  -20.3098   18.6570 C.ar    1  UNL1        0.0312
      5 C          -7.6214  -20.7350   18.9827 C.ar    1  UNL1        0.0204
      6 C          -6.9163  -20.1481   20.1696 C.ar    1  UNL1        0.0924
      7 C          -7.6124  -19.1361   21.0306 C.ar    1  UNL1        0.1598
      8 F          -6.9073  -18.5493   22.2174 F       1  UNL1       -0.2026
      9 C          -9.7095  -17.6990   21.5658 C.2     1  UNL1        0.2036
     10 O         -10.1041  -16.3704   20.9920 O.2     1  UNL1       -0.2863
     11 C          -7.5436  -16.2320   25.6735 C.2     1  UNL1        0.0974
     12 C          -8.1834  -16.8022   26.9046 C.2     1  UNL1        0.2421
     13 N          -9.3634  -17.7198   26.7803 N.2     1  UNL1       -0.0304
     14 C          -9.9038  -18.0672   25.4249 C.2     1  UNL1        0.3721
     15 N         -11.0461  -18.9380   24.9927 N.2     1  UNL1       -0.0307
     16 C         -11.1124  -18.9061   23.4945 C.2     1  UNL1        0.2390
     17 C         -10.0110  -18.0155   23.0007 C.2     1  UNL1        0.0896
     18 C          -9.2641  -17.4971   24.1938 C.2     1  UNL1        0.0782
     19 C          -8.0840  -16.5795   24.3181 C.3     1  UNL1        0.0751
     20 N          -5.1835  -14.3969   25.9222 N.1     1  UNL1       -0.1910
     21 C          -6.3636  -15.3145   25.7979 C.1     1  UNL1        0.1003
     22 N          -5.5152  -20.5733   20.4954 N.pl3   1  UNL1       -0.2127
     23 H          -5.3082  -21.5268   20.6269 H       1  UNL1        0.1738
     24 S          -4.4296  -19.5458   20.6207 S.O2    1  UNL1        0.0780
     25 O          -3.6975  -20.4364   21.5802 O.2     1  UNL1       -0.1498
     26 O          -5.1617  -18.6552   19.6611 O.2     1  UNL1       -0.1498
     27 C          -3.3440  -18.5183   20.7460 C.ar    1  UNL1        0.1797
     28 C          -2.3449  -18.3443   19.6407 C.ar    1  UNL1        0.1611
     29 F          -2.4315  -19.1977   18.4102 F       1  UNL1       -0.2027
     30 C          -1.2593  -17.3168   19.7659 C.ar    1  UNL1        0.0312
     31 C          -1.1728  -16.4633   20.9964 C.ar    1  UNL1        0.0047
     32 C          -2.1718  -16.6373   22.1017 C.ar    1  UNL1        0.0312
     33 C          -3.2574  -17.6648   21.9765 C.ar    1  UNL1        0.1611
     34 F          -4.2565  -17.8389   23.0817 F       1  UNL1       -0.2027
@<TRIPOS>BOND
     1    20    21    3
     2    21    11    1
     3    11    12    2
     4    12    13    1
     5    13    14    2
     6    14    15    1
     7    15    16    2
     8    16    17    1
     9    17     9    1
    10     9    10    2
    11     9     1    1
    12     1     2   ar
    13     2     3    1
    14     2     4   ar
    15     4     5   ar
    16     5     6   ar
    17     6    22    1
    18    22    24    1
    19    24    25    2
    20    24    26    2
    21    24    27    1
    22    27    28   ar
    23    28    29    1
    24    28    30   ar
    25    30    31   ar
    26    31    32   ar
    27    32    33   ar
    28    33    34    1
    29     6     7   ar
    30     7     8    1
    31    17    18    2
    32    18    19    1
    33    19    11    1
    34    18    14    1
    35     7     1   ar
    36    33    27   ar
    37    22    23    1
@<TRIPOS>MOLECULE
*****
 34 37 0 0 0
SMALL
GASTEIGER

@<TRIPOS>ATOM
      1 C         -10.5108  -19.0589   22.2674 C.ar    1  UNL1        0.0951
      2 C         -11.5061  -18.5367   21.2741 C.ar    1  UNL1        0.1454
      3 F         -12.8048  -17.9551   21.7488 F       1  UNL1       -0.2040
      4 C         -11.2028  -18.5959   19.8063 C.ar    1  UNL1        0.0312
      5 C          -9.9042  -19.1775   19.3317 C.ar    1  UNL1        0.0204
      6 C          -8.9088  -19.6997   20.3250 C.ar    1  UNL1        0.0924
      7 C          -9.2121  -19.6405   21.7928 C.ar    1  UNL1        0.1598
      8 F          -8.2167  -20.1627   22.7860 F       1  UNL1       -0.2026
      9 C         -10.8141  -18.9997   23.7352 C.2     1  UNL1        0.2036
     10 O         -11.9576  -19.7912   24.2973 O.2     1  UNL1       -0.2863
     11 C          -7.9633  -15.1715   22.7685 C.2     1  UNL1        0.0974
     12 C          -7.2985  -14.6167   23.9933 C.2     1  UNL1        0.2421
     13 N          -7.5487  -15.2450   25.3322 N.2     1  UNL1       -0.0304
     14 C          -8.4638  -16.4280   25.4463 C.2     1  UNL1        0.3721
     15 N          -8.8982  -17.2512   26.6226 N.2     1  UNL1       -0.0307
     16 C          -9.8315  -18.3147   26.1248 C.2     1  UNL1        0.2390
     17 C          -9.9739  -18.1489   24.6408 C.2     1  UNL1        0.0896
     18 C          -9.1286  -16.9828   24.2215 C.2     1  UNL1        0.0782
     19 C          -8.8783  -16.3545   22.8826 C.3     1  UNL1        0.0751
     20 N          -7.4628  -13.9149   20.0907 N.1     1  UNL1       -0.1910
     21 C          -7.7131  -14.5432   21.4296 C.1     1  UNL1        0.1003
     22 N          -7.6101  -20.2813   19.8503 N.pl3   1  UNL1       -0.2127
     23 H          -7.6055  -20.9538   19.1314 H       1  UNL1        0.1738
     24 S          -6.3185  -19.8380   20.4710 S.O2    1  UNL1        0.0780
     25 O          -6.0849  -21.2299   20.9789 O.2     1  UNL1       -0.1498
     26 O          -6.5521  -18.4461   19.9632 O.2     1  UNL1       -0.1498
     27 C          -5.0269  -19.3947   21.0918 C.ar    1  UNL1        0.1797
     28 C          -5.0416  -18.5411   22.3251 C.ar    1  UNL1        0.1611
     29 F          -6.3479  -18.1307   22.9377 F       1  UNL1       -0.2027
     30 C          -3.7500  -18.0978   22.9458 C.ar    1  UNL1        0.0312
     31 C          -2.4437  -18.5081   22.3332 C.ar    1  UNL1        0.0047
     32 C          -2.4290  -19.3618   21.0999 C.ar    1  UNL1        0.0312
     33 C          -3.7206  -19.8051   20.4792 C.ar    1  UNL1        0.1611
     34 F          -3.7059  -20.6587   19.2459 F       1  UNL1       -0.2027
@<TRIPOS>BOND
     1    20    21    3
     2    21    11    1
     3    11    12    2
     4    12    13    1
     5    13    14    2
     6    14    15    1
     7    15    16    2
     8    16    17    1
     9    17     9    1
    10     9    10    2
    11     9     1    1
    12     1     2   ar
    13     2     3    1
    14     2     4   ar
    15     4     5   ar
    16     5     6   ar
    17     6    22    1
    18    22    24    1
    19    24    25    2
    20    24    26    2
    21    24    27    1
    22    27    28   ar
    23    28    29    1
    24    28    30   ar
    25    30    31   ar
    26    31    32   ar
    27    32    33   ar
    28    33    34    1
    29     6     7   ar
    30     7     8    1
    31    17    18    2
    32    18    19    1
    33    19    11    1
    34    18    14    1
    35     7     1   ar
    36    33    27   ar
    37    22    23    1
@<TRIPOS>MOLECULE
*****
 34 37 0 0 0
SMALL
GASTEIGER

@<TRIPOS>ATOM
      1 C         -11.6773   -4.8589   18.4498 C.ar    1  UNL1        0.0951
      2 C         -10.3384   -5.4335   18.8065 C.ar    1  UNL1        0.1454
      3 F          -9.3301   -4.5919   19.5311 F       1  UNL1       -0.2040
      4 C         -10.0078   -6.8496   18.4385 C.ar    1  UNL1        0.0312
      5 C         -11.0161   -7.6911   17.7138 C.ar    1  UNL1        0.0204
      6 C         -12.3550   -7.1165   17.3572 C.ar    1  UNL1        0.0924
      7 C         -12.6857   -5.7005   17.7252 C.ar    1  UNL1        0.1598
      8 F         -14.0246   -5.1260   17.3685 F       1  UNL1       -0.2026
      9 C         -12.0080   -3.4429   18.8178 C.2     1  UNL1        0.2036
     10 O         -12.7644   -3.1531   20.0803 O.2     1  UNL1       -0.2863
     11 C         -13.8577    1.0221   18.2193 C.2     1  UNL1        0.0974
     12 C         -13.1063    1.8324   17.2050 C.2     1  UNL1        0.2421
     13 N         -11.9212    1.2408   16.5011 N.2     1  UNL1       -0.0304
     14 C         -11.4875   -0.1612   16.8116 C.2     1  UNL1        0.3721
     15 N         -10.3664   -1.0055   16.2822 N.2     1  UNL1       -0.0307
     16 C         -10.4249   -2.3376   16.9693 C.2     1  UNL1        0.2390
     17 C         -11.5821   -2.3166   17.9233 C.2     1  UNL1        0.0896
     18 C         -12.2388   -0.9714   17.8259 C.2     1  UNL1        0.0782
     19 C         -13.4240   -0.3798   18.5297 C.3     1  UNL1        0.0751
     20 N         -16.2280    2.2055   19.6270 N.1     1  UNL1       -0.1910
     21 C         -15.0429    1.6138   18.9231 C.1     1  UNL1        0.1003
     22 N         -13.3633   -7.9581   16.6326 N.pl3   1  UNL1       -0.2127
     23 H         -13.1821   -8.2613   15.7136 H       1  UNL1        0.1738
     24 S         -14.6476   -8.3379   17.3081 S.O2    1  UNL1        0.0780
     25 O         -15.4022   -8.0228   16.0507 O.2     1  UNL1       -0.1498
     26 O         -13.8930   -8.6529   18.5656 O.2     1  UNL1       -0.1498
     27 C         -15.9320   -8.7176   17.9837 C.ar    1  UNL1        0.1797
     28 C         -16.8838   -7.6514   18.4386 C.ar    1  UNL1        0.1611
     29 F         -16.5515   -6.2053   18.2180 F       1  UNL1       -0.2027
     30 C         -18.1681   -8.0310   19.1142 C.ar    1  UNL1        0.0312
     31 C         -18.5005   -9.4770   19.3349 C.ar    1  UNL1        0.0047
     32 C         -17.5487  -10.5433   18.8799 C.ar    1  UNL1        0.0312
     33 C         -16.2644  -10.1636   18.2044 C.ar    1  UNL1        0.1611
     34 F         -15.3125  -11.2298   17.7494 F       1  UNL1       -0.2027
@<TRIPOS>BOND
     1    20    21    3
     2    21    11    1
     3    11    12    2
     4    12    13    1
     5    13    14    2
     6    14    15    1
     7    15    16    2
     8    16    17    1
     9    17     9    1
    10     9    10    2
    11     9     1    1
    12     1     2   ar
    13     2     3    1
    14     2     4   ar
    15     4     5   ar
    16     5     6   ar
    17     6    22    1
    18    22    24    1
    19    24    25    2
    20    24    26    2
    21    24    27    1
    22    27    28   ar
    23    28    29    1
    24    28    30   ar
    25    30    31   ar
    26    31    32   ar
    27    32    33   ar
    28    33    34    1
    29     6     7   ar
    30     7     8    1
    31    17    18    2
    32    18    19    1
    33    19    11    1
    34    18    14    1
    35     7     1   ar
    36    33    27   ar
    37    22    23    1
@<TRIPOS>MOLECULE
*****
 34 37 0 0 0
SMALL
GASTEIGER

@<TRIPOS>ATOM
      1 C          -8.2710  -16.9433   25.2247 C.ar    1  UNL1        0.0951
      2 C          -8.2641  -16.5892   26.6822 C.ar    1  UNL1        0.1454
      3 F          -9.3909  -17.0333   27.5671 F       1  UNL1       -0.2040
      4 C          -7.1305  -15.7912   27.2549 C.ar    1  UNL1        0.0312
      5 C          -6.0036  -15.3471   26.3700 C.ar    1  UNL1        0.0204
      6 C          -6.0105  -15.7012   24.9124 C.ar    1  UNL1        0.0924
      7 C          -7.1441  -16.4992   24.3397 C.ar    1  UNL1        0.1598
      8 F          -7.1509  -16.8532   22.8821 F       1  UNL1       -0.2026
      9 C          -9.4046  -17.7413   24.6520 C.2     1  UNL1        0.2036
     10 O          -9.6393  -19.1490   25.1139 O.2     1  UNL1       -0.2863
     11 C         -10.0969  -18.8772   19.9672 C.2     1  UNL1        0.0974
     12 C         -11.1047  -17.9917   19.2963 C.2     1  UNL1        0.2421
     13 N         -11.7758  -16.8973   20.0720 N.2     1  UNL1       -0.0304
     14 C         -11.4391  -16.6883   21.5187 C.2     1  UNL1        0.3721
     15 N         -11.9341  -15.6990   22.5317 N.2     1  UNL1       -0.0307
     16 C         -11.2323  -15.9730   23.8287 C.2     1  UNL1        0.2390
     17 C         -10.3034  -17.1317   23.6174 C.2     1  UNL1        0.0896
     18 C         -10.4313  -17.5738   22.1896 C.2     1  UNL1        0.0782
     19 C          -9.7602  -18.6682   21.4139 C.3     1  UNL1        0.0751
     20 N          -8.7546  -21.0661   18.4158 N.1     1  UNL1       -0.1910
     21 C          -9.4258  -19.9717   19.1915 C.1     1  UNL1        0.1003
     22 N          -4.8837  -15.2571   24.0275 N.pl3   1  UNL1       -0.2127
     23 H          -4.6293  -14.3066   23.9940 H       1  UNL1        0.1738
     24 S          -4.1444  -16.2612   23.1936 S.O2    1  UNL1        0.0780
     25 O          -4.1036  -17.2013   24.3617 O.2     1  UNL1       -0.1498
     26 O          -4.1852  -15.3211   22.0255 O.2     1  UNL1       -0.1498
     27 C          -3.4051  -17.2653   22.3597 C.ar    1  UNL1        0.1797
     28 C          -2.0871  -16.9024   21.7423 C.ar    1  UNL1        0.1611
     29 F          -1.5083  -15.5356   21.9588 F       1  UNL1       -0.2027
     30 C          -1.3478  -17.9064   20.9084 C.ar    1  UNL1        0.0312
     31 C          -1.9265  -19.2733   20.6919 C.ar    1  UNL1        0.0047
     32 C          -3.2445  -19.6361   21.3093 C.ar    1  UNL1        0.0312
     33 C          -3.9838  -18.6321   22.1432 C.ar    1  UNL1        0.1611
     34 F          -5.3018  -18.9948   22.7606 F       1  UNL1       -0.2027
@<TRIPOS>BOND
     1    20    21    3
     2    21    11    1
     3    11    12    2
     4    12    13    1
     5    13    14    2
     6    14    15    1
     7    15    16    2
     8    16    17    1
     9    17     9    1
    10     9    10    2
    11     9     1    1
    12     1     2   ar
    13     2     3    1
    14     2     4   ar
    15     4     5   ar
    16     5     6   ar
    17     6    22    1
    18    22    24    1
    19    24    25    2
    20    24    26    2
    21    24    27    1
    22    27    28   ar
    23    28    29    1
    24    28    30   ar
    25    30    31   ar
    26    31    32   ar
    27    32    33   ar
    28    33    34    1
    29     6     7   ar
    30     7     8    1
    31    17    18    2
    32    18    19    1
    33    19    11    1
    34    18    14    1
    35     7     1   ar
    36    33    27   ar
    37    22    23    1
@<TRIPOS>MOLECULE
*****
 34 37 0 0 0
SMALL
GASTEIGER

@<TRIPOS>ATOM
      1 C          -5.7949  -15.9013   24.5303 C.ar    1  UNL1        0.0951
      2 C          -5.5189  -15.3030   25.8778 C.ar    1  UNL1        0.1454
      3 F          -4.2192  -14.5994   26.1340 F       1  UNL1       -0.2040
      4 C          -6.5426  -15.4084   26.9692 C.ar    1  UNL1        0.0312
      5 C          -7.8423  -16.1121   26.7130 C.ar    1  UNL1        0.0204
      6 C          -8.1182  -16.7104   25.3654 C.ar    1  UNL1        0.0924
      7 C          -7.0946  -16.6050   24.2740 C.ar    1  UNL1        0.1598
      8 F          -7.3706  -17.2033   22.9265 F       1  UNL1       -0.2026
      9 C          -4.7712  -15.7959   23.4390 C.2     1  UNL1        0.2036
     10 O          -4.5495  -14.4860   22.7425 O.2     1  UNL1       -0.2863
     11 C          -5.8893  -19.5626   20.5618 C.2     1  UNL1        0.0974
     12 C          -4.7718  -20.5560   20.4427 C.2     1  UNL1        0.2421
     13 N          -3.4818  -20.3249   21.1725 N.2     1  UNL1       -0.0304
     14 C          -3.3094  -19.1003   22.0213 C.2     1  UNL1        0.3721
     15 N          -2.1611  -18.6079   22.8513 N.2     1  UNL1       -0.0307
     16 C          -2.5689  -17.3101   23.4834 C.2     1  UNL1        0.2390
     17 C          -3.9693  -17.0004   23.0441 C.2     1  UNL1        0.0896
     18 C          -4.4269  -18.1069   22.1404 C.2     1  UNL1        0.0782
     19 C          -5.7169  -18.3380   21.4107 C.3     1  UNL1        0.0751
     20 N          -8.4692  -20.0250   19.1023 N.1     1  UNL1       -0.1910
     21 C          -7.1793  -19.7938   19.8321 C.1     1  UNL1        0.1003
     22 N          -9.4179  -17.4140   25.1092 N.pl3   1  UNL1       -0.2127
     23 H          -9.7733  -18.0486   25.7727 H       1  UNL1        0.1738
     24 S         -10.1763  -17.1508   23.8421 S.O2    1  UNL1        0.0780
     25 O         -10.0804  -18.6039   23.4827 O.2     1  UNL1       -0.1498
     26 O         -10.2722  -15.6976   24.2013 O.2     1  UNL1       -0.1498
     27 C         -10.9347  -16.8875   22.5749 C.ar    1  UNL1        0.1797
     28 C         -10.2870  -16.1234   21.4583 C.ar    1  UNL1        0.1611
     29 F          -8.8811  -15.6226   21.6088 F       1  UNL1       -0.2027
     30 C         -11.0453  -15.8601   20.1912 C.ar    1  UNL1        0.0312
     31 C         -12.4513  -16.3608   20.0406 C.ar    1  UNL1        0.0047
     32 C         -13.0989  -17.1249   21.1572 C.ar    1  UNL1        0.0312
     33 C         -12.3406  -17.3882   22.4243 C.ar    1  UNL1        0.1611
     34 F         -12.9881  -18.1523   23.5409 F       1  UNL1       -0.2027
@<TRIPOS>BOND
     1    20    21    3
     2    21    11    1
     3    11    12    2
     4    12    13    1
     5    13    14    2
     6    14    15    1
     7    15    16    2
     8    16    17    1
     9    17     9    1
    10     9    10    2
    11     9     1    1
    12     1     2   ar
    13     2     3    1
    14     2     4   ar
    15     4     5   ar
    16     5     6   ar
    17     6    22    1
    18    22    24    1
    19    24    25    2
    20    24    26    2
    21    24    27    1
    22    27    28   ar
    23    28    29    1
    24    28    30   ar
    25    30    31   ar
    26    31    32   ar
    27    32    33   ar
    28    33    34    1
    29     6     7   ar
    30     7     8    1
    31    17    18    2
    32    18    19    1
    33    19    11    1
    34    18    14    1
    35     7     1   ar
    36    33    27   ar
    37    22    23    1
@<TRIPOS>MOLECULE
*****
 34 37 0 0 0
SMALL
GASTEIGER

@<TRIPOS>ATOM
      1 C          -7.7511  -15.9717   25.4907 C.ar    1  UNL1        0.0951
      2 C          -7.4942  -15.8454   26.9631 C.ar    1  UNL1        0.1454
      3 F          -8.6455  -15.7455   27.9194 F       1  UNL1       -0.2040
      4 C          -6.0861  -15.8191   27.4793 C.ar    1  UNL1        0.0312
      5 C          -4.9347  -15.9190   26.5231 C.ar    1  UNL1        0.0204
      6 C          -5.1916  -16.0453   25.0506 C.ar    1  UNL1        0.0924
      7 C          -6.5998  -16.0716   24.5344 C.ar    1  UNL1        0.1598
      8 F          -6.8565  -16.1979   23.0620 F       1  UNL1       -0.2026
      9 C          -9.1592  -15.9981   24.9746 C.2     1  UNL1        0.2036
     10 O          -9.9742  -14.7390   24.9541 O.2     1  UNL1       -0.2863
     11 C         -11.4959  -17.0377   20.8303 C.2     1  UNL1        0.0974
     12 C         -11.9244  -18.4728   20.7478 C.2     1  UNL1        0.2421
     13 N         -11.6187  -19.4129   21.8760 N.2     1  UNL1       -0.0304
     14 C         -10.8844  -18.9178   23.0866 C.2     1  UNL1        0.3721
     15 N         -10.4457  -19.6056   24.3454 N.2     1  UNL1       -0.0307
     16 C          -9.7461  -18.5956   25.2059 C.2     1  UNL1        0.2390
     17 C          -9.7523  -17.2836   24.4789 C.2     1  UNL1        0.0896
     18 C         -10.4559  -17.4828   23.1691 C.2     1  UNL1        0.0782
     19 C         -10.7616  -16.5427   22.0409 C.3     1  UNL1        0.0751
     20 N         -12.1074  -15.1576   18.5739 N.1     1  UNL1       -0.1910
     21 C         -11.8016  -16.0977   19.7021 C.1     1  UNL1        0.1003
     22 N          -4.0403  -16.1452   24.0943 N.pl3   1  UNL1       -0.2127
     23 H          -3.3218  -15.4725   24.1170 H       1  UNL1        0.1738
     24 S          -3.9837  -17.2699   23.1035 S.O2    1  UNL1        0.0780
     25 O          -3.9025  -16.2776   21.9816 O.2     1  UNL1       -0.1498
     26 O          -4.0648  -18.2623   24.2254 O.2     1  UNL1       -0.1498
     27 C          -3.9271  -18.3947   22.1127 C.ar    1  UNL1        0.1797
     28 C          -2.6144  -18.7959   21.5078 C.ar    1  UNL1        0.1611
     29 F          -1.3583  -18.0724   21.8936 F       1  UNL1       -0.2027
     30 C          -2.5577  -19.9207   20.5170 C.ar    1  UNL1        0.0312
     31 C          -3.8137  -20.6443   20.1311 C.ar    1  UNL1        0.0047
     32 C          -5.1264  -20.2431   20.7360 C.ar    1  UNL1        0.0312
     33 C          -5.1831  -19.1183   21.7268 C.ar    1  UNL1        0.1611
     34 F          -6.4957  -18.7171   22.3317 F       1  UNL1       -0.2027
@<TRIPOS>BOND
     1    20    21    3
     2    21    11    1
     3    11    12    2
     4    12    13    1
     5    13    14    2
     6    14    15    1
     7    15    16    2
     8    16    17    1
     9    17     9    1
    10     9    10    2
    11     9     1    1
    12     1     2   ar
    13     2     3    1
    14     2     4   ar
    15     4     5   ar
    16     5     6   ar
    17     6    22    1
    18    22    24    1
    19    24    25    2
    20    24    26    2
    21    24    27    1
    22    27    28   ar
    23    28    29    1
    24    28    30   ar
    25    30    31   ar
    26    31    32   ar
    27    32    33   ar
    28    33    34    1
    29     6     7   ar
    30     7     8    1
    31    17    18    2
    32    18    19    1
    33    19    11    1
    34    18    14    1
    35     7     1   ar
    36    33    27   ar
    37    22    23    1
@<TRIPOS>MOLECULE
*****
 34 37 0 0 0
SMALL
GASTEIGER

@<TRIPOS>ATOM
      1 C          -8.7767  -17.6300   23.9823 C.ar    1  UNL1        0.0951
      2 C          -8.2193  -16.3013   24.3992 C.ar    1  UNL1        0.1454
      3 F          -9.0609  -15.3530   25.2007 F       1  UNL1       -0.2040
      4 C          -6.8202  -15.9209   24.0146 C.ar    1  UNL1        0.0312
      5 C          -5.9785  -16.8692   23.2131 C.ar    1  UNL1        0.0204
      6 C          -6.5361  -18.1980   22.7963 C.ar    1  UNL1        0.0924
      7 C          -7.9351  -18.5784   23.1809 C.ar    1  UNL1        0.1598
      8 F          -8.4925  -19.9071   22.7640 F       1  UNL1       -0.2026
      9 C         -10.1758  -18.0104   24.3669 C.2     1  UNL1        0.2036
     10 O         -10.4628  -18.5136   25.7506 O.2     1  UNL1       -0.2863
     11 C         -10.5558  -15.2943   20.3427 C.2     1  UNL1        0.0974
     12 C         -11.8627  -15.4864   19.6319 C.2     1  UNL1        0.2421
     13 N         -12.8828  -16.4386   20.1821 N.2     1  UNL1       -0.0304
     14 C         -12.5960  -17.1987   21.4430 C.2     1  UNL1        0.3721
     15 N         -13.4024  -18.1983   22.2178 N.2     1  UNL1       -0.0307
     16 C         -12.5940  -18.6241   23.4074 C.2     1  UNL1        0.2390
     17 C         -11.2879  -17.8876   23.3679 C.2     1  UNL1        0.0896
     18 C         -11.2891  -17.0066   22.1537 C.2     1  UNL1        0.0782
     19 C         -10.2690  -16.0544   21.6035 C.3     1  UNL1        0.0751
     20 N          -8.5156  -13.3898   19.2423 N.1     1  UNL1       -0.1910
     21 C          -9.5357  -14.3420   19.7925 C.1     1  UNL1        0.1003
     22 N          -5.6944  -19.1463   21.9948 N.pl3   1  UNL1       -0.2127
     23 H          -5.9966  -20.0723   21.8518 H       1  UNL1        0.1738
     24 S          -4.3924  -18.6837   21.4112 S.O2    1  UNL1        0.0780
     25 O          -3.6790  -19.1206   22.6562 O.2     1  UNL1       -0.1498
     26 O          -5.1057  -18.2468   20.1661 O.2     1  UNL1       -0.1498
     27 C          -3.0902  -18.2211   20.8275 C.ar    1  UNL1        0.1797
     28 C          -2.5099  -18.9252   19.6369 C.ar    1  UNL1        0.1611
     29 F          -3.2316  -20.0918   19.0299 F       1  UNL1       -0.2027
     30 C          -1.2079  -18.4627   19.0531 C.ar    1  UNL1        0.0312
     31 C          -0.4862  -17.2961   19.6600 C.ar    1  UNL1        0.0047
     32 C          -1.0665  -16.5921   20.8506 C.ar    1  UNL1        0.0312
     33 C          -2.3685  -17.0546   21.4343 C.ar    1  UNL1        0.1611
     34 F          -2.9489  -16.3506   22.6249 F       1  UNL1       -0.2027
@<TRIPOS>BOND
     1    20    21    3
     2    21    11    1
     3    11    12    2
     4    12    13    1
     5    13    14    2
     6    14    15    1
     7    15    16    2
     8    16    17    1
     9    17     9    1
    10     9    10    2
    11     9     1    1
    12     1     2   ar
    13     2     3    1
    14     2     4   ar
    15     4     5   ar
    16     5     6   ar
    17     6    22    1
    18    22    24    1
    19    24    25    2
    20    24    26    2
    21    24    27    1
    22    27    28   ar
    23    28    29    1
    24    28    30   ar
    25    30    31   ar
    26    31    32   ar
    27    32    33   ar
    28    33    34    1
    29     6     7   ar
    30     7     8    1
    31    17    18    2
    32    18    19    1
    33    19    11    1
    34    18    14    1
    35     7     1   ar
    36    33    27   ar
    37    22    23    1
@<TRIPOS>MOLECULE
*****
 34 37 0 0 0
SMALL
GASTEIGER

@<TRIPOS>ATOM
      1 C         -11.5101   -4.6352   18.2053 C.ar    1  UNL1        0.0951
      2 C         -10.1999   -5.1675   18.7053 C.ar    1  UNL1        0.1454
      3 F          -9.2164   -4.2441   19.3610 F       1  UNL1       -0.2040
      4 C          -9.8732   -6.6232   18.5495 C.ar    1  UNL1        0.0312
      5 C         -10.8567   -7.5466   17.8938 C.ar    1  UNL1        0.0204
      6 C         -12.1670   -7.0143   17.3938 C.ar    1  UNL1        0.0924
      7 C         -12.4937   -5.5586   17.5495 C.ar    1  UNL1        0.1598
      8 F         -13.8039   -5.0263   17.0495 F       1  UNL1       -0.2026
      9 C         -11.8368   -3.1795   18.3610 C.2     1  UNL1        0.2036
     10 O         -10.9137   -2.1394   17.7990 O.2     1  UNL1       -0.2863
     11 C         -14.3600    0.9831   18.2126 C.2     1  UNL1        0.0974
     12 C         -15.5651    0.9656   19.1056 C.2     1  UNL1        0.2421
     13 N         -15.8768   -0.2544   19.9208 N.2     1  UNL1       -0.0304
     14 C         -14.9835   -1.4568   19.8430 C.2     1  UNL1        0.3721
     15 N         -15.0365   -2.7923   20.5238 N.2     1  UNL1       -0.0307
     16 C         -13.8641   -3.6002   20.0516 C.2     1  UNL1        0.2390
     17 C         -13.0866   -2.7640   19.0788 C.2     1  UNL1        0.0896
     18 C         -13.7784   -1.4393   18.9499 C.2     1  UNL1        0.0782
     19 C         -13.4667   -0.2193   18.1347 C.3     1  UNL1        0.0751
     20 N         -13.7366    3.4230   16.5821 N.1     1  UNL1       -0.1910
     21 C         -14.0483    2.2030   17.3973 C.1     1  UNL1        0.1003
     22 N         -13.1505   -7.9377   16.7380 N.pl3   1  UNL1       -0.2127
     23 H         -12.9547   -8.3154   15.8502 H       1  UNL1        0.1738
     24 S         -14.4323   -8.2857   17.4350 S.O2    1  UNL1        0.0780
     25 O         -13.6767   -8.5158   18.7101 O.2     1  UNL1       -0.1498
     26 O         -15.1881   -8.0556   16.1599 O.2     1  UNL1       -0.1498
     27 C         -15.7143   -8.6337   18.1320 C.ar    1  UNL1        0.1797
     28 C         -16.5826   -7.5462   18.6918 C.ar    1  UNL1        0.1611
     29 F         -16.1692   -6.1108   18.5547 F       1  UNL1       -0.2027
     30 C         -17.8645   -7.8941   19.3887 C.ar    1  UNL1        0.0312
     31 C         -18.2780   -9.3295   19.5258 C.ar    1  UNL1        0.0047
     32 C         -17.4097  -10.4169   18.9660 C.ar    1  UNL1        0.0312
     33 C         -16.1278  -10.0690   18.2691 C.ar    1  UNL1        0.1611
     34 F         -15.2594  -11.1564   17.7093 F       1  UNL1       -0.2027
@<TRIPOS>BOND
     1    20    21    3
     2    21    11    1
     3    11    12    2
     4    12    13    1
     5    13    14    2
     6    14    15    1
     7    15    16    2
     8    16    17    1
     9    17     9    1
    10     9    10    2
    11     9     1    1
    12     1     2   ar
    13     2     3    1
    14     2     4   ar
    15     4     5   ar
    16     5     6   ar
    17     6    22    1
    18    22    24    1
    19    24    25    2
    20    24    26    2
    21    24    27    1
    22    27    28   ar
    23    28    29    1
    24    28    30   ar
    25    30    31   ar
    26    31    32   ar
    27    32    33   ar
    28    33    34    1
    29     6     7   ar
    30     7     8    1
    31    17    18    2
    32    18    19    1
    33    19    11    1
    34    18    14    1
    35     7     1   ar
    36    33    27   ar
    37    22    23    1
@<TRIPOS>MOLECULE
*****
 34 37 0 0 0
SMALL
GASTEIGER

@<TRIPOS>ATOM
      1 C           5.1694   -3.2393   23.0419 C.ar    1  UNL1        0.0951
      2 C           4.3528   -2.0996   23.5749 C.ar    1  UNL1        0.1454
      3 F           3.3092   -1.4561   22.7106 F       1  UNL1       -0.2040
      4 C           4.5797   -1.6033   24.9721 C.ar    1  UNL1        0.0312
      5 C           5.6232   -2.2467   25.8364 C.ar    1  UNL1        0.0204
      6 C           6.4399   -3.3865   25.3033 C.ar    1  UNL1        0.0924
      7 C           6.2130   -3.8828   23.9061 C.ar    1  UNL1        0.1598
      8 F           7.0297   -5.0225   23.3732 F       1  UNL1       -0.2026
      9 C           4.9425   -3.7356   21.6447 C.2     1  UNL1        0.2036
     10 O           3.9772   -4.8560   21.3942 O.2     1  UNL1       -0.2863
     11 C           3.5204   -0.4313   18.3621 C.2     1  UNL1        0.0974
     12 C           4.5988   -0.0866   17.3781 C.2     1  UNL1        0.2421
     13 N           5.9429   -0.7450   17.4774 N.2     1  UNL1       -0.0304
     14 C           6.2087   -1.7479   18.5606 C.2     1  UNL1        0.3721
     15 N           7.4259   -2.5537   18.9058 N.2     1  UNL1       -0.0307
     16 C           7.0998   -3.3963   20.1032 C.2     1  UNL1        0.2390
     17 C           5.6810   -3.1114   20.4979 C.2     1  UNL1        0.0896
     18 C           5.1303   -2.0926   19.5445 C.2     1  UNL1        0.0782
     19 C           3.7861   -1.4343   19.4453 C.3     1  UNL1        0.0751
     20 N           0.8321    0.8854   18.1636 N.1     1  UNL1       -0.1910
     21 C           2.1762    0.2270   18.2628 C.1     1  UNL1        0.1003
     22 N           7.4835   -4.0299   26.1676 N.pl3   1  UNL1       -0.2127
     23 H           8.3054   -4.3892   25.7620 H       1  UNL1        0.1738
     24 S           7.2747   -4.1259   27.6499 S.O2    1  UNL1        0.0780
     25 O           6.1251   -5.0633   27.4274 O.2     1  UNL1       -0.1498
     26 O           8.4243   -3.1884   27.8725 O.2     1  UNL1       -0.1498
     27 C           7.0660   -4.2218   29.1323 C.ar    1  UNL1        0.1797
     28 C           6.4989   -3.0560   29.8868 C.ar    1  UNL1        0.1611
     29 F           6.1405   -1.7942   29.1590 F       1  UNL1       -0.2027
     30 C           6.2902   -3.1519   31.3691 C.ar    1  UNL1        0.0312
     31 C           6.6485   -4.4136   32.0969 C.ar    1  UNL1        0.0047
     32 C           7.2156   -5.5794   31.3424 C.ar    1  UNL1        0.0312
     33 C           7.4243   -5.4835   29.8601 C.ar    1  UNL1        0.1611
     34 F           7.9913   -6.6493   29.1056 F       1  UNL1       -0.2027
@<TRIPOS>BOND
     1    20    21    3
     2    21    11    1
     3    11    12    2
     4    12    13    1
     5    13    14    2
     6    14    15    1
     7    15    16    2
     8    16    17    1
     9    17     9    1
    10     9    10    2
    11     9     1    1
    12     1     2   ar
    13     2     3    1
    14     2     4   ar
    15     4     5   ar
    16     5     6   ar
    17     6    22    1
    18    22    24    1
    19    24    25    2
    20    24    26    2
    21    24    27    1
    22    27    28   ar
    23    28    29    1
    24    28    30   ar
    25    30    31   ar
    26    31    32   ar
    27    32    33   ar
    28    33    34    1
    29     6     7   ar
    30     7     8    1
    31    17    18    2
    32    18    19    1
    33    19    11    1
    34    18    14    1
    35     7     1   ar
    36    33    27   ar
    37    22    23    1
