@<TRIPOS>MOLECULE
*****
 27 30 0 0 0
SMALL
GASTEIGER

@<TRIPOS>ATOM
      1 C          -8.5157  -16.9859   23.4945 C.3     1  UNL1        0.1140
      2 C          -7.7821  -17.9631   22.6246 C.2     1  UNL1       -0.0192
      3 C          -6.2823  -17.9892   22.6255 C.2     1  UNL1       -0.0145
      4 C          -5.5487  -18.9664   21.7555 C.2     1  UNL1       -0.0161
      5 C          -6.3148  -19.9175   20.8846 C.2     1  UNL1       -0.0038
      6 C          -5.5812  -20.8947   20.0147 C.2     1  UNL1        0.0009
      7 C          -4.0814  -20.9208   20.0156 C.2     1  UNL1        0.0153
      8 C          -3.3153  -19.9697   20.8864 C.2     1  UNL1        0.0665
      9 N          -1.8831  -19.6505   21.1978 N.2     1  UNL1       -0.2482
     10 C          -1.8643  -18.5372   22.2029 C.2     1  UNL1        0.0907
     11 C          -3.2828  -18.0413   22.6273 C.2     1  UNL1       -0.0142
     12 C          -4.0489  -18.9925   21.7564 C.3     1  UNL1        0.0819
     13 C          -4.0164  -17.0641   23.4972 C.3     1  UNL1        0.0447
     14 C          -5.5162  -17.0381   23.4963 C.3     1  UNL1        0.0837
     15 N          -6.2498  -16.0608   24.3663 N.3     1  UNL1       -0.2681
     16 C          -5.4837  -15.1097   25.2371 C.3     1  UNL1        0.0899
     17 C          -7.7496  -16.0347   24.3654 C.3     1  UNL1        0.0859
     18 N         -10.7879  -18.2439   23.4263 N.am    1  UNL1       -0.3032
     19 C         -10.0155  -16.9598   23.4936 C.2     1  UNL1        0.2275
     20 O         -10.7429  -15.6497   23.5601 O.2     1  UNL1       -0.2747
     21 H         -10.3105  -19.1038   23.3827 H       1  UNL1        0.1495
     22 CA        -12.2877  -18.2178   23.4254 C.3     1  UNL1        0.1008
     23 C         -13.0446  -18.5682   24.6721 C.3     1  UNL1        0.1565
     24 O         -14.4880  -18.1825   24.8066 O.3     1  UNL1       -0.3802
     25 H         -14.5628  -17.2159   24.8375 H       1  UNL1        0.2105
     26 C         -12.2805  -17.6073   20.9001 C.3     1  UNL1        0.0018
     27 C         -13.0305  -17.8414   22.1778 C.3     1  UNL1        0.0221
@<TRIPOS>BOND
     1    26    27    1
     2    22    27    1
     3    22    23    1
     4    23    24    1
     5    22    18    1
     6    18    19   am
     7    19    20    2
     8     1    19    1
     9     1     2    1
    10     2     3    2
    11     3     4    1
    12     4     5    2
    13     5     6    1
    14     6     7    2
    15     7     8    1
    16     8     9    2
    17     9    10    1
    18    10    11    2
    19    11    12    1
    20    11    13    1
    21    14    13    1
    22    14    15    1
    23    15    16    1
    24    15    17    1
    25    17     1    1
    26    14     3    1
    27    12     4    1
    28    12     8    1
    29    24    25    1
    30    18    21    1
@<TRIPOS>MOLECULE
*****
 27 30 0 0 0
SMALL
GASTEIGER

@<TRIPOS>ATOM
      1 C          -5.3894  -17.4085   22.8956 C.3     1  UNL1        0.1140
      2 C          -6.5284  -17.9707   22.0979 C.2     1  UNL1       -0.0192
      3 C          -7.9419  -17.6256   22.4626 C.2     1  UNL1       -0.0145
      4 C          -9.0810  -18.1879   21.6647 C.2     1  UNL1       -0.0161
      5 C          -8.8065  -19.0952   20.5023 C.2     1  UNL1       -0.0038
      6 C          -9.9455  -19.6574   19.7045 C.2     1  UNL1        0.0009
      7 C         -11.3590  -19.3123   20.0692 C.2     1  UNL1        0.0153
      8 C         -11.6335  -18.4050   21.2316 C.2     1  UNL1        0.0665
      9 N         -12.8235  -17.8146   21.9282 N.2     1  UNL1       -0.2482
     10 C         -12.3243  -16.9661   23.0599 C.2     1  UNL1        0.0907
     11 C         -10.7689  -16.9353   23.1919 C.2     1  UNL1       -0.0142
     12 C         -10.4944  -17.8427   22.0294 C.3     1  UNL1        0.0819
     13 C          -9.6298  -16.3731   23.9897 C.3     1  UNL1        0.0447
     14 C          -8.2164  -16.7182   23.6250 C.3     1  UNL1        0.0837
     15 N          -7.0773  -16.1559   24.4228 N.3     1  UNL1       -0.2681
     16 C          -7.3518  -15.2486   25.5853 C.3     1  UNL1        0.0899
     17 C          -5.6638  -16.5010   24.0582 C.3     1  UNL1        0.0859
     18 N          -3.5241  -17.6547   21.1040 N.am    1  UNL1       -0.3032
     19 C          -3.9760  -17.7536   22.5310 C.2     1  UNL1        0.2275
     20 O          -3.0144  -18.1976   23.5931 O.2     1  UNL1       -0.2747
     21 H          -4.1552  -17.3633   20.4069 H       1  UNL1        0.1495
     22 CA         -2.1106  -17.9998   20.7393 C.3     1  UNL1        0.1008
     23 C          -1.7083  -19.4352   20.5719 C.3     1  UNL1        0.1565
     24 O          -1.9121  -20.4072   21.6960 O.3     1  UNL1       -0.3802
     25 H          -1.3404  -20.1643   22.4411 H       1  UNL1        0.2105
     26 C           0.2983  -17.2509   20.1179 C.3     1  UNL1        0.0018
     27 C          -1.0994  -16.9096   20.5421 C.3     1  UNL1        0.0221
@<TRIPOS>BOND
     1    26    27    1
     2    22    27    1
     3    22    23    1
     4    23    24    1
     5    22    18    1
     6    18    19   am
     7    19    20    2
     8     1    19    1
     9     1     2    1
    10     2     3    2
    11     3     4    1
    12     4     5    2
    13     5     6    1
    14     6     7    2
    15     7     8    1
    16     8     9    2
    17     9    10    1
    18    10    11    2
    19    11    12    1
    20    11    13    1
    21    14    13    1
    22    14    15    1
    23    15    16    1
    24    15    17    1
    25    17     1    1
    26    14     3    1
    27    12     4    1
    28    12     8    1
    29    24    25    1
    30    18    21    1
@<TRIPOS>MOLECULE
*****
 27 30 0 0 0
SMALL
GASTEIGER

@<TRIPOS>ATOM
      1 C           5.4981   -3.5504   22.7236 C.3     1  UNL1        0.1140
      2 C           4.5308   -2.4719   23.1122 C.2     1  UNL1       -0.0192
      3 C           3.6857   -1.8095   22.0647 C.2     1  UNL1       -0.0145
      4 C           2.7183   -0.7309   22.4533 C.2     1  UNL1       -0.0161
      5 C           2.5960   -0.3149   23.8893 C.2     1  UNL1       -0.0038
      6 C           1.6286    0.7636   24.2778 C.2     1  UNL1        0.0009
      7 C           0.7835    1.4260   23.2304 C.2     1  UNL1        0.0153
      8 C           0.9059    1.0100   21.7944 C.2     1  UNL1        0.0665
      9 N           0.2966    1.3734   20.4728 N.2     1  UNL1       -0.2482
     10 C           0.9258    0.5105   19.4194 C.2     1  UNL1        0.0907
     11 C           1.9956   -0.4846   19.9699 C.2     1  UNL1       -0.0142
     12 C           1.8733   -0.0685   21.4059 C.3     1  UNL1        0.0819
     13 C           2.9630   -1.5631   19.5814 C.3     1  UNL1        0.0447
     14 C           3.8080   -2.2255   20.6288 C.3     1  UNL1        0.0837
     15 N           4.7755   -3.3041   20.2402 N.3     1  UNL1       -0.2681
     16 C           4.8978   -3.7201   18.8043 C.3     1  UNL1        0.0899
     17 C           5.6205   -3.9665   21.2876 C.3     1  UNL1        0.0859
     18 N           6.1804   -3.8372   25.2141 N.am    1  UNL1       -0.3032
     19 C           6.3432   -4.2129   23.7710 C.2     1  UNL1        0.2275
     20 O           7.3510   -5.2510   23.3754 O.2     1  UNL1       -0.2747
     21 H           5.5189   -3.1558   25.4738 H       1  UNL1        0.1495
     22 CA          7.0254   -4.4996   26.2615 C.3     1  UNL1        0.1008
     23 C           6.6011   -5.8141   26.8465 C.3     1  UNL1        0.1565
     24 O           5.4585   -5.8693   27.8169 O.3     1  UNL1       -0.3802
     25 H           5.7023   -5.4007   28.6304 H       1  UNL1        0.2105
     26 C           9.4870   -3.7988   25.8151 C.3     1  UNL1        0.0018
     27 C           8.2947   -3.8477   26.7239 C.3     1  UNL1        0.0221
@<TRIPOS>BOND
     1    26    27    1
     2    22    27    1
     3    22    23    1
     4    23    24    1
     5    22    18    1
     6    18    19   am
     7    19    20    2
     8     1    19    1
     9     1     2    1
    10     2     3    2
    11     3     4    1
    12     4     5    2
    13     5     6    1
    14     6     7    2
    15     7     8    1
    16     8     9    2
    17     9    10    1
    18    10    11    2
    19    11    12    1
    20    11    13    1
    21    14    13    1
    22    14    15    1
    23    15    16    1
    24    15    17    1
    25    17     1    1
    26    14     3    1
    27    12     4    1
    28    12     8    1
    29    24    25    1
    30    18    21    1
@<TRIPOS>MOLECULE
*****
 27 30 0 0 0
SMALL
GASTEIGER

@<TRIPOS>ATOM
      1 C           1.4179    0.7749   23.8165 C.3     1  UNL1        0.1140
      2 C           2.5045   -0.2591   23.8224 C.2     1  UNL1       -0.0192
      3 C           2.9191   -0.9188   22.5407 C.2     1  UNL1       -0.0145
      4 C           4.0057   -1.9528   22.5466 C.2     1  UNL1       -0.0161
      5 C           4.6778   -2.3271   23.8343 C.2     1  UNL1       -0.0038
      6 C           5.7644   -3.3611   23.8402 C.2     1  UNL1        0.0009
      7 C           6.1790   -4.0208   22.5584 C.2     1  UNL1        0.0153
      8 C           5.5069   -3.6465   21.2708 C.2     1  UNL1        0.0665
      9 N           5.5874   -4.0227   19.8209 N.2     1  UNL1       -0.2482
     10 C           4.5720   -3.2096   19.0740 C.2     1  UNL1        0.0907
     11 C           3.7482   -2.2382   19.9771 C.2     1  UNL1       -0.0142
     12 C           4.4203   -2.6125   21.2648 C.3     1  UNL1        0.0819
     13 C           2.6616   -1.2042   19.9712 C.3     1  UNL1        0.0447
     14 C           2.2470   -0.5445   21.2530 C.3     1  UNL1        0.0837
     15 N           1.1603    0.4896   21.2470 N.3     1  UNL1       -0.2681
     16 C           0.4883    0.8639   19.9593 C.3     1  UNL1        0.0899
     17 C           0.7458    1.1493   22.5288 C.3     1  UNL1        0.0859
     18 N          -0.2204    0.9599   25.8245 N.am    1  UNL1       -0.3032
     19 C           1.0033    1.4346   25.0983 C.2     1  UNL1        0.2275
     20 O           1.8124    2.5689   25.6539 O.2     1  UNL1       -0.2747
     21 H          -0.7514    0.2154   25.4599 H       1  UNL1        0.1495
     22 CA         -0.6349    1.6196   27.1063 C.3     1  UNL1        0.1008
     23 C          -1.2453    2.9896   27.0814 C.3     1  UNL1        0.1565
     24 O          -0.3728    4.1963   26.9007 O.3     1  UNL1       -0.3802
     25 H           0.2099    4.2921   27.6702 H       1  UNL1        0.2105
     26 C          -1.2972   -0.2707   28.7610 C.3     1  UNL1        0.0018
     27 C          -0.4391    0.9094   28.4128 C.3     1  UNL1        0.0221
@<TRIPOS>BOND
     1    26    27    1
     2    22    27    1
     3    22    23    1
     4    23    24    1
     5    22    18    1
     6    18    19   am
     7    19    20    2
     8     1    19    1
     9     1     2    1
    10     2     3    2
    11     3     4    1
    12     4     5    2
    13     5     6    1
    14     6     7    2
    15     7     8    1
    16     8     9    2
    17     9    10    1
    18    10    11    2
    19    11    12    1
    20    11    13    1
    21    14    13    1
    22    14    15    1
    23    15    16    1
    24    15    17    1
    25    17     1    1
    26    14     3    1
    27    12     4    1
    28    12     8    1
    29    24    25    1
    30    18    21    1
@<TRIPOS>MOLECULE
*****
 27 30 0 0 0
SMALL
GASTEIGER

@<TRIPOS>ATOM
      1 C           6.6421   -3.9320   25.3137 C.3     1  UNL1        0.1140
      2 C           6.0896   -3.8910   23.9197 C.2     1  UNL1       -0.0192
      3 C           5.0892   -2.8398   23.5401 C.2     1  UNL1       -0.0145
      4 C           4.5367   -2.7988   22.1461 C.2     1  UNL1       -0.0161
      5 C           4.9846   -3.8090   21.1318 C.2     1  UNL1       -0.0038
      6 C           4.4322   -3.7680   19.7379 C.2     1  UNL1        0.0009
      7 C           3.4317   -2.7169   19.3583 C.2     1  UNL1        0.0153
      8 C           2.9838   -1.7067   20.3726 C.2     1  UNL1        0.0665
      9 N           2.0509   -0.5340   20.4412 N.2     1  UNL1       -0.2482
     10 C           2.1113    0.0256   21.8316 C.2     1  UNL1        0.0907
     11 C           3.0883   -0.7374   22.7808 C.2     1  UNL1       -0.0142
     12 C           3.5362   -1.7477   21.7665 C.3     1  UNL1        0.0819
     13 C           3.6408   -0.7784   24.1748 C.3     1  UNL1        0.0447
     14 C           4.6412   -1.8296   24.5544 C.3     1  UNL1        0.0837
     15 N           5.1937   -1.8706   25.9484 N.3     1  UNL1       -0.2681
     16 C           4.7458   -0.8604   26.9627 C.3     1  UNL1        0.0899
     17 C           6.1942   -2.9217   26.3280 C.3     1  UNL1        0.0859
     18 N           7.3393   -6.4313   25.4460 N.am    1  UNL1       -0.3032
     19 C           7.6426   -4.9832   25.6933 C.2     1  UNL1        0.2275
     20 O           8.9462   -4.5863   26.3202 O.2     1  UNL1       -0.2747
     21 H           6.4837   -6.6918   25.0345 H       1  UNL1        0.1495
     22 CA          8.3398   -7.4825   25.8256 C.3     1  UNL1        0.1008
     23 C           8.2672   -8.1346   27.1745 C.3     1  UNL1        0.1565
     24 O           7.4061   -9.3462   27.3764 O.3     1  UNL1       -0.3802
     25 H           6.4740   -9.1029   27.2634 H       1  UNL1        0.2105
     26 C           9.3250   -7.4524   23.4218 C.3     1  UNL1        0.0018
     27 C           9.4128   -7.8815   24.8564 C.3     1  UNL1        0.0221
@<TRIPOS>BOND
     1    26    27    1
     2    22    27    1
     3    22    23    1
     4    23    24    1
     5    22    18    1
     6    18    19   am
     7    19    20    2
     8     1    19    1
     9     1     2    1
    10     2     3    2
    11     3     4    1
    12     4     5    2
    13     5     6    1
    14     6     7    2
    15     7     8    1
    16     8     9    2
    17     9    10    1
    18    10    11    2
    19    11    12    1
    20    11    13    1
    21    14    13    1
    22    14    15    1
    23    15    16    1
    24    15    17    1
    25    17     1    1
    26    14     3    1
    27    12     4    1
    28    12     8    1
    29    24    25    1
    30    18    21    1
@<TRIPOS>MOLECULE
*****
 27 30 0 0 0
SMALL
GASTEIGER

@<TRIPOS>ATOM
      1 C           4.0719   -1.0972   26.1907 C.3     1  UNL1        0.1140
      2 C           3.6403   -1.0644   24.7545 C.2     1  UNL1       -0.0192
      3 C           4.3979   -1.8501   23.7255 C.2     1  UNL1       -0.0145
      4 C           3.9663   -1.8173   22.2893 C.2     1  UNL1       -0.0161
      5 C           2.7771   -0.9988   21.8821 C.2     1  UNL1       -0.0038
      6 C           2.3455   -0.9660   20.4459 C.2     1  UNL1        0.0009
      7 C           3.1031   -1.7516   19.4170 C.2     1  UNL1        0.0153
      8 C           4.2923   -2.5701   19.8242 C.2     1  UNL1        0.0665
      9 N           5.3020   -3.4692   19.1745 N.2     1  UNL1       -0.2482
     10 C           6.2378   -3.9607   20.2388 C.2     1  UNL1        0.0907
     11 C           5.9131   -3.4214   21.6676 C.2     1  UNL1       -0.0142
     12 C           4.7239   -2.6029   21.2603 C.3     1  UNL1        0.0819
     13 C           6.3447   -3.4543   23.1038 C.3     1  UNL1        0.0447
     14 C           5.5871   -2.6686   24.1328 C.3     1  UNL1        0.0837
     15 N           6.0187   -2.7014   25.5690 N.3     1  UNL1       -0.2681
     16 C           7.2079   -3.5199   25.9762 C.3     1  UNL1        0.0899
     17 C           5.2611   -1.9158   26.5979 C.3     1  UNL1        0.0859
     18 N           2.1416   -0.9298   27.9216 N.am    1  UNL1       -0.3032
     19 C           3.3142   -0.3116   27.2196 C.2     1  UNL1        0.2275
     20 O           3.7292    1.0923   27.5465 O.2     1  UNL1       -0.2747
     21 H           1.8693   -1.8513   27.7071 H       1  UNL1        0.1495
     22 CA          1.3840   -0.1442   28.9506 C.3     1  UNL1        0.1008
     23 C           1.9613    0.0489   30.3216 C.3     1  UNL1        0.1565
     24 O           2.3943   -1.1399   31.1273 O.3     1  UNL1       -0.3802
     25 H           1.6191   -1.6780   31.3519 H       1  UNL1        0.2105
     26 C          -1.1970   -0.3725   28.7607 C.3     1  UNL1        0.0018
     27 C           0.0492    0.4484   28.6086 C.3     1  UNL1        0.0221
@<TRIPOS>BOND
     1    26    27    1
     2    22    27    1
     3    22    23    1
     4    23    24    1
     5    22    18    1
     6    18    19   am
     7    19    20    2
     8     1    19    1
     9     1     2    1
    10     2     3    2
    11     3     4    1
    12     4     5    2
    13     5     6    1
    14     6     7    2
    15     7     8    1
    16     8     9    2
    17     9    10    1
    18    10    11    2
    19    11    12    1
    20    11    13    1
    21    14    13    1
    22    14    15    1
    23    15    16    1
    24    15    17    1
    25    17     1    1
    26    14     3    1
    27    12     4    1
    28    12     8    1
    29    24    25    1
    30    18    21    1
@<TRIPOS>MOLECULE
*****
 27 30 0 0 0
SMALL
GASTEIGER

@<TRIPOS>ATOM
      1 C           0.9101    1.6502   22.5725 C.3     1  UNL1        0.1140
      2 C           1.5666    0.6130   21.7104 C.2     1  UNL1       -0.0192
      3 C           2.5277   -0.3666   22.3159 C.2     1  UNL1       -0.0145
      4 C           3.1842   -1.4038   21.4537 C.2     1  UNL1       -0.0161
      5 C           2.8796   -1.4614   19.9861 C.2     1  UNL1       -0.0038
      6 C           3.5360   -2.4986   19.1240 C.2     1  UNL1        0.0009
      7 C           4.4972   -3.4782   19.7295 C.2     1  UNL1        0.0153
      8 C           4.8018   -3.4206   21.1971 C.2     1  UNL1        0.0665
      9 N           5.6531   -4.1570   22.1886 N.2     1  UNL1       -0.2482
     10 C           5.4500   -3.5249   23.5337 C.2     1  UNL1        0.0907
     11 C           4.4500   -2.3258   23.5269 C.2     1  UNL1       -0.0142
     12 C           4.1453   -2.3834   22.0592 C.3     1  UNL1        0.0819
     13 C           3.7935   -1.2886   24.3889 C.3     1  UNL1        0.0447
     14 C           2.8324   -0.3090   23.7835 C.3     1  UNL1        0.0837
     15 N           2.1759    0.7282   24.6456 N.3     1  UNL1       -0.2681
     16 C           2.4806    0.7858   26.1132 C.3     1  UNL1        0.0899
     17 C           1.2148    1.7078   24.0401 C.3     1  UNL1        0.0859
     18 N          -0.9849    2.1894   20.8789 N.am    1  UNL1       -0.3032
     19 C          -0.0510    2.6298   21.9670 C.2     1  UNL1        0.2275
     20 O          -0.0782    4.0498   22.4495 O.2     1  UNL1       -0.2747
     21 H          -0.9671    1.2574   20.5622 H       1  UNL1        0.1495
     22 CA         -1.9461    3.1690   20.2734 C.3     1  UNL1        0.1008
     23 C          -3.2525    3.4554   20.9526 C.3     1  UNL1        0.1565
     24 O          -4.3583    2.4429   20.9089 O.3     1  UNL1       -0.3802
     25 H          -4.6689    2.3425   19.9955 H       1  UNL1        0.2105
     26 C          -0.4514    3.3733   18.1582 C.3     1  UNL1        0.0018
     27 C          -1.6008    3.8621   18.9888 C.3     1  UNL1        0.0221
@<TRIPOS>BOND
     1    26    27    1
     2    22    27    1
     3    22    23    1
     4    23    24    1
     5    22    18    1
     6    18    19   am
     7    19    20    2
     8     1    19    1
     9     1     2    1
    10     2     3    2
    11     3     4    1
    12     4     5    2
    13     5     6    1
    14     6     7    2
    15     7     8    1
    16     8     9    2
    17     9    10    1
    18    10    11    2
    19    11    12    1
    20    11    13    1
    21    14    13    1
    22    14    15    1
    23    15    16    1
    24    15    17    1
    25    17     1    1
    26    14     3    1
    27    12     4    1
    28    12     8    1
    29    24    25    1
    30    18    21    1
@<TRIPOS>MOLECULE
*****
 27 30 0 0 0
SMALL
GASTEIGER

@<TRIPOS>ATOM
      1 C           1.6380    1.0043   20.9974 C.3     1  UNL1        0.1140
      2 C           1.3201    1.0643   22.4621 C.2     1  UNL1       -0.0192
      3 C           0.2086    1.9438   22.9529 C.2     1  UNL1       -0.0145
      4 C          -0.1092    2.0037   24.4177 C.2     1  UNL1       -0.0161
      5 C           0.6844    1.1841   25.3915 C.2     1  UNL1       -0.0038
      6 C           0.3665    1.2441   26.8562 C.2     1  UNL1        0.0009
      7 C          -0.7450    2.1236   27.3470 C.2     1  UNL1        0.0153
      8 C          -1.5386    2.9432   26.3732 C.2     1  UNL1        0.0665
      9 N          -2.6806    3.9153   26.4051 N.2     1  UNL1       -0.2482
     10 C          -2.9553    4.3539   24.9972 C.2     1  UNL1        0.0907
     11 C          -2.0144    3.7029   23.9347 C.2     1  UNL1       -0.0142
     12 C          -1.2207    2.8833   24.9086 C.3     1  UNL1        0.0819
     13 C          -1.6965    3.6430   22.4700 C.3     1  UNL1        0.0447
     14 C          -0.5850    2.7634   21.9791 C.3     1  UNL1        0.0837
     15 N          -0.2672    2.7035   20.5144 N.3     1  UNL1       -0.2681
     16 C          -1.0608    3.5231   19.5406 C.3     1  UNL1        0.0899
     17 C           0.8443    1.8239   20.0235 C.3     1  UNL1        0.0859
     18 N           2.5025   -0.8406   19.3852 N.am    1  UNL1       -0.3032
     19 C           2.7495    0.1247   20.5065 C.2     1  UNL1        0.2275
     20 O           4.1078    0.2104   21.1369 O.2     1  UNL1       -0.2747
     21 H           1.6110   -0.8968   18.9714 H       1  UNL1        0.1495
     22 CA          3.6140   -1.7201   18.8943 C.3     1  UNL1        0.1008
     23 C           4.3991   -1.3281   17.6777 C.3     1  UNL1        0.1565
     24 O           3.7631   -1.3954   16.3209 O.3     1  UNL1       -0.3802
     25 H           3.5712   -2.3200   16.0993 H       1  UNL1        0.2105
     26 C           4.2672   -4.2343   18.8459 C.3     1  UNL1        0.0018
     27 C           3.9404   -2.9916   19.6200 C.3     1  UNL1        0.0221
@<TRIPOS>BOND
     1    26    27    1
     2    22    27    1
     3    22    23    1
     4    23    24    1
     5    22    18    1
     6    18    19   am
     7    19    20    2
     8     1    19    1
     9     1     2    1
    10     2     3    2
    11     3     4    1
    12     4     5    2
    13     5     6    1
    14     6     7    2
    15     7     8    1
    16     8     9    2
    17     9    10    1
    18    10    11    2
    19    11    12    1
    20    11    13    1
    21    14    13    1
    22    14    15    1
    23    15    16    1
    24    15    17    1
    25    17     1    1
    26    14     3    1
    27    12     4    1
    28    12     8    1
    29    24    25    1
    30    18    21    1
@<TRIPOS>MOLECULE
*****
 27 30 0 0 0
SMALL
GASTEIGER

@<TRIPOS>ATOM
      1 C           2.8274   -0.1027   31.1251 C.3     1  UNL1        0.1140
      2 C           2.5696    0.9529   32.1591 C.2     1  UNL1       -0.0192
      3 C           3.2494    0.8771   33.4940 C.2     1  UNL1       -0.0145
      4 C           2.9915    1.9329   34.5280 C.2     1  UNL1       -0.0161
      5 C           2.0539    3.0643   34.2270 C.2     1  UNL1       -0.0038
      6 C           1.7961    4.1199   35.2609 C.2     1  UNL1        0.0009
      7 C           2.4759    4.0441   36.5959 C.2     1  UNL1        0.0153
      8 C           3.4136    2.9127   36.8969 C.2     1  UNL1        0.0665
      9 N           4.2734    2.4505   38.0358 N.2     1  UNL1       -0.2482
     10 C           4.9636    1.1877   37.6126 C.2     1  UNL1        0.0907
     11 C           4.6091    0.7256   36.1639 C.2     1  UNL1       -0.0142
     12 C           3.6714    1.8571   35.8629 C.3     1  UNL1        0.0819
     13 C           4.8669   -0.3301   35.1300 C.3     1  UNL1        0.0447
     14 C           4.1871   -0.2543   33.7950 C.3     1  UNL1        0.0837
     15 N           4.4449   -1.3100   32.7610 N.3     1  UNL1       -0.2681
     16 C           5.3826   -2.4414   33.0620 C.3     1  UNL1        0.0899
     17 C           3.7651   -1.2342   31.4261 C.3     1  UNL1        0.0859
     18 N           1.1389    1.0506   29.5222 N.am    1  UNL1       -0.3032
     19 C           2.1476   -0.0269   29.7902 C.2     1  UNL1        0.2275
     20 O           2.4763   -1.0286   28.7232 O.2     1  UNL1       -0.2747
     21 H           0.9232    1.7080   30.2226 H       1  UNL1        0.1495
     22 CA          0.4591    1.1264   28.1873 C.3     1  UNL1        0.1008
     23 C           1.2138    1.6190   26.9882 C.3     1  UNL1        0.1565
     24 O           1.4140    0.7180   25.8058 O.3     1  UNL1       -0.3802
     25 H           1.9808   -0.0272   26.0594 H       1  UNL1        0.2105
     26 C          -1.4792   -0.4957   28.7887 C.3     1  UNL1        0.0018
     27 C          -0.9753    0.7095   28.0514 C.3     1  UNL1        0.0221
@<TRIPOS>BOND
     1    26    27    1
     2    22    27    1
     3    22    23    1
     4    23    24    1
     5    22    18    1
     6    18    19   am
     7    19    20    2
     8     1    19    1
     9     1     2    1
    10     2     3    2
    11     3     4    1
    12     4     5    2
    13     5     6    1
    14     6     7    2
    15     7     8    1
    16     8     9    2
    17     9    10    1
    18    10    11    2
    19    11    12    1
    20    11    13    1
    21    14    13    1
    22    14    15    1
    23    15    16    1
    24    15    17    1
    25    17     1    1
    26    14     3    1
    27    12     4    1
    28    12     8    1
    29    24    25    1
    30    18    21    1
