@<TRIPOS>MOLECULE
*****
 54 59 0 0 0
SMALL
GASTEIGER

@<TRIPOS>ATOM
      1 C           4.9152   -1.9252   27.6618 C.3     1  UNL1        0.1269
      2 O           3.5321   -2.0164   27.0886 O.3     1  UNL1       -0.3830
      3 H           2.9904   -1.2896   27.4340 H       1  UNL1        0.2104
      4 C           5.9527   -2.9399   27.2823 C.3     1  UNL1        0.0401
      5 C           6.6266   -2.8593   25.9447 C.3     1  UNL1        0.0833
      6 O           6.4792   -0.8581   24.2945 O.2     1  UNL1       -0.2751
      7 C           5.9460   -2.1648   24.8025 C.2     1  UNL1        0.2226
      8 N           4.7322   -2.7770   24.1686 N.am    1  UNL1       -0.2999
      9 H           4.3823   -3.6346   24.5021 H       1  UNL1        0.1498
     10 C           4.0516   -2.0825   23.0265 C.3     1  UNL1        0.1278
     11 C           4.3306   -2.5091   21.6157 C.ar    1  UNL1        0.0320
     12 C           5.2902   -3.6302   21.3471 C.ar    1  UNL1        0.0004
     13 C           5.5692   -4.0569   19.9364 C.ar    1  UNL1       -0.0001
     14 C           4.8885   -3.3624   18.7943 C.ar    1  UNL1        0.0031
     15 C           3.9290   -2.2412   19.0629 C.ar    1  UNL1        0.0366
     16 C           3.6500   -1.8146   20.4737 C.ar    1  UNL1        0.1362
     17 O           2.6904   -0.6934   20.7423 O.3     1  UNL1       -0.4730
     18 C           2.4114   -0.2668   22.1530 C.3     1  UNL1        0.2364
     19 C           3.0921   -0.9613   23.2951 C.3     1  UNL1        0.1762
     20 O           2.8131   -0.5347   24.7059 O.3     1  UNL1       -0.3788
     21 H           2.1756    0.1964   24.7025 H       1  UNL1        0.2106
     22 C           7.9812   -3.4733   25.7491 C.3     1  UNL1        0.0356
     23 C           8.1480   -4.6434   24.8256 C.ar    1  UNL1       -0.0186
     24 C           8.5465   -4.4204   23.3968 C.ar    1  UNL1        0.0164
     25 C           8.7134   -5.5906   22.4733 C.ar    1  UNL1        0.0986
     26 N           8.4817   -6.9838   22.9785 N.ar    1  UNL1       -0.2423
     27 C           8.0831   -7.2068   24.4073 C.ar    1  UNL1        0.0986
     28 C           7.9163   -6.0367   25.3308 C.ar    1  UNL1        0.0164
     29 C           5.2610   -0.8193   28.6144 C.3     1  UNL1        0.1021
     30 N           5.0518   -1.0060   30.0880 N.3     1  UNL1       -0.2621
     31 C           6.1088   -1.6736   30.9169 C.3     1  UNL1        0.0901
     32 C           5.8996   -1.8603   32.3905 C.3     1  UNL1        0.0900
     33 N           4.6334   -1.3793   33.0351 N.3     1  UNL1       -0.2635
     34 C           3.5765   -0.7117   32.2062 C.3     1  UNL1        0.0980
     35 C           3.7857   -0.5250   30.7326 C.3     1  UNL1        0.1510
     36 C           2.7288    0.1426   29.9037 C.2     1  UNL1        0.2386
     37 O           2.8214    1.6108   29.6109 O.2     1  UNL1       -0.2736
     38 N           1.5791   -0.6580   29.3676 N.am    1  UNL1       -0.2961
     39 H           1.5182   -1.6217   29.5598 H       1  UNL1        0.1497
     40 C           0.5221    0.0096   28.5387 C.3     1  UNL1        0.1939
     41 C          -0.8832    0.1092   29.0536 C.3     1  UNL1        0.4154
     42 F          -2.2885    0.2089   29.5686 F       1  UNL1       -0.1682
     43 F          -1.2920   -1.0216   28.1570 F       1  UNL1       -0.1682
     44 F          -0.4745    1.2401   29.9503 F       1  UNL1       -0.1682
     45 C           4.4242   -1.5660   34.5087 C.3     1  UNL1        0.1377
     46 C           5.0072   -0.5823   35.4795 C.ar    1  UNL1        0.1390
     47 C           6.4504   -0.1837   35.5713 C.ar    1  UNL1        0.0374
     48 C           6.5845    0.8205   36.6775 C.ar    1  UNL1        0.0373
     49 C           7.7695    1.5614   37.2223 C.ar    1  UNL1        0.0031
     50 C           7.5941    2.5243   38.3590 C.ar    1  UNL1        0.0002
     51 C           6.2339    2.7463   38.9509 C.ar    1  UNL1        0.0031
     52 C           5.0489    2.0054   38.4061 C.ar    1  UNL1        0.0375
     53 C           5.2241    1.0425   37.2694 C.ar    1  UNL1        0.1449
     54 O           4.2494    0.1755   36.5290 O.2     1  UNL1       -0.4564
@<TRIPOS>BOND
     1     6     7    2
     2     7     8   am
     3    10     8    1
     4    10    11    1
     5    11    12   ar
     6    12    13   ar
     7    13    14   ar
     8    14    15   ar
     9    15    16   ar
    10    16    17    1
    11    17    18    1
    12    18    19    1
    13    19    20    1
    14     7     5    1
    15     5    22    1
    16    22    23    1
    17    23    24   ar
    18    24    25   ar
    19    25    26   ar
    20    26    27   ar
    21    27    28   ar
    22     5     4    1
    23     4     1    1
    24     1     2    1
    25     1    29    1
    26    29    30    1
    27    30    31    1
    28    31    32    1
    29    32    33    1
    30    33    45    1
    31    45    46    1
    32    46    47   ar
    33    47    48   ar
    34    48    49   ar
    35    49    50   ar
    36    50    51   ar
    37    51    52   ar
    38    52    53   ar
    39    53    54   ar
    40    33    34    1
    41    34    35    1
    42    35    36    1
    43    36    37    2
    44    36    38   am
    45    38    40    1
    46    40    41    1
    47    41    42    1
    48    41    43    1
    49    41    44    1
    50    19    10    1
    51    28    23   ar
    52    35    30    1
    53    16    11   ar
    54    54    46   ar
    55    53    48   ar
    56     8     9    1
    57    20    21    1
    58     2     3    1
    59    38    39    1
@<TRIPOS>MOLECULE
*****
 54 59 0 0 0
SMALL
GASTEIGER

@<TRIPOS>ATOM
      1 C           3.1782   -0.6314   30.8106 C.3     1  UNL1        0.1269
      2 O           1.7056   -0.8711   30.6562 O.3     1  UNL1       -0.3830
      3 H           1.3999   -0.4796   29.8231 H       1  UNL1        0.2104
      4 C           3.8980   -1.1410   32.0239 C.3     1  UNL1        0.0401
      5 C           3.8968   -0.3364   33.2898 C.3     1  UNL1        0.0833
      6 O           4.5503    2.1654   33.0364 O.2     1  UNL1       -0.2751
      7 C           3.5061    1.1115   33.2578 C.2     1  UNL1        0.2226
      8 N           2.0712    1.5055   33.4472 N.am    1  UNL1       -0.2999
      9 H           1.3859    0.8138   33.5925 H       1  UNL1        0.1498
     10 C           1.6805    2.9534   33.4152 C.3     1  UNL1        0.1278
     11 C           1.2769    3.5929   32.1197 C.ar    1  UNL1        0.0320
     12 C           1.2641    2.7845   30.8563 C.ar    1  UNL1        0.0004
     13 C           0.8606    3.4240   29.5608 C.ar    1  UNL1       -0.0001
     14 C           0.4699    4.8719   29.5288 C.ar    1  UNL1        0.0031
     15 C           0.4827    5.6802   30.7923 C.ar    1  UNL1        0.0366
     16 C           0.8862    5.0407   32.0878 C.ar    1  UNL1        0.1362
     17 O           0.8991    5.8491   33.3513 O.3     1  UNL1       -0.4730
     18 C           1.3026    5.2096   34.6467 C.3     1  UNL1        0.2364
     19 C           1.6933    3.7617   34.6787 C.3     1  UNL1        0.1762
     20 O           2.0969    3.1222   35.9741 O.3     1  UNL1       -0.3788
     21 H           2.0508    3.7786   36.6868 H       1  UNL1        0.2106
     22 C           4.2862   -0.9796   34.5877 C.3     1  UNL1        0.0356
     23 C           5.0113   -0.1831   35.6317 C.ar    1  UNL1       -0.0186
     24 C           6.4903    0.0371   35.5140 C.ar    1  UNL1        0.0164
     25 C           7.2154    0.8337   36.5580 C.ar    1  UNL1        0.0986
     26 N           6.4614    1.4099   37.7196 N.ar    1  UNL1       -0.2423
     27 C           4.9824    1.1897   37.8373 C.ar    1  UNL1        0.0986
     28 C           4.2573    0.3932   36.7934 C.ar    1  UNL1        0.0164
     29 C           3.9312    0.1181   29.7515 C.3     1  UNL1        0.1021
     30 N           4.5172   -0.6193   28.5841 N.3     1  UNL1       -0.2621
     31 C           5.7535   -1.4494   28.7653 C.3     1  UNL1        0.0901
     32 C           6.3395   -2.1867   27.5979 C.3     1  UNL1        0.0900
     33 N           5.6893   -2.0940   26.2493 N.3     1  UNL1       -0.2635
     34 C           4.4531   -1.2640   26.0681 C.3     1  UNL1        0.0980
     35 C           3.8671   -0.5266   27.2356 C.3     1  UNL1        0.1510
     36 C           2.6309    0.3034   27.0544 C.2     1  UNL1        0.2386
     37 O           2.6886    1.5697   26.2524 O.2     1  UNL1       -0.2736
     38 N           1.3369   -0.1328   27.6753 N.am    1  UNL1       -0.2961
     39 H           1.2990   -0.9639   28.2017 H       1  UNL1        0.1497
     40 C           0.1007    0.6972   27.4942 C.3     1  UNL1        0.1939
     41 C          -1.0906    0.4709   28.3771 C.3     1  UNL1        0.4154
     42 F          -2.2819    0.2446   29.2600 F       1  UNL1       -0.1682
     43 F          -1.6601    1.7902   27.9469 F       1  UNL1       -0.1682
     44 F          -0.5212   -0.8484   28.8073 F       1  UNL1       -0.1682
     45 C           6.2753   -2.8314   25.0818 C.3     1  UNL1        0.1377
     46 C           5.5742   -2.8149   23.7558 C.ar    1  UNL1        0.1390
     47 C           5.3636   -3.9957   22.8551 C.ar    1  UNL1        0.0374
     48 C           4.6199   -3.5253   21.6404 C.ar    1  UNL1        0.0373
     49 C           4.1372   -4.2468   20.4171 C.ar    1  UNL1        0.0031
     50 C           3.4055   -3.4967   19.3437 C.ar    1  UNL1        0.0002
     51 C           3.1564   -2.0252   19.4938 C.ar    1  UNL1        0.0031
     52 C           3.6390   -1.3037   20.7171 C.ar    1  UNL1        0.0375
     53 C           4.3707   -2.0537   21.7904 C.ar    1  UNL1        0.1449
     54 O           4.9605   -1.6147   23.0978 O.2     1  UNL1       -0.4564
@<TRIPOS>BOND
     1     6     7    2
     2     7     8   am
     3    10     8    1
     4    10    11    1
     5    11    12   ar
     6    12    13   ar
     7    13    14   ar
     8    14    15   ar
     9    15    16   ar
    10    16    17    1
    11    17    18    1
    12    18    19    1
    13    19    20    1
    14     7     5    1
    15     5    22    1
    16    22    23    1
    17    23    24   ar
    18    24    25   ar
    19    25    26   ar
    20    26    27   ar
    21    27    28   ar
    22     5     4    1
    23     4     1    1
    24     1     2    1
    25     1    29    1
    26    29    30    1
    27    30    31    1
    28    31    32    1
    29    32    33    1
    30    33    45    1
    31    45    46    1
    32    46    47   ar
    33    47    48   ar
    34    48    49   ar
    35    49    50   ar
    36    50    51   ar
    37    51    52   ar
    38    52    53   ar
    39    53    54   ar
    40    33    34    1
    41    34    35    1
    42    35    36    1
    43    36    37    2
    44    36    38   am
    45    38    40    1
    46    40    41    1
    47    41    42    1
    48    41    43    1
    49    41    44    1
    50    19    10    1
    51    28    23   ar
    52    35    30    1
    53    16    11   ar
    54    54    46   ar
    55    53    48   ar
    56     8     9    1
    57    20    21    1
    58     2     3    1
    59    38    39    1
@<TRIPOS>MOLECULE
*****
 54 59 0 0 0
SMALL
GASTEIGER

@<TRIPOS>ATOM
      1 C           3.4796   -0.7319   30.8598 C.3     1  UNL1        0.1269
      2 O           2.0111   -0.9615   30.6582 O.3     1  UNL1       -0.3830
      3 H           1.7464   -0.6187   29.7902 H       1  UNL1        0.2104
      4 C           4.1402   -1.1744   32.1317 C.3     1  UNL1        0.0401
      5 C           4.0750   -0.3052   33.3524 C.3     1  UNL1        0.0833
      6 O           4.5707    2.2144   32.9572 O.2     1  UNL1       -0.2751
      7 C           3.5943    1.1113   33.2397 C.2     1  UNL1        0.2226
      8 N           2.1373    1.4247   33.4095 N.am    1  UNL1       -0.2999
      9 H           1.4964    0.7007   33.5949 H       1  UNL1        0.1498
     10 C           1.6566    2.8411   33.2969 C.3     1  UNL1        0.1278
     11 C           1.7403    3.7579   34.4811 C.ar    1  UNL1        0.0320
     12 C           2.3046    3.2584   35.7780 C.ar    1  UNL1        0.0004
     13 C           2.3883    4.1753   36.9622 C.ar    1  UNL1       -0.0001
     14 C           1.9076    5.5917   36.8495 C.ar    1  UNL1        0.0031
     15 C           1.3433    6.0912   35.5526 C.ar    1  UNL1        0.0366
     16 C           1.2596    5.1743   34.3684 C.ar    1  UNL1        0.1362
     17 O           0.6953    5.6739   33.0715 O.3     1  UNL1       -0.4730
     18 C           0.6116    4.7571   31.8873 C.3     1  UNL1        0.2364
     19 C           1.0923    3.3406   32.0000 C.3     1  UNL1        0.1762
     20 O           1.0086    2.4237   30.8158 O.3     1  UNL1       -0.3788
     21 H           0.6228    2.9005   30.0643 H       1  UNL1        0.2106
     22 C           4.4903   -0.8524   34.6858 C.3     1  UNL1        0.0356
     23 C           5.0570    0.0643   35.7292 C.ar    1  UNL1       -0.0186
     24 C           6.4572    0.5839   35.5904 C.ar    1  UNL1        0.0164
     25 C           7.0239    1.5006   36.6338 C.ar    1  UNL1        0.0986
     26 N           6.1903    1.8976   37.8160 N.ar    1  UNL1       -0.2423
     27 C           4.7900    1.3780   37.9547 C.ar    1  UNL1        0.0986
     28 C           4.2234    0.4613   36.9114 C.ar    1  UNL1        0.0164
     29 C           4.2876   -0.0599   29.7894 C.3     1  UNL1        0.1021
     30 N           4.7739   -0.8490   28.6100 N.3     1  UNL1       -0.2621
     31 C           5.9342   -1.7874   28.7624 C.3     1  UNL1        0.0901
     32 C           6.4205   -2.5765   27.5831 C.3     1  UNL1        0.0900
     33 N           5.7464   -2.4272   26.2513 N.3     1  UNL1       -0.2635
     34 C           4.5862   -1.4889   26.0990 C.3     1  UNL1        0.0980
     35 C           4.0999   -0.6998   27.2783 C.3     1  UNL1        0.1510
     36 C           2.9396    0.2385   27.1260 C.2     1  UNL1        0.2386
     37 O           3.1129    1.5316   26.3858 O.2     1  UNL1       -0.2736
     38 N           1.6059   -0.1162   27.7139 N.am    1  UNL1       -0.2961
     39 H           1.4922   -0.9649   28.1997 H       1  UNL1        0.1497
     40 C           0.4456    0.8221   27.5615 C.3     1  UNL1        0.1939
     41 C          -0.8414    0.5464   28.2811 C.3     1  UNL1        0.4154
     42 F          -2.1283    0.2707   29.0005 F       1  UNL1       -0.1682
     43 F          -1.3470    1.9055   27.8976 F       1  UNL1       -0.1682
     44 F          -0.3358   -0.8127   28.6645 F       1  UNL1       -0.1682
     45 C           6.2327   -3.2163   25.0720 C.3     1  UNL1        0.1377
     46 C           5.5168   -3.1185   23.7574 C.ar    1  UNL1        0.1390
     47 C           4.7343   -1.9372   23.2654 C.ar    1  UNL1        0.0374
     48 C           4.1916   -2.2735   21.9080 C.ar    1  UNL1        0.0373
     49 C           3.3481   -1.4943   20.9431 C.ar    1  UNL1        0.0031
     50 C           2.9517   -2.1042   19.6312 C.ar    1  UNL1        0.0002
     51 C           3.3989   -3.4933   19.2844 C.ar    1  UNL1        0.0031
     52 C           4.2424   -4.2726   20.2494 C.ar    1  UNL1        0.0375
     53 C           4.6388   -3.6627   21.5612 C.ar    1  UNL1        0.1449
     54 O           5.4578   -4.1849   22.7042 O.2     1  UNL1       -0.4564
@<TRIPOS>BOND
     1     6     7    2
     2     7     8   am
     3    10     8    1
     4    10    11    1
     5    11    12   ar
     6    12    13   ar
     7    13    14   ar
     8    14    15   ar
     9    15    16   ar
    10    16    17    1
    11    17    18    1
    12    18    19    1
    13    19    20    1
    14     7     5    1
    15     5    22    1
    16    22    23    1
    17    23    24   ar
    18    24    25   ar
    19    25    26   ar
    20    26    27   ar
    21    27    28   ar
    22     5     4    1
    23     4     1    1
    24     1     2    1
    25     1    29    1
    26    29    30    1
    27    30    31    1
    28    31    32    1
    29    32    33    1
    30    33    45    1
    31    45    46    1
    32    46    47   ar
    33    47    48   ar
    34    48    49   ar
    35    49    50   ar
    36    50    51   ar
    37    51    52   ar
    38    52    53   ar
    39    53    54   ar
    40    33    34    1
    41    34    35    1
    42    35    36    1
    43    36    37    2
    44    36    38   am
    45    38    40    1
    46    40    41    1
    47    41    42    1
    48    41    43    1
    49    41    44    1
    50    19    10    1
    51    28    23   ar
    52    35    30    1
    53    16    11   ar
    54    54    46   ar
    55    53    48   ar
    56     8     9    1
    57    20    21    1
    58     2     3    1
    59    38    39    1
@<TRIPOS>MOLECULE
*****
 54 59 0 0 0
SMALL
GASTEIGER

@<TRIPOS>ATOM
      1 C           5.2148   -1.4990   27.5572 C.3     1  UNL1        0.1269
      2 O           3.9370   -2.1666   27.1434 O.3     1  UNL1       -0.3830
      3 H           3.1877   -1.7252   27.5731 H       1  UNL1        0.2104
      4 C           6.5268   -1.9966   27.0270 C.3     1  UNL1        0.0401
      5 C           6.5541   -2.9709   25.8869 C.3     1  UNL1        0.0833
      6 O           6.9670   -1.7171   23.6492 O.2     1  UNL1       -0.2751
      7 C           6.0801   -2.5485   24.5278 C.2     1  UNL1        0.2226
      8 N           4.7192   -2.9576   24.0475 N.am    1  UNL1       -0.2999
      9 H           4.1371   -3.5033   24.6242 H       1  UNL1        0.1498
     10 C           4.2452   -2.5352   22.6885 C.3     1  UNL1        0.1278
     11 C           3.3365   -1.3503   22.5459 C.ar    1  UNL1        0.0320
     12 C           2.9018   -0.5878   23.7623 C.ar    1  UNL1        0.0004
     13 C           1.9931    0.5970   23.6197 C.ar    1  UNL1       -0.0001
     14 C           1.5191    1.0194   22.2607 C.ar    1  UNL1        0.0031
     15 C           1.9538    0.2570   21.0443 C.ar    1  UNL1        0.0366
     16 C           2.8625   -0.9279   21.1869 C.ar    1  UNL1        0.1362
     17 O           3.2973   -1.6904   19.9705 O.3     1  UNL1       -0.4730
     18 C           4.2060   -2.8753   20.1131 C.3     1  UNL1        0.2364
     19 C           4.6800   -3.2976   21.4722 C.3     1  UNL1        0.1762
     20 O           5.5887   -4.4825   21.6148 O.3     1  UNL1       -0.3788
     21 H           5.7707   -4.8576   20.7390 H       1  UNL1        0.2106
     22 C           7.0552   -4.3677   26.1057 C.3     1  UNL1        0.0356
     23 C           7.4854   -4.8043   27.4748 C.ar    1  UNL1       -0.0186
     24 C           8.9416   -4.8181   27.8345 C.ar    1  UNL1        0.0164
     25 C           9.3717   -5.2548   29.2036 C.ar    1  UNL1        0.0986
     26 N           8.3458   -5.6775   30.2129 N.ar    1  UNL1       -0.2423
     27 C           6.8896   -5.6636   29.8532 C.ar    1  UNL1        0.0986
     28 C           6.4594   -5.2270   28.4841 C.ar    1  UNL1        0.0164
     29 C           5.1808   -0.3338   28.5012 C.3     1  UNL1        0.1021
     30 N           5.0198   -0.5664   29.9743 N.3     1  UNL1       -0.2621
     31 C           6.1576   -1.1294   30.7735 C.3     1  UNL1        0.0901
     32 C           5.9966   -1.3620   32.2466 C.3     1  UNL1        0.0900
     33 N           4.6978   -1.0318   32.9205 N.3     1  UNL1       -0.2635
     34 C           3.5601   -0.4689   32.1213 C.3     1  UNL1        0.0980
     35 C           3.7211   -0.2362   30.6482 C.3     1  UNL1        0.1510
     36 C           2.5833    0.3267   29.8491 C.2     1  UNL1        0.2386
     37 O           2.5198    1.7989   29.5687 O.2     1  UNL1       -0.2736
     38 N           1.5091   -0.5827   29.3302 N.am    1  UNL1       -0.2961
     39 H           1.5507   -1.5489   29.5142 H       1  UNL1        0.1497
     40 C           0.3713   -0.0198   28.5310 C.3     1  UNL1        0.1939
     41 C          -1.0013    0.0565   29.1312 C.3     1  UNL1        0.4154
     42 F          -2.3739    0.1327   29.7313 F       1  UNL1       -0.1682
     43 F          -1.4375   -1.0992   28.2803 F       1  UNL1       -0.1682
     44 F          -0.5651    1.2122   29.9820 F       1  UNL1       -0.1682
     45 C           4.5368   -1.2644   34.3935 C.3     1  UNL1        0.1377
     46 C           4.6724   -0.1193   35.3529 C.ar    1  UNL1        0.1390
     47 C           5.2335    1.2351   35.0355 C.ar    1  UNL1        0.0374
     48 C           5.1787    2.0639   36.2846 C.ar    1  UNL1        0.0373
     49 C           5.5937    3.4766   36.5708 C.ar    1  UNL1        0.0031
     50 C           5.4137    4.0472   37.9464 C.ar    1  UNL1        0.0002
     51 C           4.8187    3.2050   39.0357 C.ar    1  UNL1        0.0031
     52 C           4.4038    1.7922   38.7495 C.ar    1  UNL1        0.0375
     53 C           4.5837    1.2216   37.3740 C.ar    1  UNL1        0.1449
     54 O           4.2709   -0.1276   36.7982 O.2     1  UNL1       -0.4564
@<TRIPOS>BOND
     1     6     7    2
     2     7     8   am
     3    10     8    1
     4    10    11    1
     5    11    12   ar
     6    12    13   ar
     7    13    14   ar
     8    14    15   ar
     9    15    16   ar
    10    16    17    1
    11    17    18    1
    12    18    19    1
    13    19    20    1
    14     7     5    1
    15     5    22    1
    16    22    23    1
    17    23    24   ar
    18    24    25   ar
    19    25    26   ar
    20    26    27   ar
    21    27    28   ar
    22     5     4    1
    23     4     1    1
    24     1     2    1
    25     1    29    1
    26    29    30    1
    27    30    31    1
    28    31    32    1
    29    32    33    1
    30    33    45    1
    31    45    46    1
    32    46    47   ar
    33    47    48   ar
    34    48    49   ar
    35    49    50   ar
    36    50    51   ar
    37    51    52   ar
    38    52    53   ar
    39    53    54   ar
    40    33    34    1
    41    34    35    1
    42    35    36    1
    43    36    37    2
    44    36    38   am
    45    38    40    1
    46    40    41    1
    47    41    42    1
    48    41    43    1
    49    41    44    1
    50    19    10    1
    51    28    23   ar
    52    35    30    1
    53    16    11   ar
    54    54    46   ar
    55    53    48   ar
    56     8     9    1
    57    20    21    1
    58     2     3    1
    59    38    39    1
@<TRIPOS>MOLECULE
*****
 54 59 0 0 0
SMALL
GASTEIGER

@<TRIPOS>ATOM
      1 C           4.6353   -1.4509   27.2810 C.3     1  UNL1        0.1269
      2 O           3.2340   -1.9820   27.2172 O.3     1  UNL1       -0.3830
      3 H           2.6773   -1.5022   27.8503 H       1  UNL1        0.2104
      4 C           5.6978   -2.0295   26.3941 C.3     1  UNL1        0.0401
      5 C           5.7756   -1.6216   24.9528 C.3     1  UNL1        0.0833
      6 O           5.3937    0.7687   24.0091 O.2     1  UNL1       -0.2751
      7 C           4.8505   -0.5675   24.4205 C.2     1  UNL1        0.2226
      8 N           3.3823   -0.8498   24.2998 N.am    1  UNL1       -0.2999
      9 H           3.0258   -1.7268   24.5699 H       1  UNL1        0.1498
     10 C           2.4572    0.2043   23.7676 C.3     1  UNL1        0.1278
     11 C           2.0267    0.1685   22.3312 C.ar    1  UNL1        0.0320
     12 C           2.5213   -0.9213   21.4269 C.ar    1  UNL1        0.0004
     13 C           2.0908   -0.9571   19.9905 C.ar    1  UNL1       -0.0001
     14 C           1.1657    0.0969   19.4583 C.ar    1  UNL1        0.0031
     15 C           0.6712    1.1867   20.3625 C.ar    1  UNL1        0.0366
     16 C           1.1017    1.2225   21.7990 C.ar    1  UNL1        0.1362
     17 O           0.6071    2.3123   22.7032 O.3     1  UNL1       -0.4730
     18 C           1.0376    2.3481   24.1397 C.3     1  UNL1        0.2364
     19 C           1.9627    1.2941   24.6718 C.3     1  UNL1        0.1762
     20 O           2.3932    1.3298   26.1083 O.3     1  UNL1       -0.3788
     21 H           1.9863    2.0922   26.5489 H       1  UNL1        0.2106
     22 C           6.7785   -2.2678   24.0436 C.3     1  UNL1        0.0356
     23 C           6.3253   -2.9265   22.7745 C.ar    1  UNL1       -0.0186
     24 C           7.2425   -2.9812   21.5889 C.ar    1  UNL1        0.0164
     25 C           6.7892   -3.6400   20.3197 C.ar    1  UNL1        0.0986
     26 N           5.4188   -4.2440   20.2363 N.ar    1  UNL1       -0.2423
     27 C           4.5016   -4.1894   21.4219 C.ar    1  UNL1        0.0986
     28 C           4.9548   -3.5307   22.6910 C.ar    1  UNL1        0.0164
     29 C           4.9743   -0.3412   28.2316 C.3     1  UNL1        0.1021
     30 N           4.9017   -0.5732   29.7118 N.3     1  UNL1       -0.2621
     31 C           6.0811   -1.1467   30.4399 C.3     1  UNL1        0.0901
     32 C           6.0085   -1.3788   31.9200 C.3     1  UNL1        0.0900
     33 N           4.7563   -1.0373   32.6721 N.3     1  UNL1       -0.2635
     34 C           3.5770   -0.4638   31.9441 C.3     1  UNL1        0.0980
     35 C           3.6496   -0.2317   30.4639 C.3     1  UNL1        0.1510
     36 C           2.4702    0.3418   29.7359 C.2     1  UNL1        0.2386
     37 O           2.3525    1.8256   29.5502 O.2     1  UNL1       -0.2736
     38 N           1.4085   -0.5685   29.1934 N.am    1  UNL1       -0.2961
     39 H           1.4858   -1.5424   29.3153 H       1  UNL1        0.1497
     40 C           0.2291    0.0050   28.4654 C.3     1  UNL1        0.1939
     41 C          -1.1111    0.0628   29.1367 C.3     1  UNL1        0.4154
     42 F          -2.4512    0.1206   29.8080 F       1  UNL1       -0.1682
     43 F          -0.6643    1.2576   29.9259 F       1  UNL1       -0.1682
     44 F          -1.5579   -1.1320   28.3476 F       1  UNL1       -0.1682
     45 C           4.6837   -1.2693   34.1523 C.3     1  UNL1        0.1377
     46 C           4.5457   -0.1051   35.0881 C.ar    1  UNL1        0.1390
     47 C           4.6495   -0.1588   36.5835 C.ar    1  UNL1        0.0374
     48 C           4.4476    1.2303   37.1123 C.ar    1  UNL1        0.0373
     49 C           4.4424    1.7825   38.5070 C.ar    1  UNL1        0.0031
     50 C           4.2086    3.2468   38.7330 C.ar    1  UNL1        0.0002
     51 C           3.9800    4.1590   37.5644 C.ar    1  UNL1        0.0031
     52 C           3.9853    3.6069   36.1698 C.ar    1  UNL1        0.0375
     53 C           4.2190    2.1426   35.9437 C.ar    1  UNL1        0.1449
     54 O           4.2797    1.3172   34.6927 O.2     1  UNL1       -0.4564
@<TRIPOS>BOND
     1     6     7    2
     2     7     8   am
     3    10     8    1
     4    10    11    1
     5    11    12   ar
     6    12    13   ar
     7    13    14   ar
     8    14    15   ar
     9    15    16   ar
    10    16    17    1
    11    17    18    1
    12    18    19    1
    13    19    20    1
    14     7     5    1
    15     5    22    1
    16    22    23    1
    17    23    24   ar
    18    24    25   ar
    19    25    26   ar
    20    26    27   ar
    21    27    28   ar
    22     5     4    1
    23     4     1    1
    24     1     2    1
    25     1    29    1
    26    29    30    1
    27    30    31    1
    28    31    32    1
    29    32    33    1
    30    33    45    1
    31    45    46    1
    32    46    47   ar
    33    47    48   ar
    34    48    49   ar
    35    49    50   ar
    36    50    51   ar
    37    51    52   ar
    38    52    53   ar
    39    53    54   ar
    40    33    34    1
    41    34    35    1
    42    35    36    1
    43    36    37    2
    44    36    38   am
    45    38    40    1
    46    40    41    1
    47    41    42    1
    48    41    43    1
    49    41    44    1
    50    19    10    1
    51    28    23   ar
    52    35    30    1
    53    16    11   ar
    54    54    46   ar
    55    53    48   ar
    56     8     9    1
    57    20    21    1
    58     2     3    1
    59    38    39    1
@<TRIPOS>MOLECULE
*****
 54 59 0 0 0
SMALL
GASTEIGER

@<TRIPOS>ATOM
      1 C           4.5546   -1.1510   26.6646 C.3     1  UNL1        0.1269
      2 O           3.4794   -2.1599   26.9404 O.3     1  UNL1       -0.3830
      3 H           3.1132   -2.0082   27.8258 H       1  UNL1        0.2104
      4 C           5.2832   -1.1708   25.3536 C.3     1  UNL1        0.0401
      5 C           5.4874   -2.4680   24.6286 C.3     1  UNL1        0.0833
      6 O           7.9865   -3.1596   24.7898 O.2     1  UNL1       -0.2751
      7 C           6.5422   -3.4285   25.0923 C.2     1  UNL1        0.2226
      8 N           6.1526   -4.6578   25.8584 N.am    1  UNL1       -0.2999
      9 H           5.2046   -4.8342   26.0570 H       1  UNL1        0.1498
     10 C           7.2073   -5.6182   26.3221 C.3     1  UNL1        0.1278
     11 C           7.4911   -5.7706   27.7871 C.ar    1  UNL1        0.0320
     12 C           6.7201   -4.9626   28.7885 C.ar    1  UNL1        0.0004
     13 C           7.0039   -5.1151   30.2535 C.ar    1  UNL1       -0.0001
     14 C           8.0586   -6.0755   30.7171 C.ar    1  UNL1        0.0031
     15 C           8.8295   -6.8835   29.7158 C.ar    1  UNL1        0.0366
     16 C           8.5458   -6.7311   28.2508 C.ar    1  UNL1        0.1362
     17 O           9.3168   -7.5392   27.2495 O.3     1  UNL1       -0.4730
     18 C           9.0330   -7.3868   25.7845 C.3     1  UNL1        0.2364
     19 C           7.9782   -6.4262   25.3208 C.3     1  UNL1        0.1762
     20 O           7.6945   -6.2738   23.8558 O.3     1  UNL1       -0.3788
     21 H           8.2760   -6.8635   23.3508 H       1  UNL1        0.2106
     22 C           4.6368   -2.8047   23.4399 C.3     1  UNL1        0.0356
     23 C           5.2416   -2.8284   22.0674 C.ar    1  UNL1       -0.0186
     24 C           4.7369   -3.8000   21.0421 C.ar    1  UNL1        0.0164
     25 C           5.3418   -3.8237   19.6696 C.ar    1  UNL1        0.0986
     26 N           6.4513   -2.8758   19.3225 N.ar    1  UNL1       -0.2423
     27 C           6.9559   -1.9042   20.3478 C.ar    1  UNL1        0.0986
     28 C           6.3511   -1.8805   21.7203 C.ar    1  UNL1        0.0164
     29 C           4.9013   -0.1223   27.6999 C.3     1  UNL1        0.1021
     30 N           4.8361   -0.4729   29.1568 N.3     1  UNL1       -0.2621
     31 C           6.0380   -1.0507   29.8437 C.3     1  UNL1        0.0901
     32 C           5.9728   -1.4013   31.3007 C.3     1  UNL1        0.0900
     33 N           4.7057   -1.1742   32.0708 N.3     1  UNL1       -0.2635
     34 C           3.5039   -0.5964   31.3839 C.3     1  UNL1        0.0980
     35 C           3.5691   -0.2458   29.9270 C.3     1  UNL1        0.1510
     36 C           2.3673    0.3319   29.2401 C.2     1  UNL1        0.2386
     37 O           2.1907    1.8195   29.1624 O.2     1  UNL1       -0.2736
     38 N           1.3420   -0.5779   28.6309 N.am    1  UNL1       -0.2961
     39 H           1.4578   -1.5542   28.6819 H       1  UNL1        0.1497
     40 C           0.1402   -0.0001   27.9440 C.3     1  UNL1        0.1939
     41 C          -1.1314    0.2135   28.7106 C.3     1  UNL1        0.4154
     42 F          -2.4029    0.4272   29.4771 F       1  UNL1       -0.1682
     43 F          -1.2577   -1.2672   28.9139 F       1  UNL1       -0.1682
     44 F          -1.0051    1.6943   28.5073 F       1  UNL1       -0.1682
     45 C           4.6405   -1.5248   33.5278 C.3     1  UNL1        0.1377
     46 C           4.3856   -0.4535   34.5464 C.ar    1  UNL1        0.1390
     47 C           4.8045   -0.4882   35.9862 C.ar    1  UNL1        0.0374
     48 C           4.3448    0.7844   36.6336 C.ar    1  UNL1        0.0373
     49 C           4.4755    1.3015   38.0355 C.ar    1  UNL1        0.0031
     50 C           3.9032    2.6400   38.3976 C.ar    1  UNL1        0.0002
     51 C           3.2001    3.4612   37.3578 C.ar    1  UNL1        0.0031
     52 C           3.0694    2.9441   35.9559 C.ar    1  UNL1        0.0375
     53 C           3.6417    1.6057   35.5937 C.ar    1  UNL1        0.1449
     54 O           3.6669    0.8406   34.3038 O.2     1  UNL1       -0.4564
@<TRIPOS>BOND
     1     6     7    2
     2     7     8   am
     3    10     8    1
     4    10    11    1
     5    11    12   ar
     6    12    13   ar
     7    13    14   ar
     8    14    15   ar
     9    15    16   ar
    10    16    17    1
    11    17    18    1
    12    18    19    1
    13    19    20    1
    14     7     5    1
    15     5    22    1
    16    22    23    1
    17    23    24   ar
    18    24    25   ar
    19    25    26   ar
    20    26    27   ar
    21    27    28   ar
    22     5     4    1
    23     4     1    1
    24     1     2    1
    25     1    29    1
    26    29    30    1
    27    30    31    1
    28    31    32    1
    29    32    33    1
    30    33    45    1
    31    45    46    1
    32    46    47   ar
    33    47    48   ar
    34    48    49   ar
    35    49    50   ar
    36    50    51   ar
    37    51    52   ar
    38    52    53   ar
    39    53    54   ar
    40    33    34    1
    41    34    35    1
    42    35    36    1
    43    36    37    2
    44    36    38   am
    45    38    40    1
    46    40    41    1
    47    41    42    1
    48    41    43    1
    49    41    44    1
    50    19    10    1
    51    28    23   ar
    52    35    30    1
    53    16    11   ar
    54    54    46   ar
    55    53    48   ar
    56     8     9    1
    57    20    21    1
    58     2     3    1
    59    38    39    1
@<TRIPOS>MOLECULE
*****
 54 59 0 0 0
SMALL
GASTEIGER

@<TRIPOS>ATOM
      1 C           3.9479   -0.7636   25.6775 C.3     1  UNL1        0.1269
      2 O           2.6258   -0.1465   25.3293 O.3     1  UNL1       -0.3830
      3 H           2.5114    0.6766   25.8296 H       1  UNL1        0.2104
      4 C           4.3667   -2.0524   25.0344 C.3     1  UNL1        0.0401
      5 C           5.6730   -2.1352   24.3018 C.3     1  UNL1        0.0833
      6 O           6.3972   -0.4181   22.4915 O.2     1  UNL1       -0.2751
      7 C           5.7532   -1.7211   22.8623 C.2     1  UNL1        0.2226
      8 N           5.1894   -2.6100   21.7936 N.am    1  UNL1       -0.2999
      9 H           4.7668   -3.4652   22.0370 H       1  UNL1        0.1498
     10 C           5.2697   -2.1959   20.3542 C.3     1  UNL1        0.1278
     11 C           4.1566   -1.4002   19.7395 C.ar    1  UNL1        0.0320
     12 C           2.9632   -1.0185   20.5643 C.ar    1  UNL1        0.0004
     13 C           1.8502   -0.2228   19.9496 C.ar    1  UNL1       -0.0001
     14 C           1.9304    0.1913   18.5102 C.ar    1  UNL1        0.0031
     15 C           3.1237   -0.1904   17.6854 C.ar    1  UNL1        0.0366
     16 C           4.2368   -0.9861   18.3001 C.ar    1  UNL1        0.1362
     17 O           5.4301   -1.3677   17.4752 O.3     1  UNL1       -0.4730
     18 C           6.5432   -2.1635   18.0899 C.3     1  UNL1        0.2364
     19 C           6.4630   -2.5776   19.5294 C.3     1  UNL1        0.1762
     20 O           7.5761   -3.3733   20.1441 O.3     1  UNL1       -0.3788
     21 H           8.2643   -3.5334   19.4795 H       1  UNL1        0.2106
     22 C           6.8991   -2.6322   25.0087 C.3     1  UNL1        0.0356
     23 C           7.1595   -4.1057   25.1125 C.ar    1  UNL1       -0.0186
     24 C           7.7760   -4.8415   23.9598 C.ar    1  UNL1        0.0164
     25 C           8.0365   -6.3151   24.0637 C.ar    1  UNL1        0.0986
     26 N           7.6803   -7.0529   25.3202 N.ar    1  UNL1       -0.2423
     27 C           7.0638   -6.3172   26.4728 C.ar    1  UNL1        0.0986
     28 C           6.8034   -4.8437   26.3690 C.ar    1  UNL1        0.0164
     29 C           4.8512   -0.0919   26.6690 C.3     1  UNL1        0.1021
     30 N           5.0546   -0.6953   28.0272 N.3     1  UNL1       -0.2621
     31 C           6.2928   -1.4911   28.3166 C.3     1  UNL1        0.0901
     32 C           6.4961   -2.0944   29.6747 C.3     1  UNL1        0.0900
     33 N           5.4613   -1.9020   30.7435 N.3     1  UNL1       -0.2635
     34 C           4.2232   -1.1062   30.4541 C.3     1  UNL1        0.0980
     35 C           4.0198   -0.5029   29.0959 C.3     1  UNL1        0.1510
     36 C           2.7817    0.2929   28.8065 C.2     1  UNL1        0.2386
     37 O           2.7831    1.7800   29.0025 O.2     1  UNL1       -0.2736
     38 N           1.5422   -0.3985   28.3210 N.am    1  UNL1       -0.2961
     39 H           1.5413   -1.3745   28.1923 H       1  UNL1        0.1497
     40 C           0.3041    0.3973   28.0315 C.3     1  UNL1        0.1939
     41 C          -0.8772    0.3078   28.9517 C.3     1  UNL1        0.4154
     42 F          -2.0584    0.2183   29.8718 F       1  UNL1       -0.1682
     43 F          -0.3613    1.4828   29.7284 F       1  UNL1       -0.1682
     44 F          -1.3931   -0.8671   28.1750 F       1  UNL1       -0.1682
     45 C           5.6647   -2.5053   32.1017 C.3     1  UNL1        0.1377
     46 C           5.7098   -1.6241   33.3147 C.ar    1  UNL1        0.1390
     47 C           4.5865   -1.3984   34.2828 C.ar    1  UNL1        0.0374
     48 C           5.0687   -0.4486   35.3390 C.ar    1  UNL1        0.0373
     49 C           4.3971    0.1339   36.5472 C.ar    1  UNL1        0.0031
     50 C           5.1469    1.0778   37.4400 C.ar    1  UNL1        0.0002
     51 C           6.5682    1.4390   37.1246 C.ar    1  UNL1        0.0031
     52 C           7.2397    0.8565   35.9164 C.ar    1  UNL1        0.0375
     53 C           6.4900   -0.0873   35.0236 C.ar    1  UNL1        0.1449
     54 O           6.8862   -0.8138   33.7726 O.2     1  UNL1       -0.4564
@<TRIPOS>BOND
     1     6     7    2
     2     7     8   am
     3    10     8    1
     4    10    11    1
     5    11    12   ar
     6    12    13   ar
     7    13    14   ar
     8    14    15   ar
     9    15    16   ar
    10    16    17    1
    11    17    18    1
    12    18    19    1
    13    19    20    1
    14     7     5    1
    15     5    22    1
    16    22    23    1
    17    23    24   ar
    18    24    25   ar
    19    25    26   ar
    20    26    27   ar
    21    27    28   ar
    22     5     4    1
    23     4     1    1
    24     1     2    1
    25     1    29    1
    26    29    30    1
    27    30    31    1
    28    31    32    1
    29    32    33    1
    30    33    45    1
    31    45    46    1
    32    46    47   ar
    33    47    48   ar
    34    48    49   ar
    35    49    50   ar
    36    50    51   ar
    37    51    52   ar
    38    52    53   ar
    39    53    54   ar
    40    33    34    1
    41    34    35    1
    42    35    36    1
    43    36    37    2
    44    36    38   am
    45    38    40    1
    46    40    41    1
    47    41    42    1
    48    41    43    1
    49    41    44    1
    50    19    10    1
    51    28    23   ar
    52    35    30    1
    53    16    11   ar
    54    54    46   ar
    55    53    48   ar
    56     8     9    1
    57    20    21    1
    58     2     3    1
    59    38    39    1
@<TRIPOS>MOLECULE
*****
 54 59 0 0 0
SMALL
GASTEIGER

@<TRIPOS>ATOM
      1 C           4.3876    2.0158   26.9271 C.3     1  UNL1        0.1269
      2 O           5.5322    2.6395   26.1849 O.3     1  UNL1       -0.3830
      3 H           6.2432    2.8545   26.8087 H       1  UNL1        0.2104
      4 C           3.1558    1.5894   26.1849 C.3     1  UNL1        0.0401
      5 C           3.2032    1.4035   24.6972 C.3     1  UNL1        0.0833
      6 O           5.4485    0.6447   23.6328 O.2     1  UNL1       -0.2751
      7 C           4.0604    0.3254   24.1031 C.2     1  UNL1        0.2226
      8 N           3.5294   -1.0720   23.9792 N.am    1  UNL1       -0.2999
      9 H           2.6184   -1.2816   24.2879 H       1  UNL1        0.1498
     10 C           4.3865   -2.1501   23.3851 C.3     1  UNL1        0.1278
     11 C           4.2681   -2.4846   21.9277 C.ar    1  UNL1        0.0320
     12 C           3.2926   -1.7410   21.0644 C.ar    1  UNL1        0.0004
     13 C           3.1742   -2.0754   19.6069 C.ar    1  UNL1       -0.0001
     14 C           4.0313   -3.1535   19.0128 C.ar    1  UNL1        0.0031
     15 C           5.0068   -3.8972   19.8761 C.ar    1  UNL1        0.0366
     16 C           5.1252   -3.5627   21.3335 C.ar    1  UNL1        0.1362
     17 O           6.1008   -4.3064   22.1969 O.3     1  UNL1       -0.4730
     18 C           6.2192   -3.9719   23.6543 C.3     1  UNL1        0.2364
     19 C           5.3621   -2.8938   24.2484 C.3     1  UNL1        0.1762
     20 O           5.4805   -2.5593   25.7059 O.3     1  UNL1       -0.3788
     21 H           6.1511   -3.1285   26.1148 H       1  UNL1        0.2106
     22 C           2.3935    2.2956   23.8037 C.3     1  UNL1        0.0356
     23 C           2.0299    1.8418   22.4211 C.ar    1  UNL1       -0.0186
     24 C           0.7873    1.0310   22.2003 C.ar    1  UNL1        0.0164
     25 C           0.4238    0.5771   20.8175 C.ar    1  UNL1        0.0986
     26 N           1.3027    0.9341   19.6557 N.ar    1  UNL1       -0.2423
     27 C           2.5453    1.7448   19.8764 C.ar    1  UNL1        0.0986
     28 C           2.9089    2.1987   21.2591 C.ar    1  UNL1        0.0164
     29 C           4.4748    1.8183   28.4115 C.3     1  UNL1        0.1021
     30 N           5.0556    0.5517   28.9668 N.3     1  UNL1       -0.2621
     31 C           6.4930    0.2093   28.7084 C.3     1  UNL1        0.0901
     32 C           7.0738   -1.0574   29.2637 C.3     1  UNL1        0.0900
     33 N           6.2171   -1.9816   30.0774 N.3     1  UNL1       -0.2635
     34 C           4.7798   -1.6392   30.3357 C.3     1  UNL1        0.0980
     35 C           4.1991   -0.3725   29.7805 C.3     1  UNL1        0.1510
     36 C           2.7617   -0.0301   30.0389 C.2     1  UNL1        0.2386
     37 O           2.3907    0.7950   31.2353 O.2     1  UNL1       -0.2736
     38 N           1.6954   -0.5128   29.1008 N.am    1  UNL1       -0.2961
     39 H           1.9389   -1.0544   28.3155 H       1  UNL1        0.1497
     40 C           0.2580   -0.1704   29.3591 C.3     1  UNL1        0.1939
     41 C          -0.5267    0.5941   28.3345 C.3     1  UNL1        0.4154
     42 F          -1.3115    1.3585   27.3100 F       1  UNL1       -0.1682
     43 F          -1.3930   -0.6080   28.1011 F       1  UNL1       -0.1682
     44 F           0.3395    1.7961   28.5679 F       1  UNL1       -0.1682
     45 C           6.7979   -3.2483   30.6326 C.3     1  UNL1        0.1377
     46 C           7.0906   -4.4023   29.7201 C.ar    1  UNL1        0.1390
     47 C           6.4845   -4.6324   28.3675 C.ar    1  UNL1        0.0374
     48 C           7.0600   -5.9011   27.8114 C.ar    1  UNL1        0.0373
     49 C           6.8326   -6.6236   26.5167 C.ar    1  UNL1        0.0031
     50 C           7.5670   -7.8999   26.2310 C.ar    1  UNL1        0.0002
     51 C           8.5288   -8.4538   27.2400 C.ar    1  UNL1        0.0031
     52 C           8.7562   -7.7314   28.5347 C.ar    1  UNL1        0.0375
     53 C           8.0219   -6.4551   28.8205 C.ar    1  UNL1        0.1449
     54 O           8.0407   -5.5287   30.0001 O.2     1  UNL1       -0.4564
@<TRIPOS>BOND
     1     6     7    2
     2     7     8   am
     3    10     8    1
     4    10    11    1
     5    11    12   ar
     6    12    13   ar
     7    13    14   ar
     8    14    15   ar
     9    15    16   ar
    10    16    17    1
    11    17    18    1
    12    18    19    1
    13    19    20    1
    14     7     5    1
    15     5    22    1
    16    22    23    1
    17    23    24   ar
    18    24    25   ar
    19    25    26   ar
    20    26    27   ar
    21    27    28   ar
    22     5     4    1
    23     4     1    1
    24     1     2    1
    25     1    29    1
    26    29    30    1
    27    30    31    1
    28    31    32    1
    29    32    33    1
    30    33    45    1
    31    45    46    1
    32    46    47   ar
    33    47    48   ar
    34    48    49   ar
    35    49    50   ar
    36    50    51   ar
    37    51    52   ar
    38    52    53   ar
    39    53    54   ar
    40    33    34    1
    41    34    35    1
    42    35    36    1
    43    36    37    2
    44    36    38   am
    45    38    40    1
    46    40    41    1
    47    41    42    1
    48    41    43    1
    49    41    44    1
    50    19    10    1
    51    28    23   ar
    52    35    30    1
    53    16    11   ar
    54    54    46   ar
    55    53    48   ar
    56     8     9    1
    57    20    21    1
    58     2     3    1
    59    38    39    1
@<TRIPOS>MOLECULE
*****
 54 59 0 0 0
SMALL
GASTEIGER

@<TRIPOS>ATOM
      1 C           0.8032    0.5159   19.5112 C.3     1  UNL1        0.1269
      2 O           0.0468   -0.4166   20.4102 O.3     1  UNL1       -0.3830
      3 H           0.4128   -1.3113   20.3296 H       1  UNL1        0.2104
      4 C           0.4299    1.9674   19.4515 C.3     1  UNL1        0.0401
      5 C           0.1906    2.7331   20.7189 C.3     1  UNL1        0.0833
      6 O           2.1773    3.1451   22.3417 O.2     1  UNL1       -0.2751
      7 C           0.9459    2.3760   21.9648 C.2     1  UNL1        0.2226
      8 N           0.4696    1.2499   22.8337 N.am    1  UNL1       -0.2999
      9 H          -0.3386    0.7452   22.5863 H       1  UNL1        0.1498
     10 C           1.2248    0.8929   24.0796 C.3     1  UNL1        0.1278
     11 C           0.6959    1.3052   25.4213 C.ar    1  UNL1        0.0320
     12 C          -0.5881    2.0746   25.5172 C.ar    1  UNL1        0.0004
     13 C          -1.1169    2.4870   26.8590 C.ar    1  UNL1       -0.0001
     14 C          -0.3618    2.1299   28.1048 C.ar    1  UNL1        0.0031
     15 C           0.9223    1.3605   28.0089 C.ar    1  UNL1        0.0366
     16 C           1.4511    0.9482   26.6672 C.ar    1  UNL1        0.1362
     17 O           2.7352    0.1787   26.5713 O.3     1  UNL1       -0.4730
     18 C           3.2640   -0.2337   25.2296 C.3     1  UNL1        0.2364
     19 C           2.5088    0.1234   23.9837 C.3     1  UNL1        0.1762
     20 O           3.0377   -0.2889   22.6419 O.3     1  UNL1       -0.3788
     21 H           3.8695   -0.7744   22.7575 H       1  UNL1        0.2106
     22 C          -0.8039    3.8558   20.7405 C.3     1  UNL1        0.0356
     23 C          -2.1534    3.6504   21.3622 C.ar    1  UNL1       -0.0186
     24 C          -2.3353    3.8385   22.8392 C.ar    1  UNL1        0.0164
     25 C          -3.6850    3.6331   23.4608 C.ar    1  UNL1        0.0986
     26 N          -4.8526    3.2396   22.6054 N.ar    1  UNL1       -0.2423
     27 C          -4.6707    3.0516   21.1284 C.ar    1  UNL1        0.0986
     28 C          -3.3212    3.2570   20.5068 C.ar    1  UNL1        0.0164
     29 C           1.9329   -0.0032   18.6719 C.3     1  UNL1        0.1021
     30 N           3.1151   -0.6549   19.3258 N.3     1  UNL1       -0.2621
     31 C           3.0294   -2.0825   19.7783 C.3     1  UNL1        0.0901
     32 C           4.2117   -2.7342   20.4322 C.3     1  UNL1        0.0900
     33 N           5.4796   -1.9583   20.6336 N.3     1  UNL1       -0.2635
     34 C           5.5652   -0.5308   20.1811 C.3     1  UNL1        0.0980
     35 C           4.3829    0.1209   19.5272 C.3     1  UNL1        0.1510
     36 C           4.4685    1.5484   19.0747 C.2     1  UNL1        0.2386
     37 O           5.0579    1.8765   17.7349 O.2     1  UNL1       -0.2736
     38 N           3.9648    2.6480   19.9620 N.am    1  UNL1       -0.2961
     39 H           3.5780    2.4327   20.8414 H       1  UNL1        0.1497
     40 C           4.0504    4.0755   19.5095 C.3     1  UNL1        0.1939
     41 C           2.7973    4.8437   19.2098 C.3     1  UNL1        0.4154
     42 F           1.5444    5.6119   18.9101 F       1  UNL1       -0.1682
     43 F           2.6374    4.0825   17.9272 F       1  UNL1       -0.1682
     44 F           2.9573    5.6050   20.4923 F       1  UNL1       -0.1682
     45 C           6.6618   -2.6100   21.2875 C.3     1  UNL1        0.1377
     46 C           6.6119   -2.9656   22.7439 C.ar    1  UNL1        0.1390
     47 C           6.9304   -4.3067   23.3355 C.ar    1  UNL1        0.0374
     48 C           6.7500   -4.2124   24.8216 C.ar    1  UNL1        0.0373
     49 C           6.9217   -5.2199   25.9195 C.ar    1  UNL1        0.0031
     50 C           6.6634   -4.8281   27.3442 C.ar    1  UNL1        0.0002
     51 C           6.2333   -3.4287   27.6711 C.ar    1  UNL1        0.0031
     52 C           6.0616   -2.4212   26.5732 C.ar    1  UNL1        0.0375
     53 C           6.3199   -2.8129   25.1485 C.ar    1  UNL1        0.1449
     54 O           6.2346   -2.0424   23.8644 O.2     1  UNL1       -0.4564
@<TRIPOS>BOND
     1     6     7    2
     2     7     8   am
     3    10     8    1
     4    10    11    1
     5    11    12   ar
     6    12    13   ar
     7    13    14   ar
     8    14    15   ar
     9    15    16   ar
    10    16    17    1
    11    17    18    1
    12    18    19    1
    13    19    20    1
    14     7     5    1
    15     5    22    1
    16    22    23    1
    17    23    24   ar
    18    24    25   ar
    19    25    26   ar
    20    26    27   ar
    21    27    28   ar
    22     5     4    1
    23     4     1    1
    24     1     2    1
    25     1    29    1
    26    29    30    1
    27    30    31    1
    28    31    32    1
    29    32    33    1
    30    33    45    1
    31    45    46    1
    32    46    47   ar
    33    47    48   ar
    34    48    49   ar
    35    49    50   ar
    36    50    51   ar
    37    51    52   ar
    38    52    53   ar
    39    53    54   ar
    40    33    34    1
    41    34    35    1
    42    35    36    1
    43    36    37    2
    44    36    38   am
    45    38    40    1
    46    40    41    1
    47    41    42    1
    48    41    43    1
    49    41    44    1
    50    19    10    1
    51    28    23   ar
    52    35    30    1
    53    16    11   ar
    54    54    46   ar
    55    53    48   ar
    56     8     9    1
    57    20    21    1
    58     2     3    1
    59    38    39    1
