@<TRIPOS>MOLECULE
*****
 25 27 0 0 0
SMALL
GASTEIGER

@<TRIPOS>ATOM
      1 N          -4.7103  -19.6916   22.6112 N.am    1  UNL1       -0.2969
      2 C          -5.7162  -19.1285   21.6513 C.2     1  UNL1        0.2461
      3 O          -5.2948  -18.7411   20.2648 O.2     1  UNL1       -0.2701
      4 H          -4.9869  -19.9458   23.5212 H       1  UNL1        0.1501
      5 C          -7.1435  -18.9528   22.0780 C.ar    1  UNL1        0.0534
      6 C          -7.8228  -17.6278   21.8967 C.ar    1  UNL1        0.0045
      7 C          -9.2501  -17.4522   22.3233 C.ar    1  UNL1        0.0001
      8 C          -9.9980  -18.6015   22.9313 C.ar    1  UNL1        0.0001
      9 C          -9.3187  -19.9265   23.1126 C.ar    1  UNL1        0.0001
     10 C          -7.8914  -20.1022   22.6859 C.ar    1  UNL1        0.0045
     11 C         -11.4253  -18.4259   23.3579 C.ar    1  UNL1        0.0031
     12 C         -11.8572  -18.8581   24.7278 C.ar    1  UNL1        0.0207
     13 C         -13.2844  -18.6824   25.1545 C.ar    1  UNL1        0.0989
     14 N         -14.2799  -18.0745   24.2112 N.ar    1  UNL1       -0.2423
     15 C         -13.8479  -17.6423   22.8413 C.ar    1  UNL1        0.0989
     16 C         -12.4206  -17.8180   22.4147 C.ar    1  UNL1        0.0207
     17 C          -3.2831  -19.8672   22.1845 C.3     1  UNL1        0.1167
     18 C          -1.1731  -17.7179   19.6003 C.ar    1  UNL1        0.1385
     19 C          -1.0438  -16.4235   20.3471 C.ar    1  UNL1        0.0369
     20 C          -1.6609  -16.2770   21.7065 C.ar    1  UNL1        0.0028
     21 C          -2.4073  -17.4249   22.3189 C.ar    1  UNL1       -0.0024
     22 C          -2.5366  -18.7193   21.5721 C.ar    1  UNL1        0.0005
     23 C          -1.9196  -18.8657   20.2127 C.ar    1  UNL1        0.0343
     24 C          -1.4138  -17.7714   17.0139 C.3     1  UNL1        0.2525
     25 O          -0.5560  -17.8643   18.2410 O.3     1  UNL1       -0.4714
@<TRIPOS>BOND
     1    24    25    1
     2    25    18    1
     3    18    19   ar
     4    19    20   ar
     5    20    21   ar
     6    21    22   ar
     7    22    17    1
     8    17     1    1
     9     1     2   am
    10     2     3    2
    11     2     5    1
    12     5     6   ar
    13     6     7   ar
    14     7     8   ar
    15     8    11    1
    16    11    12   ar
    17    12    13   ar
    18    13    14   ar
    19    14    15   ar
    20    15    16   ar
    21     8     9   ar
    22     9    10   ar
    23    22    23   ar
    24    23    18   ar
    25    10     5   ar
    26    16    11   ar
    27     1     4    1
@<TRIPOS>MOLECULE
*****
 25 27 0 0 0
SMALL
GASTEIGER

@<TRIPOS>ATOM
      1 N          -0.5581    3.0288   20.1676 N.am    1  UNL1       -0.2969
      2 C           0.0971    2.3991   18.9741 C.2     1  UNL1        0.2461
      3 O          -0.1675    2.9407   17.6005 O.2     1  UNL1       -0.2701
      4 H          -0.3844    2.6733   21.0691 H       1  UNL1        0.1501
      5 C           1.0167    1.2279   19.1542 C.ar    1  UNL1        0.0534
      6 C           0.6760    0.1517   20.1419 C.ar    1  UNL1        0.0045
      7 C           1.5956   -1.0195   20.3220 C.ar    1  UNL1        0.0001
      8 C           2.8561   -1.1146   19.5143 C.ar    1  UNL1        0.0001
      9 C           3.1968   -0.0384   18.5266 C.ar    1  UNL1        0.0001
     10 C           2.2771    1.1329   18.3465 C.ar    1  UNL1        0.0045
     11 C           3.7757   -2.2858   19.6944 C.ar    1  UNL1        0.0031
     12 C           3.4555   -3.5981   19.0423 C.ar    1  UNL1        0.0207
     13 C           4.3751   -4.7693   19.2224 C.ar    1  UNL1        0.0989
     14 N           5.6151   -4.6282   20.0547 N.ar    1  UNL1       -0.2423
     15 C           5.9354   -3.3159   20.7068 C.ar    1  UNL1        0.0989
     16 C           5.0156   -2.1447   20.5267 C.ar    1  UNL1        0.0207
     17 C          -1.4777    4.2000   19.9875 C.3     1  UNL1        0.1167
     18 C          -5.2062    3.6455   21.2288 C.ar    1  UNL1        0.1385
     19 C          -5.9332    3.5725   19.9188 C.ar    1  UNL1        0.0369
     20 C          -5.1751    3.7088   18.6317 C.ar    1  UNL1        0.0028
     21 C          -3.6899    3.9179   18.6546 C.ar    1  UNL1       -0.0024
     22 C          -2.9629    3.9908   19.9646 C.ar    1  UNL1        0.0005
     23 C          -3.7211    3.8546   21.2517 C.ar    1  UNL1        0.0343
     24 C          -7.1573    4.3795   22.7794 C.3     1  UNL1        0.2525
     25 O          -5.9644    3.5092   22.5159 O.3     1  UNL1       -0.4714
@<TRIPOS>BOND
     1    24    25    1
     2    25    18    1
     3    18    19   ar
     4    19    20   ar
     5    20    21   ar
     6    21    22   ar
     7    22    17    1
     8    17     1    1
     9     1     2   am
    10     2     3    2
    11     2     5    1
    12     5     6   ar
    13     6     7   ar
    14     7     8   ar
    15     8    11    1
    16    11    12   ar
    17    12    13   ar
    18    13    14   ar
    19    14    15   ar
    20    15    16   ar
    21     8     9   ar
    22     9    10   ar
    23    22    23   ar
    24    23    18   ar
    25    10     5   ar
    26    16    11   ar
    27     1     4    1
@<TRIPOS>MOLECULE
*****
 25 27 0 0 0
SMALL
GASTEIGER

@<TRIPOS>ATOM
      1 N          -0.4662    3.0370   20.1408 N.am    1  UNL1       -0.2969
      2 C           0.1696    2.3844   18.9492 C.2     1  UNL1        0.2461
      3 O          -0.1091    2.9060   17.5707 O.2     1  UNL1       -0.2701
      4 H          -0.2833    2.6947   21.0455 H       1  UNL1        0.1501
      5 C           1.0840    1.2101   19.1361 C.ar    1  UNL1        0.0534
      6 C           2.3465    1.1073   18.3326 C.ar    1  UNL1        0.0045
      7 C           3.2609   -0.0670   18.5195 C.ar    1  UNL1        0.0001
      8 C           2.9129   -1.1384   19.5100 C.ar    1  UNL1        0.0001
      9 C           1.6504   -1.0356   20.3135 C.ar    1  UNL1        0.0001
     10 C           0.7360    0.1388   20.1265 C.ar    1  UNL1        0.0045
     11 C           3.8273   -2.3126   19.6969 C.ar    1  UNL1        0.0031
     12 C           5.0214   -2.1975   20.5973 C.ar    1  UNL1        0.0207
     13 C           5.9359   -3.3717   20.7842 C.ar    1  UNL1        0.0989
     14 N           5.6561   -4.6612   20.0707 N.ar    1  UNL1       -0.2423
     15 C           4.4620   -4.7764   19.1703 C.ar    1  UNL1        0.0989
     16 C           3.5476   -3.6021   18.9834 C.ar    1  UNL1        0.0207
     17 C          -1.3806    4.2113   19.9538 C.3     1  UNL1        0.1167
     18 C          -5.0970    3.6852   21.2430 C.ar    1  UNL1        0.1385
     19 C          -5.8403    3.6107   19.9423 C.ar    1  UNL1        0.0369
     20 C          -5.0971    3.7363   18.6454 C.ar    1  UNL1        0.0028
     21 C          -3.6105    3.9365   18.6493 C.ar    1  UNL1       -0.0024
     22 C          -2.8672    4.0111   19.9500 C.ar    1  UNL1        0.0005
     23 C          -3.6104    3.8854   21.2468 C.ar    1  UNL1        0.0343
     24 C          -5.0838    3.4041   23.8257 C.3     1  UNL1        0.2525
     25 O          -5.8402    3.5596   22.5398 O.3     1  UNL1       -0.4714
@<TRIPOS>BOND
     1    24    25    1
     2    25    18    1
     3    18    19   ar
     4    19    20   ar
     5    20    21   ar
     6    21    22   ar
     7    22    17    1
     8    17     1    1
     9     1     2   am
    10     2     3    2
    11     2     5    1
    12     5     6   ar
    13     6     7   ar
    14     7     8   ar
    15     8    11    1
    16    11    12   ar
    17    12    13   ar
    18    13    14   ar
    19    14    15   ar
    20    15    16   ar
    21     8     9   ar
    22     9    10   ar
    23    22    23   ar
    24    23    18   ar
    25    10     5   ar
    26    16    11   ar
    27     1     4    1
@<TRIPOS>MOLECULE
*****
 25 27 0 0 0
SMALL
GASTEIGER

@<TRIPOS>ATOM
      1 N          -1.6067    2.4673   20.8572 N.am    1  UNL1       -0.2969
      2 C          -0.2016    2.5441   21.3767 C.2     1  UNL1        0.2461
      3 O           0.2746    3.7857   22.0708 O.2     1  UNL1       -0.2701
      4 H          -1.9192    1.6525   20.4016 H       1  UNL1        0.1501
      5 C           0.7273    1.3794   21.2020 C.ar    1  UNL1        0.0534
      6 C           2.0379    1.3493   21.9311 C.ar    1  UNL1        0.0045
      7 C           2.9668    0.1846   21.7564 C.ar    1  UNL1        0.0001
      8 C           2.5852   -0.9500   20.8525 C.ar    1  UNL1        0.0001
      9 C           1.2747   -0.9200   20.1234 C.ar    1  UNL1        0.0001
     10 C           0.3457    0.2448   20.2981 C.ar    1  UNL1        0.0045
     11 C           3.5141   -2.1147   20.6778 C.ar    1  UNL1        0.0031
     12 C           4.3627   -2.5759   21.8255 C.ar    1  UNL1        0.0207
     13 C           5.2916   -3.7406   21.6508 C.ar    1  UNL1        0.0989
     14 N           5.3719   -4.4442   20.3284 N.ar    1  UNL1       -0.2423
     15 C           4.5232   -3.9830   19.1808 C.ar    1  UNL1        0.0989
     16 C           3.5943   -2.8183   19.3555 C.ar    1  UNL1        0.0207
     17 C          -2.5356    3.6320   21.0319 C.3     1  UNL1        0.1167
     18 C          -5.8455    3.8825   23.2072 C.ar    1  UNL1        0.1385
     19 C          -5.2795    3.8071   24.5942 C.ar    1  UNL1        0.0369
     20 C          -3.7988    3.6734   24.7938 C.ar    1  UNL1        0.0028
     21 C          -2.8842    3.6151   23.6064 C.ar    1  UNL1       -0.0024
     22 C          -3.4502    3.6904   22.2194 C.ar    1  UNL1        0.0005
     23 C          -4.9309    3.8241   22.0198 C.ar    1  UNL1        0.0343
     24 C          -8.1123    4.9785   23.8477 C.3     1  UNL1        0.2525
     25 O          -7.3261    4.0162   23.0076 O.3     1  UNL1       -0.4714
@<TRIPOS>BOND
     1    24    25    1
     2    25    18    1
     3    18    19   ar
     4    19    20   ar
     5    20    21   ar
     6    21    22   ar
     7    22    17    1
     8    17     1    1
     9     1     2   am
    10     2     3    2
    11     2     5    1
    12     5     6   ar
    13     6     7   ar
    14     7     8   ar
    15     8    11    1
    16    11    12   ar
    17    12    13   ar
    18    13    14   ar
    19    14    15   ar
    20    15    16   ar
    21     8     9   ar
    22     9    10   ar
    23    22    23   ar
    24    23    18   ar
    25    10     5   ar
    26    16    11   ar
    27     1     4    1
@<TRIPOS>MOLECULE
*****
 25 27 0 0 0
SMALL
GASTEIGER

@<TRIPOS>ATOM
      1 N          -1.7710    2.4414   20.8938 N.am    1  UNL1       -0.2969
      2 C          -0.3454    2.5659   21.3437 C.2     1  UNL1        0.2461
      3 O           0.1437    3.8533   21.9381 O.2     1  UNL1       -0.2701
      4 H          -2.0921    1.5964   20.5037 H       1  UNL1        0.1501
      5 C           0.5909    1.4030   21.1991 C.ar    1  UNL1        0.0534
      6 C           0.5517    0.5580   19.9604 C.ar    1  UNL1        0.0045
      7 C           1.4881   -0.6048   19.8158 C.ar    1  UNL1        0.0001
      8 C           2.4637   -0.9227   20.9100 C.ar    1  UNL1        0.0001
      9 C           2.5029   -0.0777   22.1487 C.ar    1  UNL1        0.0001
     10 C           1.5665    1.0852   22.2932 C.ar    1  UNL1        0.0045
     11 C           3.4001   -2.0856   20.7654 C.ar    1  UNL1        0.0031
     12 C           3.4977   -2.8117   19.4565 C.ar    1  UNL1        0.0207
     13 C           4.4341   -3.9745   19.3119 C.ar    1  UNL1        0.0989
     14 N           5.2729   -4.4113   20.4763 N.ar    1  UNL1       -0.2423
     15 C           5.1753   -3.6852   21.7852 C.ar    1  UNL1        0.0989
     16 C           4.2388   -2.5223   21.9297 C.ar    1  UNL1        0.0207
     17 C          -2.7074    3.6042   21.0384 C.3     1  UNL1        0.1167
     18 C          -5.9656    3.9684   23.2748 C.ar    1  UNL1        0.1385
     19 C          -5.3724    3.9114   24.6513 C.ar    1  UNL1        0.0369
     20 C          -3.8909    3.7521   24.8236 C.ar    1  UNL1        0.0028
     21 C          -3.0025    3.6496   23.6193 C.ar    1  UNL1       -0.0024
     22 C          -3.5957    3.7066   22.2428 C.ar    1  UNL1        0.0005
     23 C          -5.0773    3.8660   22.0706 C.ar    1  UNL1        0.0343
     24 C          -8.1763    5.2089   23.8439 C.3     1  UNL1        0.2525
     25 O          -7.4471    4.1278   23.1026 O.3     1  UNL1       -0.4714
@<TRIPOS>BOND
     1    24    25    1
     2    25    18    1
     3    18    19   ar
     4    19    20   ar
     5    20    21   ar
     6    21    22   ar
     7    22    17    1
     8    17     1    1
     9     1     2   am
    10     2     3    2
    11     2     5    1
    12     5     6   ar
    13     6     7   ar
    14     7     8   ar
    15     8    11    1
    16    11    12   ar
    17    12    13   ar
    18    13    14   ar
    19    14    15   ar
    20    15    16   ar
    21     8     9   ar
    22     9    10   ar
    23    22    23   ar
    24    23    18   ar
    25    10     5   ar
    26    16    11   ar
    27     1     4    1
@<TRIPOS>MOLECULE
*****
 25 27 0 0 0
SMALL
GASTEIGER

@<TRIPOS>ATOM
      1 N           6.0848   -4.1492   25.3165 N.am    1  UNL1       -0.2969
      2 C           6.2004   -4.2448   23.8240 C.2     1  UNL1        0.2461
      3 O           7.1997   -5.1783   23.2074 O.2     1  UNL1       -0.2701
      4 H           5.4290   -3.5366   25.7212 H       1  UNL1        0.1501
      5 C           5.3169   -3.4069   22.9482 C.ar    1  UNL1        0.0534
      6 C           5.2292   -3.6931   21.4783 C.ar    1  UNL1        0.0045
      7 C           4.3457   -2.8552   20.6025 C.ar    1  UNL1        0.0001
      8 C           3.5497   -1.7310   21.1964 C.ar    1  UNL1        0.0001
      9 C           3.6373   -1.4448   22.6663 C.ar    1  UNL1        0.0001
     10 C           4.5209   -2.2828   23.5421 C.ar    1  UNL1        0.0045
     11 C           2.6661   -0.8931   20.3206 C.ar    1  UNL1        0.0031
     12 C           3.1331   -0.4859   18.9545 C.ar    1  UNL1        0.0207
     13 C           2.2495    0.3520   18.0787 C.ar    1  UNL1        0.0989
     14 N           0.8989    0.7828   18.5689 N.ar    1  UNL1       -0.2423
     15 C           0.4319    0.3756   19.9349 C.ar    1  UNL1        0.0989
     16 C           1.3155   -0.4624   20.8108 C.ar    1  UNL1        0.0207
     17 C           6.9684   -4.9871   26.1924 C.3     1  UNL1        0.1167
     18 C           6.5148   -3.3160   29.7633 C.ar    1  UNL1        0.1385
     19 C           6.8484   -4.4705   30.6610 C.ar    1  UNL1        0.0369
     20 C           7.2219   -5.7972   30.0692 C.ar    1  UNL1        0.0028
     21 C           7.2620   -5.9694   28.5797 C.ar    1  UNL1       -0.0024
     22 C           6.9284   -4.8149   27.6820 C.ar    1  UNL1        0.0005
     23 C           6.5548   -3.4882   28.2738 C.ar    1  UNL1        0.0343
     24 C           5.4268   -1.9302   31.6728 C.3     1  UNL1        0.2525
     25 O           6.1412   -1.9893   30.3552 O.3     1  UNL1       -0.4714
@<TRIPOS>BOND
     1    24    25    1
     2    25    18    1
     3    18    19   ar
     4    19    20   ar
     5    20    21   ar
     6    21    22   ar
     7    22    17    1
     8    17     1    1
     9     1     2   am
    10     2     3    2
    11     2     5    1
    12     5     6   ar
    13     6     7   ar
    14     7     8   ar
    15     8    11    1
    16    11    12   ar
    17    12    13   ar
    18    13    14   ar
    19    14    15   ar
    20    15    16   ar
    21     8     9   ar
    22     9    10   ar
    23    22    23   ar
    24    23    18   ar
    25    10     5   ar
    26    16    11   ar
    27     1     4    1
@<TRIPOS>MOLECULE
*****
 25 27 0 0 0
SMALL
GASTEIGER

@<TRIPOS>ATOM
      1 N           6.4716   -3.6177   23.1087 N.am    1  UNL1       -0.2969
      2 C           5.5836   -3.5755   21.9005 C.2     1  UNL1        0.2461
      3 O           5.7766   -4.5685   20.7929 O.2     1  UNL1       -0.2701
      4 H           6.3450   -2.9660   23.8356 H       1  UNL1        0.1501
      5 C           4.5027   -2.5404   21.7999 C.ar    1  UNL1        0.0534
      6 C           3.8400   -2.2738   20.4809 C.ar    1  UNL1        0.0045
      7 C           2.7591   -1.2387   20.3803 C.ar    1  UNL1        0.0001
      8 C           2.3409   -0.4702   21.5987 C.ar    1  UNL1        0.0001
      9 C           3.0036   -0.7368   22.9177 C.ar    1  UNL1        0.0001
     10 C           4.0845   -1.7720   23.0182 C.ar    1  UNL1        0.0045
     11 C           1.2599    0.5649   21.4981 C.ar    1  UNL1        0.0031
     12 C           0.8860    1.3782   22.7017 C.ar    1  UNL1        0.0207
     13 C          -0.1949    2.4133   22.6011 C.ar    1  UNL1        0.0989
     14 N          -0.9019    2.6352   21.2969 N.ar    1  UNL1       -0.2423
     15 C          -0.5280    1.8218   20.0933 C.ar    1  UNL1        0.0989
     16 C           0.5530    0.7867   20.1939 C.ar    1  UNL1        0.0207
     17 C           7.5525   -4.6528   23.2093 C.3     1  UNL1        0.1167
     18 C           6.9943   -6.1367   26.8475 C.ar    1  UNL1        0.1385
     19 C           7.6381   -7.4841   26.7059 C.ar    1  UNL1        0.0369
     20 C           8.2533   -7.8877   25.3988 C.ar    1  UNL1        0.0028
     21 C           8.2248   -6.9440   24.2333 C.ar    1  UNL1       -0.0024
     22 C           7.5811   -5.5966   24.3749 C.ar    1  UNL1        0.0005
     23 C           6.9658   -5.1929   25.6820 C.ar    1  UNL1        0.0343
     24 C           7.2055   -5.7396   29.4063 C.3     1  UNL1        0.2525
     25 O           6.3791   -5.7330   28.1546 O.3     1  UNL1       -0.4714
@<TRIPOS>BOND
     1    24    25    1
     2    25    18    1
     3    18    19   ar
     4    19    20   ar
     5    20    21   ar
     6    21    22   ar
     7    22    17    1
     8    17     1    1
     9     1     2   am
    10     2     3    2
    11     2     5    1
    12     5     6   ar
    13     6     7   ar
    14     7     8   ar
    15     8    11    1
    16    11    12   ar
    17    12    13   ar
    18    13    14   ar
    19    14    15   ar
    20    15    16   ar
    21     8     9   ar
    22     9    10   ar
    23    22    23   ar
    24    23    18   ar
    25    10     5   ar
    26    16    11   ar
    27     1     4    1
@<TRIPOS>MOLECULE
*****
 25 27 0 0 0
SMALL
GASTEIGER

@<TRIPOS>ATOM
      1 N           0.3280    0.7128   25.6787 N.am    1  UNL1       -0.2969
      2 C           0.3507    1.4776   24.3885 C.2     1  UNL1        0.2461
      3 O          -0.3376    2.8069   24.2925 O.2     1  UNL1       -0.2701
      4 H           0.7798   -0.1597   25.7417 H       1  UNL1        0.1501
      5 C           1.0617    0.9132   23.1944 C.ar    1  UNL1        0.0534
      6 C           0.4816    1.0913   21.8227 C.ar    1  UNL1        0.0045
      7 C           1.1926    0.5269   20.6286 C.ar    1  UNL1        0.0001
      8 C           2.4838   -0.2157   20.8062 C.ar    1  UNL1        0.0001
      9 C           3.0639   -0.3938   22.1780 C.ar    1  UNL1        0.0001
     10 C           2.3528    0.1707   23.3721 C.ar    1  UNL1        0.0045
     11 C           3.1947   -0.7801   19.6121 C.ar    1  UNL1        0.0031
     12 C           3.9853   -2.0484   19.7402 C.ar    1  UNL1        0.0207
     13 C           4.6963   -2.6128   18.5462 C.ar    1  UNL1        0.0989
     14 N           4.6167   -1.9090   17.2239 N.ar    1  UNL1       -0.2423
     15 C           3.8262   -0.6407   17.0958 C.ar    1  UNL1        0.0989
     16 C           3.1151   -0.0763   18.2900 C.ar    1  UNL1        0.0207
     17 C          -0.3830    1.2772   26.8728 C.3     1  UNL1        0.1167
     18 C           1.6512    0.3195   30.1431 C.ar    1  UNL1        0.1385
     19 C           1.7752    1.6609   30.8028 C.ar    1  UNL1        0.0369
     20 C           1.1798    2.8744   30.1525 C.ar    1  UNL1        0.0028
     21 C           0.4605    2.7465   28.8425 C.ar    1  UNL1       -0.0024
     22 C           0.3364    1.4051   28.1828 C.ar    1  UNL1        0.0005
     23 C           0.9318    0.1916   28.8331 C.ar    1  UNL1        0.0343
     24 C           3.4469   -0.7559   31.6823 C.3     1  UNL1        0.2525
     25 O           2.2465   -0.8940   30.7934 O.3     1  UNL1       -0.4714
@<TRIPOS>BOND
     1    24    25    1
     2    25    18    1
     3    18    19   ar
     4    19    20   ar
     5    20    21   ar
     6    21    22   ar
     7    22    17    1
     8    17     1    1
     9     1     2   am
    10     2     3    2
    11     2     5    1
    12     5     6   ar
    13     6     7   ar
    14     7     8   ar
    15     8    11    1
    16    11    12   ar
    17    12    13   ar
    18    13    14   ar
    19    14    15   ar
    20    15    16   ar
    21     8     9   ar
    22     9    10   ar
    23    22    23   ar
    24    23    18   ar
    25    10     5   ar
    26    16    11   ar
    27     1     4    1
@<TRIPOS>MOLECULE
*****
 25 27 0 0 0
SMALL
GASTEIGER

@<TRIPOS>ATOM
      1 N         -15.6156    0.5226   19.3749 N.am    1  UNL1       -0.2969
      2 C         -14.2001    0.4408   18.8852 C.2     1  UNL1        0.2461
      3 O         -13.4930    1.6809   18.4246 O.2     1  UNL1       -0.2701
      4 H         -16.0797   -0.2913   19.6772 H       1  UNL1        0.1501
      5 C         -13.4917   -0.8810   18.8562 C.ar    1  UNL1        0.0534
      6 C         -12.0891   -0.9689   18.3318 C.ar    1  UNL1        0.0045
      7 C         -11.3807   -2.2908   18.3028 C.ar    1  UNL1        0.0001
      8 C         -12.0750   -3.5248   18.7981 C.ar    1  UNL1        0.0001
      9 C         -13.4776   -3.4369   19.3225 C.ar    1  UNL1        0.0001
     10 C         -14.1859   -2.1150   19.3515 C.ar    1  UNL1        0.0045
     11 C         -11.3666   -4.8467   18.7691 C.ar    1  UNL1        0.0031
     12 C          -9.9223   -4.9324   19.1648 C.ar    1  UNL1        0.0207
     13 C          -9.2139   -6.2543   19.1358 C.ar    1  UNL1        0.0989
     14 N          -9.9499   -7.4904   18.7110 N.ar    1  UNL1       -0.2423
     15 C         -11.3942   -7.4047   18.3152 C.ar    1  UNL1        0.0989
     16 C         -12.1025   -6.0827   18.3443 C.ar    1  UNL1        0.0207
     17 C         -16.3240    1.8445   19.4039 C.3     1  UNL1        0.1167
     18 C         -17.6938    2.4891   23.0725 C.ar    1  UNL1        0.1385
     19 C         -17.1574    3.8645   23.3377 C.ar    1  UNL1        0.0369
     20 C         -16.3432    4.5667   22.2917 C.ar    1  UNL1        0.0028
     21 C         -16.0654    3.8933   20.9805 C.ar    1  UNL1       -0.0024
     22 C         -16.6018    2.5179   20.7152 C.ar    1  UNL1        0.0005
     23 C         -17.4160    1.8158   21.7612 C.ar    1  UNL1        0.0343
     24 C         -19.9652    2.1066   24.2742 C.3     1  UNL1        0.2525
     25 O         -18.5080    1.7870   24.1185 O.3     1  UNL1       -0.4714
@<TRIPOS>BOND
     1    24    25    1
     2    25    18    1
     3    18    19   ar
     4    19    20   ar
     5    20    21   ar
     6    21    22   ar
     7    22    17    1
     8    17     1    1
     9     1     2   am
    10     2     3    2
    11     2     5    1
    12     5     6   ar
    13     6     7   ar
    14     7     8   ar
    15     8    11    1
    16    11    12   ar
    17    12    13   ar
    18    13    14   ar
    19    14    15   ar
    20    15    16   ar
    21     8     9   ar
    22     9    10   ar
    23    22    23   ar
    24    23    18   ar
    25    10     5   ar
    26    16    11   ar
    27     1     4    1
