@<TRIPOS>MOLECULE
*****
 27 30 0 0 0
SMALL
GASTEIGER

@<TRIPOS>ATOM
      1 C          -8.4450  -17.1425   23.9738 C.2     1  UNL1       -0.0246
      2 C          -7.2815  -17.2366   23.0319 C.2     1  UNL1       -0.0421
      3 C          -6.1264  -16.5040   23.6475 C.3     1  UNL1        0.0480
      4 C          -6.5760  -15.9570   24.9699 C.ar    1  UNL1       -0.0184
      5 C          -5.8657  -15.1507   26.0164 C.ar    1  UNL1       -0.0040
      6 C          -6.5885  -14.7390   27.2646 C.ar    1  UNL1       -0.0003
      7 C          -8.0215  -15.1336   27.4663 C.ar    1  UNL1       -0.0000
      8 C          -8.7318  -15.9399   26.4198 C.ar    1  UNL1       -0.0006
      9 C          -8.0090  -16.3517   25.1716 C.ar    1  UNL1       -0.0079
     10 C         -10.3269  -18.7818   24.6960 C.3     1  UNL1        0.0111
     11 C          -9.8057  -17.7351   23.7563 C.3     1  UNL1        0.0634
     12 C         -10.6452  -17.2812   22.5991 C.ar    1  UNL1        0.0818
     13 C         -11.9366  -17.9790   22.2900 C.ar    1  UNL1        0.1139
     14 N         -12.7760  -17.5251   21.1328 N.ar    1  UNL1       -0.2394
     15 C         -12.3243  -16.3734   20.2846 C.ar    1  UNL1        0.1195
     16 C         -11.0329  -15.6755   20.5937 C.ar    1  UNL1        0.1191
     17 N         -10.1934  -16.1295   21.7509 N.ar    1  UNL1       -0.2446
     18 C          -7.2743  -17.9399   21.7070 C.3     1  UNL1        0.0394
     19 C          -7.1123  -19.4300   21.6497 C.3     1  UNL1        0.0769
     20 N          -5.7943  -20.0265   21.2535 N.3     1  UNL1       -0.2634
     21 C          -5.7468  -21.1433   20.2532 C.3     1  UNL1        0.0900
     22 C          -4.5237  -19.5062   21.8575 C.3     1  UNL1        0.1587
     23 C          -3.4283  -18.9907   20.9719 C.ar    1  UNL1        0.2223
     24 N          -1.9597  -19.2375   21.1514 N.ar    1  UNL1       -0.2092
     25 C          -1.2329  -18.5373   20.0416 C.ar    1  UNL1        0.1424
     26 C          -2.2524  -17.8577   19.1763 C.ar    1  UNL1        0.2018
     27 O          -3.6092  -18.1380   19.7512 O.2     1  UNL1       -0.4338
@<TRIPOS>BOND
     1    11    10    1
     2    11     1    1
     3     1     2    2
     4     2    18    1
     5    18    19    1
     6    19    20    1
     7    20    21    1
     8    20    22    1
     9    22    23    1
    10    23    24   ar
    11    24    25   ar
    12    25    26   ar
    13    26    27   ar
    14     2     3    1
    15     3     4    1
    16     4     5   ar
    17     5     6   ar
    18     6     7   ar
    19     7     8   ar
    20     8     9   ar
    21    11    12    1
    22    12    13   ar
    23    13    14   ar
    24    14    15   ar
    25    15    16   ar
    26    16    17   ar
    27     9     1    1
    28    17    12   ar
    29    27    23   ar
    30     9     4   ar
@<TRIPOS>MOLECULE
*****
 27 30 0 0 0
SMALL
GASTEIGER

@<TRIPOS>ATOM
      1 C          -8.6312  -17.0582   22.5739 C.2     1  UNL1       -0.0246
      2 C          -7.9994  -18.3720   22.2206 C.2     1  UNL1       -0.0421
      3 C          -9.0939  -19.3267   21.8458 C.3     1  UNL1        0.0480
      4 C         -10.4021  -18.6030   21.9674 C.ar    1  UNL1       -0.0184
      5 C         -11.8168  -19.0395   21.7264 C.ar    1  UNL1       -0.0040
      6 C         -12.9455  -18.0740   21.9355 C.ar    1  UNL1       -0.0003
      7 C         -12.6595  -16.6720   22.3856 C.ar    1  UNL1       -0.0000
      8 C         -11.2448  -16.2355   22.6265 C.ar    1  UNL1       -0.0006
      9 C         -10.1162  -17.2010   22.4174 C.ar    1  UNL1       -0.0079
     10 C          -7.5872  -14.7475   22.0074 C.3     1  UNL1        0.0111
     11 C          -7.9054  -15.8192   23.0076 C.3     1  UNL1        0.0634
     12 C          -7.4979  -15.6517   24.4414 C.ar    1  UNL1        0.0818
     13 C          -8.5348  -15.6864   25.5248 C.ar    1  UNL1        0.1139
     14 N          -8.1272  -15.5189   26.9586 N.ar    1  UNL1       -0.2394
     15 C          -6.6828  -15.3167   27.3091 C.ar    1  UNL1        0.1195
     16 C          -5.6459  -15.2820   26.2257 C.ar    1  UNL1        0.1191
     17 N          -6.0535  -15.4495   24.7919 N.ar    1  UNL1       -0.2446
     18 C          -6.5309  -18.6774   22.2390 C.3     1  UNL1        0.0394
     19 C          -6.0076  -19.8879   21.5243 C.3     1  UNL1        0.0769
     20 N          -4.5630  -19.9580   21.1268 N.3     1  UNL1       -0.2634
     21 C          -4.1607  -20.7069   19.8908 C.3     1  UNL1        0.0900
     22 C          -3.5206  -19.2794   21.9651 C.3     1  UNL1        0.1587
     23 C          -2.4302  -18.4857   21.3087 C.ar    1  UNL1        0.2223
     24 N          -2.3824  -16.9920   21.1795 N.ar    1  UNL1       -0.2092
     25 C          -1.1187  -16.6294   20.4572 C.ar    1  UNL1        0.1424
     26 C          -0.3855  -17.8989   20.1400 C.ar    1  UNL1        0.2018
     27 O          -1.1960  -19.0462   20.6663 O.2     1  UNL1       -0.4338
@<TRIPOS>BOND
     1    11    10    1
     2    11     1    1
     3     1     2    2
     4     2    18    1
     5    18    19    1
     6    19    20    1
     7    20    21    1
     8    20    22    1
     9    22    23    1
    10    23    24   ar
    11    24    25   ar
    12    25    26   ar
    13    26    27   ar
    14     2     3    1
    15     3     4    1
    16     4     5   ar
    17     5     6   ar
    18     6     7   ar
    19     7     8   ar
    20     8     9   ar
    21    11    12    1
    22    12    13   ar
    23    13    14   ar
    24    14    15   ar
    25    15    16   ar
    26    16    17   ar
    27     9     1    1
    28    17    12   ar
    29    27    23   ar
    30     9     4   ar
@<TRIPOS>MOLECULE
*****
 27 30 0 0 0
SMALL
GASTEIGER

@<TRIPOS>ATOM
      1 C          -9.7119  -18.4954   22.8516 C.2     1  UNL1       -0.0246
      2 C          -8.7774  -19.0816   21.8353 C.2     1  UNL1       -0.0421
      3 C          -9.2435  -18.6529   20.4755 C.3     1  UNL1        0.0480
      4 C         -10.4660  -17.8017   20.6515 C.ar    1  UNL1       -0.0184
      5 C         -11.3529  -17.1027   19.6642 C.ar    1  UNL1       -0.0040
      6 C         -12.5294  -16.3064   20.1455 C.ar    1  UNL1       -0.0003
      7 C         -12.8189  -16.2090   21.6141 C.ar    1  UNL1       -0.0000
      8 C         -11.9320  -16.9080   22.6013 C.ar    1  UNL1       -0.0006
      9 C         -10.7555  -17.7044   22.1200 C.ar    1  UNL1       -0.0079
     10 C         -10.0840  -19.9461   24.9747 C.3     1  UNL1        0.0111
     11 C          -9.6192  -18.6696   24.3386 C.3     1  UNL1        0.0634
     12 C          -9.0616  -17.5674   25.1895 C.ar    1  UNL1        0.0818
     13 C          -8.5342  -16.3182   24.5481 C.ar    1  UNL1        0.1139
     14 N          -7.9766  -15.2160   25.3991 N.ar    1  UNL1       -0.2394
     15 C          -7.9464  -15.3629   26.8916 C.ar    1  UNL1        0.1195
     16 C          -8.4738  -16.6120   27.5331 C.ar    1  UNL1        0.1191
     17 N          -9.0314  -17.7142   26.6821 N.ar    1  UNL1       -0.2446
     18 C          -7.5861  -19.9450   22.1274 C.3     1  UNL1        0.0394
     19 C          -6.2298  -19.3237   22.2831 C.3     1  UNL1        0.0769
     20 N          -5.0721  -19.8389   21.4804 N.3     1  UNL1       -0.2634
     21 C          -5.3170  -20.7199   20.2913 C.3     1  UNL1        0.0900
     22 C          -3.6697  -19.4732   21.8667 C.3     1  UNL1        0.1587
     23 C          -2.7549  -18.8412   20.8598 C.ar    1  UNL1        0.2223
     24 N          -3.1637  -17.8998   19.7658 N.ar    1  UNL1       -0.2092
     25 C          -1.9322  -17.5165   18.9999 C.ar    1  UNL1        0.1424
     26 C          -0.7624  -18.2210   19.6205 C.ar    1  UNL1        0.2018
     27 O          -1.2709  -19.0397   20.7699 O.2     1  UNL1       -0.4338
@<TRIPOS>BOND
     1    11    10    1
     2    11     1    1
     3     1     2    2
     4     2    18    1
     5    18    19    1
     6    19    20    1
     7    20    21    1
     8    20    22    1
     9    22    23    1
    10    23    24   ar
    11    24    25   ar
    12    25    26   ar
    13    26    27   ar
    14     2     3    1
    15     3     4    1
    16     4     5   ar
    17     5     6   ar
    18     6     7   ar
    19     7     8   ar
    20     8     9   ar
    21    11    12    1
    22    12    13   ar
    23    13    14   ar
    24    14    15   ar
    25    15    16   ar
    26    16    17   ar
    27     9     1    1
    28    17    12   ar
    29    27    23   ar
    30     9     4   ar
@<TRIPOS>MOLECULE
*****
 27 30 0 0 0
SMALL
GASTEIGER

@<TRIPOS>ATOM
      1 C          -6.0788  -18.8420   21.4211 C.2     1  UNL1       -0.0246
      2 C          -7.5376  -18.7925   21.0755 C.2     1  UNL1       -0.0421
      3 C          -8.1865  -17.7618   21.9510 C.3     1  UNL1        0.0480
      4 C          -7.1288  -17.1742   22.8375 C.ar    1  UNL1       -0.0184
      5 C          -7.1836  -16.1175   23.9007 C.ar    1  UNL1       -0.0040
      6 C          -5.9356  -15.7284   24.6363 C.ar    1  UNL1       -0.0003
      7 C          -4.6329  -16.3960   24.3088 C.ar    1  UNL1       -0.0000
      8 C          -4.5782  -17.4527   23.2457 C.ar    1  UNL1       -0.0006
      9 C          -5.8261  -17.8418   22.5100 C.ar    1  UNL1       -0.0079
     10 C          -5.3673  -21.1804   20.5402 C.3     1  UNL1        0.0111
     11 C          -5.0527  -19.7349   20.7887 C.3     1  UNL1        0.0634
     12 C          -3.7121  -19.1824   20.4048 C.ar    1  UNL1        0.0818
     13 C          -2.4711  -19.6903   21.0770 C.ar    1  UNL1        0.1139
     14 N          -1.1304  -19.1378   20.6930 N.ar    1  UNL1       -0.2394
     15 C          -1.0308  -18.0774   19.6368 C.ar    1  UNL1        0.1195
     16 C          -2.2718  -17.5695   18.9645 C.ar    1  UNL1        0.1191
     17 N          -3.6124  -18.1220   19.3485 N.ar    1  UNL1       -0.2446
     18 C          -8.2265  -19.6273   20.0370 C.3     1  UNL1        0.0394
     19 C          -9.4348  -19.0936   19.3263 C.3     1  UNL1        0.0769
     20 N         -10.6932  -18.8135   20.0932 N.3     1  UNL1       -0.2634
     21 C         -11.4098  -17.5088   19.9078 C.3     1  UNL1        0.0900
     22 C         -11.2350  -19.8381   21.0453 C.3     1  UNL1        0.1587
     23 C         -11.0072  -19.6860   22.5201 C.ar    1  UNL1        0.2223
     24 N         -11.7864  -18.7995   23.4458 N.ar    1  UNL1       -0.2092
     25 C         -11.2211  -18.9593   24.8259 C.ar    1  UNL1        0.1424
     26 C         -10.0925  -19.9447   24.7533 C.ar    1  UNL1        0.2018
     27 O          -9.9603  -20.3938   23.3282 O.2     1  UNL1       -0.4338
@<TRIPOS>BOND
     1    11    10    1
     2    11     1    1
     3     1     2    2
     4     2    18    1
     5    18    19    1
     6    19    20    1
     7    20    21    1
     8    20    22    1
     9    22    23    1
    10    23    24   ar
    11    24    25   ar
    12    25    26   ar
    13    26    27   ar
    14     2     3    1
    15     3     4    1
    16     4     5   ar
    17     5     6   ar
    18     6     7   ar
    19     7     8   ar
    20     8     9   ar
    21    11    12    1
    22    12    13   ar
    23    13    14   ar
    24    14    15   ar
    25    15    16   ar
    26    16    17   ar
    27     9     1    1
    28    17    12   ar
    29    27    23   ar
    30     9     4   ar
@<TRIPOS>MOLECULE
*****
 27 30 0 0 0
SMALL
GASTEIGER

@<TRIPOS>ATOM
      1 C          -3.9279  -18.2130   22.2293 C.2     1  UNL1       -0.0246
      2 C          -4.7196  -19.3158   21.5913 C.2     1  UNL1       -0.0421
      3 C          -4.0955  -19.6259   20.2631 C.3     1  UNL1        0.0480
      4 C          -2.9181  -18.7147   20.0801 C.ar    1  UNL1       -0.0184
      5 C          -1.9269  -18.5674   18.9640 C.ar    1  UNL1       -0.0040
      6 C          -0.8321  -17.5468   19.0631 C.ar    1  UNL1       -0.0003
      7 C          -0.7286  -16.6735   20.2783 C.ar    1  UNL1       -0.0000
      8 C          -1.7198  -16.8209   21.3944 C.ar    1  UNL1       -0.0006
      9 C          -2.8145  -17.8415   21.2953 C.ar    1  UNL1       -0.0079
     10 C          -3.3100  -17.8978   24.7331 C.3     1  UNL1        0.0111
     11 C          -4.2016  -17.5908   23.5664 C.3     1  UNL1        0.0634
     12 C          -5.3667  -16.6617   23.7371 C.ar    1  UNL1        0.0818
     13 C          -5.3586  -15.6429   24.8380 C.ar    1  UNL1        0.1139
     14 N          -6.5238  -14.7138   25.0086 N.ar    1  UNL1       -0.2394
     15 C          -7.6971  -14.8034   24.0783 C.ar    1  UNL1        0.1195
     16 C          -7.7052  -15.8223   22.9774 C.ar    1  UNL1        0.1191
     17 N          -6.5401  -16.7514   22.8068 N.ar    1  UNL1       -0.2446
     18 C          -5.9240  -19.9901   22.1785 C.3     1  UNL1        0.0394
     19 C          -7.1285  -20.2516   21.3237 C.3     1  UNL1        0.0769
     20 N          -8.4188  -19.5416   21.6086 N.3     1  UNL1       -0.2634
     21 C          -8.9203  -19.4342   23.0183 C.3     1  UNL1        0.0900
     22 C          -9.2076  -18.9392   20.4840 C.3     1  UNL1        0.1587
     23 C         -10.4331  -18.1261   20.7787 C.ar    1  UNL1        0.2223
     24 N         -10.5480  -16.6343   20.6721 N.ar    1  UNL1       -0.2092
     25 C         -11.9448  -16.2481   21.0594 C.ar    1  UNL1        0.1424
     26 C         -12.6931  -17.5013   21.4053 C.ar    1  UNL1        0.2018
     27 O         -11.7588  -18.6619   21.2319 O.2     1  UNL1       -0.4338
@<TRIPOS>BOND
     1    11    10    1
     2    11     1    1
     3     1     2    2
     4     2    18    1
     5    18    19    1
     6    19    20    1
     7    20    21    1
     8    20    22    1
     9    22    23    1
    10    23    24   ar
    11    24    25   ar
    12    25    26   ar
    13    26    27   ar
    14     2     3    1
    15     3     4    1
    16     4     5   ar
    17     5     6   ar
    18     6     7   ar
    19     7     8   ar
    20     8     9   ar
    21    11    12    1
    22    12    13   ar
    23    13    14   ar
    24    14    15   ar
    25    15    16   ar
    26    16    17   ar
    27     9     1    1
    28    17    12   ar
    29    27    23   ar
    30     9     4   ar
@<TRIPOS>MOLECULE
*****
 27 30 0 0 0
SMALL
GASTEIGER

@<TRIPOS>ATOM
      1 C          -5.8714  -19.4472   20.9866 C.2     1  UNL1       -0.0246
      2 C          -5.7296  -18.8467   22.3539 C.2     1  UNL1       -0.0421
      3 C          -7.0786  -18.3527   22.7853 C.3     1  UNL1        0.0480
      4 C          -8.0541  -18.6479   21.6847 C.ar    1  UNL1       -0.0184
      5 C          -9.5254  -18.3881   21.5512 C.ar    1  UNL1       -0.0040
      6 C         -10.2505  -18.8047   20.3060 C.ar    1  UNL1       -0.0003
      7 C          -9.5044  -19.4811   19.1943 C.ar    1  UNL1       -0.0000
      8 C          -8.0332  -19.7409   19.3278 C.ar    1  UNL1       -0.0006
      9 C          -7.3080  -19.3243   20.5730 C.ar    1  UNL1       -0.0079
     10 C          -4.9288  -21.4486   19.6241 C.3     1  UNL1        0.0111
     11 C          -4.7699  -20.0625   20.1753 C.3     1  UNL1        0.0634
     12 C          -3.5097  -19.2919   19.9151 C.ar    1  UNL1        0.0818
     13 C          -2.2251  -19.7133   20.5651 C.ar    1  UNL1        0.1139
     14 N          -0.9648  -18.9426   20.3049 N.ar    1  UNL1       -0.2394
     15 C          -0.9890  -17.7506   19.3947 C.ar    1  UNL1        0.1195
     16 C          -2.2735  -17.3291   18.7447 C.ar    1  UNL1        0.1191
     17 N          -3.5338  -18.0998   19.0049 N.ar    1  UNL1       -0.2446
     18 C          -4.4615  -18.7562   23.1499 C.3     1  UNL1        0.0394
     19 C          -4.1518  -17.5119   23.9283 C.3     1  UNL1        0.0769
     20 N          -4.0977  -16.1850   23.2310 N.3     1  UNL1       -0.2634
     21 C          -3.0299  -15.9160   22.2123 C.3     1  UNL1        0.0900
     22 C          -5.1113  -15.1270   23.5522 C.3     1  UNL1        0.1587
     23 C          -5.9756  -15.2617   24.7707 C.ar    1  UNL1        0.2223
     24 N          -7.4704  -15.3863   24.7821 N.ar    1  UNL1       -0.2092
     25 C          -7.9155  -15.4971   26.2103 C.ar    1  UNL1        0.1424
     26 C          -6.6958  -15.4410   27.0816 C.ar    1  UNL1        0.2018
     27 O          -5.4969  -15.2955   26.1919 O.2     1  UNL1       -0.4338
@<TRIPOS>BOND
     1    11    10    1
     2    11     1    1
     3     1     2    2
     4     2    18    1
     5    18    19    1
     6    19    20    1
     7    20    21    1
     8    20    22    1
     9    22    23    1
    10    23    24   ar
    11    24    25   ar
    12    25    26   ar
    13    26    27   ar
    14     2     3    1
    15     3     4    1
    16     4     5   ar
    17     5     6   ar
    18     6     7   ar
    19     7     8   ar
    20     8     9   ar
    21    11    12    1
    22    12    13   ar
    23    13    14   ar
    24    14    15   ar
    25    15    16   ar
    26    16    17   ar
    27     9     1    1
    28    17    12   ar
    29    27    23   ar
    30     9     4   ar
@<TRIPOS>MOLECULE
*****
 27 30 0 0 0
SMALL
GASTEIGER

@<TRIPOS>ATOM
      1 C          -6.3145  -18.6821   21.7918 C.2     1  UNL1       -0.0246
      2 C          -7.7916  -18.5564   21.5629 C.2     1  UNL1       -0.0421
      3 C          -8.3045  -17.4535   22.4407 C.3     1  UNL1        0.0480
      4 C          -7.1444  -16.8975   23.2121 C.ar    1  UNL1       -0.0184
      5 C          -7.0491  -15.7979   24.2278 C.ar    1  UNL1       -0.0040
      6 C          -5.7239  -15.4577   24.8426 C.ar    1  UNL1       -0.0003
      7 C          -4.4940  -16.2170   24.4416 C.ar    1  UNL1       -0.0000
      8 C          -4.5893  -17.3166   23.4258 C.ar    1  UNL1       -0.0006
      9 C          -5.9145  -17.6568   22.8111 C.ar    1  UNL1       -0.0079
     10 C          -5.8431  -21.0771   20.9019 C.3     1  UNL1        0.0111
     11 C          -5.3983  -19.6611   21.1196 C.3     1  UNL1        0.0634
     12 C          -4.0372  -19.2244   20.6650 C.ar    1  UNL1        0.0818
     13 C          -2.8113  -19.7768   21.3297 C.ar    1  UNL1        0.1139
     14 N          -1.4503  -19.3400   20.8751 N.ar    1  UNL1       -0.2394
     15 C          -1.3151  -18.3508   19.7557 C.ar    1  UNL1        0.1195
     16 C          -2.5410  -17.7982   19.0909 C.ar    1  UNL1        0.1191
     17 N          -3.9020  -18.2350   19.5456 N.ar    1  UNL1       -0.2446
     18 C          -8.6118  -19.3877   20.6215 C.3     1  UNL1        0.0394
     19 C         -10.0941  -19.5033   20.8199 C.3     1  UNL1        0.0769
     20 N         -10.7051  -19.1352   22.1395 N.3     1  UNL1       -0.2634
     21 C         -10.5774  -20.0642   23.3103 C.3     1  UNL1        0.0900
     22 C         -11.4438  -17.8382   22.2882 C.3     1  UNL1        0.1587
     23 C         -11.5688  -16.9078   21.1183 C.ar    1  UNL1        0.2223
     24 N         -10.4859  -16.0228   20.5760 N.ar    1  UNL1       -0.2092
     25 C         -11.0465  -15.2671   19.4078 C.ar    1  UNL1        0.1424
     26 C         -12.4758  -15.6851   19.2281 C.ar    1  UNL1        0.2018
     27 O         -12.7986  -16.6991   20.2852 O.2     1  UNL1       -0.4338
@<TRIPOS>BOND
     1    11    10    1
     2    11     1    1
     3     1     2    2
     4     2    18    1
     5    18    19    1
     6    19    20    1
     7    20    21    1
     8    20    22    1
     9    22    23    1
    10    23    24   ar
    11    24    25   ar
    12    25    26   ar
    13    26    27   ar
    14     2     3    1
    15     3     4    1
    16     4     5   ar
    17     5     6   ar
    18     6     7   ar
    19     7     8   ar
    20     8     9   ar
    21    11    12    1
    22    12    13   ar
    23    13    14   ar
    24    14    15   ar
    25    15    16   ar
    26    16    17   ar
    27     9     1    1
    28    17    12   ar
    29    27    23   ar
    30     9     4   ar
@<TRIPOS>MOLECULE
*****
 27 30 0 0 0
SMALL
GASTEIGER

@<TRIPOS>ATOM
      1 C          -8.0835  -18.3902   21.4643 C.2     1  UNL1       -0.0246
      2 C          -6.7016  -18.8597   21.8105 C.2     1  UNL1       -0.0421
      3 C          -6.3344  -19.9605   20.8600 C.3     1  UNL1        0.0480
      4 C          -7.4893  -20.1713   19.9264 C.ar    1  UNL1       -0.0184
      5 C          -7.6962  -21.1216   18.7844 C.ar    1  UNL1       -0.0040
      6 C          -8.9842  -21.1013   18.0159 C.ar    1  UNL1       -0.0003
      7 C         -10.0652  -20.1308   18.3893 C.ar    1  UNL1       -0.0000
      8 C          -9.8583  -19.1806   19.5313 C.ar    1  UNL1       -0.0006
      9 C          -8.5703  -19.2008   20.2998 C.ar    1  UNL1       -0.0079
     10 C          -8.2561  -15.9259   22.2691 C.3     1  UNL1        0.0111
     11 C          -8.8449  -17.3013   22.1603 C.3     1  UNL1        0.0634
     12 C         -10.1951  -17.5876   22.7475 C.ar    1  UNL1        0.0818
     13 C         -11.4033  -16.8564   22.2419 C.ar    1  UNL1        0.1139
     14 N         -12.7535  -17.1427   22.8292 N.ar    1  UNL1       -0.2394
     15 C         -12.8957  -18.1602   23.9220 C.ar    1  UNL1        0.1195
     16 C         -11.6875  -18.8915   24.4277 C.ar    1  UNL1        0.1191
     17 N         -10.3373  -18.6052   23.8404 N.ar    1  UNL1       -0.2446
     18 C          -5.8385  -18.3228   22.9136 C.3     1  UNL1        0.0394
     19 C          -4.3744  -18.0972   22.6781 C.3     1  UNL1        0.0769
     20 N          -3.7933  -16.7227   22.8301 N.3     1  UNL1       -0.2634
     21 C          -4.5744  -15.6517   23.5321 C.3     1  UNL1        0.0900
     22 C          -2.4311  -16.4193   22.2802 C.3     1  UNL1        0.1587
     23 C          -1.9604  -17.0959   21.0270 C.ar    1  UNL1        0.2223
     24 N          -2.6436  -17.0536   19.6923 N.ar    1  UNL1       -0.2092
     25 C          -1.8293  -17.8652   18.7288 C.ar    1  UNL1        0.1424
     26 C          -0.6429  -18.4091   19.4681 C.ar    1  UNL1        0.2018
     27 O          -0.7239  -17.9336   20.8884 O.2     1  UNL1       -0.4338
@<TRIPOS>BOND
     1    11    10    1
     2    11     1    1
     3     1     2    2
     4     2    18    1
     5    18    19    1
     6    19    20    1
     7    20    21    1
     8    20    22    1
     9    22    23    1
    10    23    24   ar
    11    24    25   ar
    12    25    26   ar
    13    26    27   ar
    14     2     3    1
    15     3     4    1
    16     4     5   ar
    17     5     6   ar
    18     6     7   ar
    19     7     8   ar
    20     8     9   ar
    21    11    12    1
    22    12    13   ar
    23    13    14   ar
    24    14    15   ar
    25    15    16   ar
    26    16    17   ar
    27     9     1    1
    28    17    12   ar
    29    27    23   ar
    30     9     4   ar
@<TRIPOS>MOLECULE
*****
 27 30 0 0 0
SMALL
GASTEIGER

@<TRIPOS>ATOM
      1 C          -5.4237  -17.9646   22.5191 C.2     1  UNL1       -0.0246
      2 C          -6.5688  -17.0641   22.8767 C.2     1  UNL1       -0.0421
      3 C          -7.7789  -17.5320   22.1239 C.3     1  UNL1        0.0480
      4 C          -7.3817  -18.7217   21.3011 C.ar    1  UNL1       -0.0184
      5 C          -8.1574  -19.5960   20.3610 C.ar    1  UNL1       -0.0040
      6 C          -7.4775  -20.7377   19.6652 C.ar    1  UNL1       -0.0003
      7 C          -6.0219  -21.0050   19.9094 C.ar    1  UNL1       -0.0000
      8 C          -5.2462  -20.1307   20.8495 C.ar    1  UNL1       -0.0006
      9 C          -5.9261  -18.9890   21.5453 C.ar    1  UNL1       -0.0079
     10 C          -3.7768  -17.8019   24.5220 C.3     1  UNL1        0.0111
     11 C          -4.0222  -17.8592   23.0432 C.3     1  UNL1        0.0634
     12 C          -2.8661  -17.8111   22.0888 C.ar    1  UNL1        0.0818
     13 C          -2.1964  -19.0820   21.6573 C.ar    1  UNL1        0.1139
     14 N          -1.0402  -19.0338   20.7028 N.ar    1  UNL1       -0.2394
     15 C          -0.5538  -17.7148   20.1798 C.ar    1  UNL1        0.1195
     16 C          -1.2235  -16.4438   20.6114 C.ar    1  UNL1        0.1191
     17 N          -2.3797  -16.4920   21.5658 N.ar    1  UNL1       -0.2446
     18 C          -6.5135  -15.9001   23.8212 C.3     1  UNL1        0.0394
     19 C          -7.7770  -15.3662   24.4282 C.3     1  UNL1        0.0769
     20 N          -8.3410  -16.0001   25.6652 N.3     1  UNL1       -0.2634
     21 C          -8.1621  -15.3342   26.9974 C.3     1  UNL1        0.0900
     22 C          -9.0837  -17.2997   25.5701 C.3     1  UNL1        0.1587
     23 C         -10.0453  -17.5333   24.4428 C.ar    1  UNL1        0.2223
     24 N         -10.5449  -18.8670   23.9720 N.ar    1  UNL1       -0.2092
     25 C         -11.4845  -18.6321   22.8266 C.ar    1  UNL1        0.1424
     26 C         -11.5656  -17.1532   22.5894 C.ar    1  UNL1        0.2018
     27 O         -10.6761  -16.4741   23.5883 O.2     1  UNL1       -0.4338
@<TRIPOS>BOND
     1    11    10    1
     2    11     1    1
     3     1     2    2
     4     2    18    1
     5    18    19    1
     6    19    20    1
     7    20    21    1
     8    20    22    1
     9    22    23    1
    10    23    24   ar
    11    24    25   ar
    12    25    26   ar
    13    26    27   ar
    14     2     3    1
    15     3     4    1
    16     4     5   ar
    17     5     6   ar
    18     6     7   ar
    19     7     8   ar
    20     8     9   ar
    21    11    12    1
    22    12    13   ar
    23    13    14   ar
    24    14    15   ar
    25    15    16   ar
    26    16    17   ar
    27     9     1    1
    28    17    12   ar
    29    27    23   ar
    30     9     4   ar
