@<TRIPOS>MOLECULE
*****
 25 27 0 0 0
SMALL
GASTEIGER

@<TRIPOS>ATOM
      1 C          -9.0623  -17.9282   21.6345 C.ar    1  UNL1        0.1374
      2 C          -8.7836  -17.0558   22.8224 C.ar    1  UNL1        0.0612
      3 C          -9.9188  -16.4203   23.5690 C.ar    1  UNL1        0.1483
      4 C         -11.3327  -16.6573   23.1277 C.ar    1  UNL1        0.0522
      5 C         -11.6114  -17.5296   21.9397 C.ar    1  UNL1        0.0625
      6 C         -13.0253  -17.7666   21.4984 C.3     1  UNL1        0.0522
      7 N         -10.4762  -18.1651   21.1931 N.ar    1  UNL1       -0.2449
      8 N          -6.5476  -18.5620   21.4769 N.am    1  UNL1       -0.2646
      9 C          -7.9271  -18.5637   20.8878 C.2     1  UNL1        0.2684
     10 O          -8.1714  -19.2009   19.5520 O.2     1  UNL1       -0.2681
     11 H          -6.3873  -18.1438   22.3536 H       1  UNL1        0.1566
     12 C          -2.0169  -18.1421   18.9675 C.3     1  UNL1        0.0521
     13 C          -3.1471  -18.9876   19.4755 C.ar    1  UNL1        0.0608
     14 C          -3.1420  -20.4684   19.2369 C.ar    1  UNL1        0.0148
     15 C          -4.2722  -21.3138   19.7449 C.ar    1  UNL1        0.0041
     16 C          -5.4073  -20.6784   20.4916 C.ar    1  UNL1        0.0345
     17 C          -5.4124  -19.1975   20.7302 C.ar    1  UNL1        0.1340
     18 N          -4.2823  -18.3521   20.2222 N.ar    1  UNL1       -0.2348
     19 O          -9.6401  -15.5479   24.7570 O.3     1  UNL1       -0.4502
     20 C          -8.2394  -15.4131   25.2764 C.ar    1  UNL1        0.1835
     21 C          -7.9240  -15.7971   26.6917 C.ar    1  UNL1        0.1396
     22 N          -6.5233  -15.6623   27.2111 N.ar    1  UNL1       -0.2192
     23 C          -5.4379  -15.1434   26.3151 C.ar    1  UNL1        0.1991
     24 N          -5.7532  -14.7594   24.8998 N.ar    1  UNL1       -0.2192
     25 C          -7.1540  -14.8942   24.3805 C.ar    1  UNL1        0.1396
@<TRIPOS>BOND
     1    12    13    1
     2    13    14   ar
     3    14    15   ar
     4    15    16   ar
     5    16    17   ar
     6    17     8    1
     7     8     9   am
     8     9    10    2
     9     9     1    1
    10     1     2   ar
    11     2     3   ar
    12     3    19    1
    13    19    20    1
    14    20    21   ar
    15    21    22   ar
    16    22    23   ar
    17    23    24   ar
    18    24    25   ar
    19     3     4   ar
    20     4     5   ar
    21     5     6    1
    22     5     7   ar
    23    17    18   ar
    24    18    13   ar
    25     7     1   ar
    26    25    20   ar
    27     8    11    1
@<TRIPOS>MOLECULE
*****
 25 27 0 0 0
SMALL
GASTEIGER

@<TRIPOS>ATOM
      1 C          -6.4220  -16.3708   24.0146 C.ar    1  UNL1        0.1374
      2 C          -7.7965  -16.4998   23.4282 C.ar    1  UNL1        0.0612
      3 C          -8.9980  -16.1222   24.2429 C.ar    1  UNL1        0.1483
      4 C          -8.8249  -15.6156   25.6441 C.ar    1  UNL1        0.0522
      5 C          -7.4504  -15.4866   26.2306 C.ar    1  UNL1        0.0625
      6 C          -7.2773  -14.9800   27.6318 C.3     1  UNL1        0.0522
      7 N          -6.2489  -15.8642   25.4158 N.ar    1  UNL1       -0.2449
      8 N          -5.1778  -18.0719   22.4953 N.am    1  UNL1       -0.2646
      9 C          -5.2205  -16.7484   23.1998 C.2     1  UNL1        0.2684
     10 O          -4.0616  -15.8023   23.0896 O.2     1  UNL1       -0.2681
     11 H          -5.9384  -18.6928   22.5677 H       1  UNL1        0.1566
     12 C          -2.2540  -17.4680   18.2425 C.3     1  UNL1        0.0521
     13 C          -2.5144  -18.1475   19.5541 C.ar    1  UNL1        0.0608
     14 C          -1.5733  -19.2046   20.0510 C.ar    1  UNL1        0.0148
     15 C          -1.8337  -19.8841   21.3626 C.ar    1  UNL1        0.0041
     16 C          -3.0352  -19.5066   22.1774 C.ar    1  UNL1        0.0345
     17 C          -3.9762  -18.4495   21.6805 C.ar    1  UNL1        0.1340
     18 N          -3.7158  -17.7700   20.3689 N.ar    1  UNL1       -0.2348
     19 O         -10.3726  -16.2512   23.6565 O.3     1  UNL1       -0.4502
     20 C         -10.5655  -16.9523   22.3445 C.ar    1  UNL1        0.1835
     21 C         -10.6504  -16.1579   21.0750 C.ar    1  UNL1        0.1396
     22 N         -10.8433  -16.8590   19.7630 N.ar    1  UNL1       -0.2192
     23 C         -10.9513  -18.3546   19.7206 C.ar    1  UNL1        0.1991
     24 N         -10.8665  -19.1489   20.9902 N.ar    1  UNL1       -0.2192
     25 C         -10.6736  -18.4478   22.3021 C.ar    1  UNL1        0.1396
@<TRIPOS>BOND
     1    12    13    1
     2    13    14   ar
     3    14    15   ar
     4    15    16   ar
     5    16    17   ar
     6    17     8    1
     7     8     9   am
     8     9    10    2
     9     9     1    1
    10     1     2   ar
    11     2     3   ar
    12     3    19    1
    13    19    20    1
    14    20    21   ar
    15    21    22   ar
    16    22    23   ar
    17    23    24   ar
    18    24    25   ar
    19     3     4   ar
    20     4     5   ar
    21     5     6    1
    22     5     7   ar
    23    17    18   ar
    24    18    13   ar
    25     7     1   ar
    26    25    20   ar
    27     8    11    1
@<TRIPOS>MOLECULE
*****
 25 27 0 0 0
SMALL
GASTEIGER

@<TRIPOS>ATOM
      1 C         -13.0803   -6.3088   18.7295 C.ar    1  UNL1        0.1374
      2 C         -12.8814   -4.8340   18.9177 C.ar    1  UNL1        0.0612
      3 C         -11.4967   -4.2770   19.0665 C.ar    1  UNL1        0.1483
      4 C         -10.3109   -5.1947   19.0269 C.ar    1  UNL1        0.0522
      5 C         -10.5098   -6.6695   18.8386 C.ar    1  UNL1        0.0625
      6 C          -9.3239   -7.5872   18.7990 C.3     1  UNL1        0.0522
      7 N         -11.8945   -7.2265   18.6899 N.ar    1  UNL1       -0.2449
      8 N         -14.8784   -8.0698   19.3743 N.am    1  UNL1       -0.2646
      9 C         -14.4651   -6.8659   18.5807 C.2     1  UNL1        0.2684
     10 O         -15.4366   -6.2190   17.6384 O.2     1  UNL1       -0.2681
     11 H         -14.2408   -8.4943   19.9927 H       1  UNL1        0.1566
     12 C         -19.8768   -8.1405   20.7925 C.3     1  UNL1        0.0521
     13 C         -18.7624   -8.6622   19.9347 C.ar    1  UNL1        0.0608
     14 C         -19.0327   -9.7410   18.9282 C.ar    1  UNL1        0.0148
     15 C         -17.9183  -10.2627   18.0703 C.ar    1  UNL1        0.0041
     16 C         -16.5336   -9.7057   18.2190 C.ar    1  UNL1        0.0345
     17 C         -16.2632   -8.6269   19.2255 C.ar    1  UNL1        0.1340
     18 N         -17.3777   -8.1052   20.0834 N.ar    1  UNL1       -0.2348
     19 O         -11.2977   -2.8022   19.2547 O.3     1  UNL1       -0.4502
     20 C         -11.6865   -1.8478   18.1648 C.ar    1  UNL1        0.1835
     21 C         -10.7037   -1.5007   17.0860 C.ar    1  UNL1        0.1396
     22 N         -11.0925   -0.5463   15.9961 N.ar    1  UNL1       -0.2192
     23 C         -12.4641    0.0610   15.9849 C.ar    1  UNL1        0.1991
     24 N         -13.4468   -0.2860   17.0637 N.ar    1  UNL1       -0.2192
     25 C         -13.0580   -1.2404   18.1536 C.ar    1  UNL1        0.1396
@<TRIPOS>BOND
     1    12    13    1
     2    13    14   ar
     3    14    15   ar
     4    15    16   ar
     5    16    17   ar
     6    17     8    1
     7     8     9   am
     8     9    10    2
     9     9     1    1
    10     1     2   ar
    11     2     3   ar
    12     3    19    1
    13    19    20    1
    14    20    21   ar
    15    21    22   ar
    16    22    23   ar
    17    23    24   ar
    18    24    25   ar
    19     3     4   ar
    20     4     5   ar
    21     5     6    1
    22     5     7   ar
    23    17    18   ar
    24    18    13   ar
    25     7     1   ar
    26    25    20   ar
    27     8    11    1
@<TRIPOS>MOLECULE
*****
 25 27 0 0 0
SMALL
GASTEIGER

@<TRIPOS>ATOM
      1 C          -6.4881  -16.5544   23.8550 C.ar    1  UNL1        0.1374
      2 C          -7.9143  -16.5712   23.3908 C.ar    1  UNL1        0.0612
      3 C          -9.0019  -16.0642   24.2908 C.ar    1  UNL1        0.1483
      4 C          -8.6633  -15.5404   25.6550 C.ar    1  UNL1        0.0522
      5 C          -7.2371  -15.5236   26.1191 C.ar    1  UNL1        0.0625
      6 C          -6.8984  -14.9998   27.4833 C.3     1  UNL1        0.0522
      7 N          -6.1495  -16.0306   25.2191 N.ar    1  UNL1       -0.2449
      8 N          -4.0365  -16.4389   23.0026 N.am    1  UNL1       -0.2646
      9 C          -5.4004  -17.0613   22.9549 C.2     1  UNL1        0.2684
     10 O          -5.6767  -18.1908   22.0073 O.2     1  UNL1       -0.2681
     11 H          -3.8552  -15.6976   23.6246 H       1  UNL1        0.1566
     12 C          -1.8447  -20.3265   20.3413 C.3     1  UNL1        0.0521
     13 C          -1.8530  -18.8897   20.7720 C.ar    1  UNL1        0.0608
     14 C          -0.7736  -17.9599   20.3027 C.ar    1  UNL1        0.0148
     15 C          -0.7818  -16.5231   20.7333 C.ar    1  UNL1        0.0041
     16 C          -1.8694  -16.0161   21.6333 C.ar    1  UNL1        0.0345
     17 C          -2.9488  -16.9459   22.1026 C.ar    1  UNL1        0.1340
     18 N          -2.9406  -18.3827   21.6719 N.ar    1  UNL1       -0.2348
     19 O         -10.4283  -16.0810   23.8266 O.3     1  UNL1       -0.4502
     20 C         -10.7784  -16.6888   22.5007 C.ar    1  UNL1        0.1835
     21 C         -11.2424  -18.1134   22.4278 C.ar    1  UNL1        0.1396
     22 N         -11.5925  -18.7213   21.1020 N.ar    1  UNL1       -0.2192
     23 C         -11.4786  -17.9045   19.8490 C.ar    1  UNL1        0.1991
     24 N         -11.0146  -16.4799   19.9219 N.ar    1  UNL1       -0.2192
     25 C         -10.6645  -15.8721   21.2478 C.ar    1  UNL1        0.1396
@<TRIPOS>BOND
     1    12    13    1
     2    13    14   ar
     3    14    15   ar
     4    15    16   ar
     5    16    17   ar
     6    17     8    1
     7     8     9   am
     8     9    10    2
     9     9     1    1
    10     1     2   ar
    11     2     3   ar
    12     3    19    1
    13    19    20    1
    14    20    21   ar
    15    21    22   ar
    16    22    23   ar
    17    23    24   ar
    18    24    25   ar
    19     3     4   ar
    20     4     5   ar
    21     5     6    1
    22     5     7   ar
    23    17    18   ar
    24    18    13   ar
    25     7     1   ar
    26    25    20   ar
    27     8    11    1
@<TRIPOS>MOLECULE
*****
 25 27 0 0 0
SMALL
GASTEIGER

@<TRIPOS>ATOM
      1 C         -12.6691   -4.8177   18.5082 C.ar    1  UNL1        0.1374
      2 C         -13.5891   -5.6759   17.6915 C.ar    1  UNL1        0.0612
      3 C         -13.1682   -7.0598   17.2943 C.ar    1  UNL1        0.1483
      4 C         -11.8274   -7.5854   17.7139 C.ar    1  UNL1        0.0522
      5 C         -10.9075   -6.7271   18.5306 C.ar    1  UNL1        0.0625
      6 C          -9.5667   -7.2527   18.9502 C.3     1  UNL1        0.0522
      7 N         -11.3284   -5.3432   18.9278 N.ar    1  UNL1       -0.2449
      8 N         -14.0637   -2.6729   18.0550 N.am    1  UNL1       -0.2646
      9 C         -13.0900   -3.4337   18.9053 C.2     1  UNL1        0.2684
     10 O         -12.5372   -2.8107   20.1528 O.2     1  UNL1       -0.2681
     11 H         -14.4265   -3.0818   17.2363 H       1  UNL1        0.1566
     12 C         -17.2056    0.4797   20.7364 C.3     1  UNL1        0.0521
     13 C         -16.0555    0.2873   19.7929 C.ar    1  UNL1        0.0608
     14 C         -15.3263    1.4788   19.2465 C.ar    1  UNL1        0.0148
     15 C         -14.1762    1.2864   18.3030 C.ar    1  UNL1        0.0041
     16 C         -13.7553   -0.0975   17.9058 C.ar    1  UNL1        0.0345
     17 C         -14.4845   -1.2889   18.4522 C.ar    1  UNL1        0.1340
     18 N         -15.6346   -1.0966   19.3957 N.ar    1  UNL1       -0.2348
     19 O         -14.0881   -7.9182   16.4776 O.3     1  UNL1       -0.4502
     20 C         -15.2752   -8.5702   17.1224 C.ar    1  UNL1        0.1835
     21 C         -16.6579   -8.0678   16.8295 C.ar    1  UNL1        0.1396
     22 N         -17.8450   -8.7198   17.4743 N.ar    1  UNL1       -0.2192
     23 C         -17.6493   -9.8741   18.4121 C.ar    1  UNL1        0.1991
     24 N         -16.2666  -10.3764   18.7049 N.ar    1  UNL1       -0.2192
     25 C         -15.0795   -9.7244   18.0601 C.ar    1  UNL1        0.1396
@<TRIPOS>BOND
     1    12    13    1
     2    13    14   ar
     3    14    15   ar
     4    15    16   ar
     5    16    17   ar
     6    17     8    1
     7     8     9   am
     8     9    10    2
     9     9     1    1
    10     1     2   ar
    11     2     3   ar
    12     3    19    1
    13    19    20    1
    14    20    21   ar
    15    21    22   ar
    16    22    23   ar
    17    23    24   ar
    18    24    25   ar
    19     3     4   ar
    20     4     5   ar
    21     5     6    1
    22     5     7   ar
    23    17    18   ar
    24    18    13   ar
    25     7     1   ar
    26    25    20   ar
    27     8    11    1
@<TRIPOS>MOLECULE
*****
 25 27 0 0 0
SMALL
GASTEIGER

@<TRIPOS>ATOM
      1 C           3.6419    1.0767   33.2688 C.ar    1  UNL1        0.1374
      2 C           3.4770    1.7949   34.5753 C.ar    1  UNL1        0.0612
      3 C           4.5341    1.6794   35.6332 C.ar    1  UNL1        0.1483
      4 C           5.7561    0.8458   35.3846 C.ar    1  UNL1        0.0522
      5 C           5.9210    0.1276   34.0781 C.ar    1  UNL1        0.0625
      6 C           7.1430   -0.7060   33.8295 C.3     1  UNL1        0.0522
      7 N           4.8639    0.2431   33.0202 N.ar    1  UNL1       -0.2449
      8 N           2.8812    0.7629   30.8045 N.am    1  UNL1       -0.2646
      9 C           2.5848    1.1922   32.2108 C.2     1  UNL1        0.2684
     10 O           1.2314    1.7369   32.5593 O.2     1  UNL1       -0.2681
     11 H           3.7695    0.4054   30.5758 H       1  UNL1        0.1566
     12 C          -1.6027   -0.8454   28.7290 C.3     1  UNL1        0.0521
     13 C          -0.4179    0.0742   28.7088 C.ar    1  UNL1        0.0608
     14 C          -0.2901    1.1092   27.6307 C.ar    1  UNL1        0.0148
     15 C           0.8948    2.0288   27.6104 C.ar    1  UNL1        0.0041
     16 C           1.9519    1.9134   28.6683 C.ar    1  UNL1        0.0345
     17 C           1.8241    0.8784   29.7465 C.ar    1  UNL1        0.1340
     18 N           0.6392   -0.0412   29.7667 N.ar    1  UNL1       -0.2348
     19 O           4.3692    2.3975   36.9398 O.3     1  UNL1       -0.4502
     20 C           3.1633    2.1357   37.7926 C.ar    1  UNL1        0.1835
     21 C           1.9705    3.0409   37.7030 C.ar    1  UNL1        0.1396
     22 N           0.7646    2.7791   38.5557 N.ar    1  UNL1       -0.2192
     23 C           0.7514    1.6121   39.4980 C.ar    1  UNL1        0.1991
     24 N           1.9441    0.7069   39.5876 N.ar    1  UNL1       -0.2192
     25 C           3.1501    0.9687   38.7348 C.ar    1  UNL1        0.1396
@<TRIPOS>BOND
     1    12    13    1
     2    13    14   ar
     3    14    15   ar
     4    15    16   ar
     5    16    17   ar
     6    17     8    1
     7     8     9   am
     8     9    10    2
     9     9     1    1
    10     1     2   ar
    11     2     3   ar
    12     3    19    1
    13    19    20    1
    14    20    21   ar
    15    21    22   ar
    16    22    23   ar
    17    23    24   ar
    18    24    25   ar
    19     3     4   ar
    20     4     5   ar
    21     5     6    1
    22     5     7   ar
    23    17    18   ar
    24    18    13   ar
    25     7     1   ar
    26    25    20   ar
    27     8    11    1
@<TRIPOS>MOLECULE
*****
 25 27 0 0 0
SMALL
GASTEIGER

@<TRIPOS>ATOM
      1 C           3.1238    0.4298   32.0957 C.ar    1  UNL1        0.1374
      2 C           3.4760    1.3361   33.2378 C.ar    1  UNL1        0.0612
      3 C           4.2190    0.7949   34.4231 C.ar    1  UNL1        0.1483
      4 C           4.6099   -0.6526   34.4663 C.ar    1  UNL1        0.0522
      5 C           4.2578   -1.5589   33.3241 C.ar    1  UNL1        0.0625
      6 C           4.6487   -3.0064   33.3673 C.3     1  UNL1        0.0522
      7 N           3.5148   -1.0177   32.1388 N.ar    1  UNL1       -0.2449
      8 N           1.8142    0.0315   29.8875 N.am    1  UNL1       -0.2646
      9 C           2.3808    0.9710   30.9103 C.2     1  UNL1        0.2684
     10 O           2.2043    2.4517   30.7479 O.2     1  UNL1       -0.2681
     11 H           1.9301   -0.9404   29.9941 H       1  UNL1        0.1566
     12 C           1.7291    1.4244   24.8822 C.3     1  UNL1        0.0521
     13 C           1.0286    1.2691   26.1995 C.ar    1  UNL1        0.0608
     14 C          -0.4148    1.6549   26.3314 C.ar    1  UNL1        0.0148
     15 C          -1.1153    1.4996   27.6487 C.ar    1  UNL1        0.0041
     16 C          -0.3723    0.9585   28.8340 C.ar    1  UNL1        0.0345
     17 C           1.0712    0.5726   28.7021 C.ar    1  UNL1        0.1340
     18 N           1.7716    0.7279   27.3848 N.ar    1  UNL1       -0.2348
     19 O           4.5711    1.7013   35.5654 O.3     1  UNL1       -0.4502
     20 C           3.6298    1.8482   36.7239 C.ar    1  UNL1        0.1835
     21 C           2.4975    2.8293   36.6505 C.ar    1  UNL1        0.1396
     22 N           1.5561    2.9762   37.8091 N.ar    1  UNL1       -0.2192
     23 C           1.7470    2.1420   39.0410 C.ar    1  UNL1        0.1991
     24 N           2.8793    1.1609   39.1144 N.ar    1  UNL1       -0.2192
     25 C           3.8207    1.0140   37.9559 C.ar    1  UNL1        0.1396
@<TRIPOS>BOND
     1    12    13    1
     2    13    14   ar
     3    14    15   ar
     4    15    16   ar
     5    16    17   ar
     6    17     8    1
     7     8     9   am
     8     9    10    2
     9     9     1    1
    10     1     2   ar
    11     2     3   ar
    12     3    19    1
    13    19    20    1
    14    20    21   ar
    15    21    22   ar
    16    22    23   ar
    17    23    24   ar
    18    24    25   ar
    19     3     4   ar
    20     4     5   ar
    21     5     6    1
    22     5     7   ar
    23    17    18   ar
    24    18    13   ar
    25     7     1   ar
    26    25    20   ar
    27     8    11    1
@<TRIPOS>MOLECULE
*****
 25 27 0 0 0
SMALL
GASTEIGER

@<TRIPOS>ATOM
      1 C          -6.5026  -16.9345   23.3567 C.ar    1  UNL1        0.1374
      2 C          -7.6589  -17.6366   22.7086 C.ar    1  UNL1        0.0612
      3 C          -9.0219  -17.5684   23.3309 C.ar    1  UNL1        0.1483
      4 C          -9.2287  -16.7982   24.6013 C.ar    1  UNL1        0.0522
      5 C          -8.0725  -16.0962   25.2495 C.ar    1  UNL1        0.0625
      6 C          -8.2793  -15.3260   26.5199 C.3     1  UNL1        0.0522
      7 N          -6.7094  -16.1643   24.6271 N.ar    1  UNL1       -0.2449
      8 N          -4.7842  -18.1452   21.8297 N.am    1  UNL1       -0.2646
      9 C          -5.1394  -17.0027   22.7343 C.2     1  UNL1        0.2684
     10 O          -4.1316  -15.9282   23.0167 O.2     1  UNL1       -0.2681
     11 H          -5.4458  -18.8504   21.6444 H       1  UNL1        0.1566
     12 C          -1.6931  -17.5768   17.6919 C.3     1  UNL1        0.0521
     13 C          -1.8755  -17.9291   19.1384 C.ar    1  UNL1        0.0608
     14 C          -0.6949  -18.3495   19.9627 C.ar    1  UNL1        0.0148
     15 C          -0.8774  -18.7018   21.4092 C.ar    1  UNL1        0.0041
     16 C          -2.2405  -18.6337   22.0316 C.ar    1  UNL1        0.0345
     17 C          -3.4211  -18.2133   21.2074 C.ar    1  UNL1        0.1340
     18 N          -3.2386  -17.8610   19.7608 N.ar    1  UNL1       -0.2348
     19 O         -10.1783  -18.2705   22.6828 O.3     1  UNL1       -0.4502
     20 C         -11.5291  -18.2500   23.3348 C.ar    1  UNL1        0.1835
     21 C         -11.7259  -18.8988   24.6729 C.ar    1  UNL1        0.1396
     22 N         -13.0766  -18.8783   25.3249 N.ar    1  UNL1       -0.2192
     23 C         -14.2305  -18.2090   24.6388 C.ar    1  UNL1        0.1991
     24 N         -14.0337  -17.5603   23.3007 N.ar    1  UNL1       -0.2192
     25 C         -12.6829  -17.5808   22.6488 C.ar    1  UNL1        0.1396
@<TRIPOS>BOND
     1    12    13    1
     2    13    14   ar
     3    14    15   ar
     4    15    16   ar
     5    16    17   ar
     6    17     8    1
     7     8     9   am
     8     9    10    2
     9     9     1    1
    10     1     2   ar
    11     2     3   ar
    12     3    19    1
    13    19    20    1
    14    20    21   ar
    15    21    22   ar
    16    22    23   ar
    17    23    24   ar
    18    24    25   ar
    19     3     4   ar
    20     4     5   ar
    21     5     6    1
    22     5     7   ar
    23    17    18   ar
    24    18    13   ar
    25     7     1   ar
    26    25    20   ar
    27     8    11    1
@<TRIPOS>MOLECULE
*****
 25 27 0 0 0
SMALL
GASTEIGER

@<TRIPOS>ATOM
      1 C           6.2138   -4.0107   23.2800 C.ar    1  UNL1        0.1374
      2 C           6.3113   -3.3803   24.6375 C.ar    1  UNL1        0.0612
      3 C           7.2767   -3.9233   25.6490 C.ar    1  UNL1        0.1483
      4 C           8.1445   -5.0968   25.3029 C.ar    1  UNL1        0.0522
      5 C           8.0470   -5.7272   23.9453 C.ar    1  UNL1        0.0625
      6 C           8.9149   -6.9007   23.5992 C.3     1  UNL1        0.0522
      7 N           7.0817   -5.1841   22.9339 N.ar    1  UNL1       -0.2449
      8 N           5.1505   -1.9878   22.0441 N.am    1  UNL1       -0.2646
      9 C           5.2484   -3.4676   22.2684 C.2     1  UNL1        0.2684
     10 O           4.3808   -4.4045   21.4813 O.2     1  UNL1       -0.2681
     11 H           5.7199   -1.3729   22.5607 H       1  UNL1        0.1566
     12 C           4.0167   -0.7181   17.1346 C.3     1  UNL1        0.0521
     13 C           3.6183   -0.8099   18.5778 C.ar    1  UNL1        0.0608
     14 C           2.2545   -0.3587   19.0095 C.ar    1  UNL1        0.0148
     15 C           1.8560   -0.4505   20.4527 C.ar    1  UNL1        0.0041
     16 C           2.8213   -0.9935   21.4642 C.ar    1  UNL1        0.0345
     17 C           4.1851   -1.4447   21.0325 C.ar    1  UNL1        0.1340
     18 N           4.5836   -1.3529   19.5894 N.ar    1  UNL1       -0.2348
     19 O           7.3742   -3.2929   27.0067 O.3     1  UNL1       -0.4502
     20 C           7.6609   -4.1425   28.2092 C.ar    1  UNL1        0.1835
     21 C           9.0494   -4.1985   28.7741 C.ar    1  UNL1        0.1396
     22 N           9.3361   -5.0481   29.9766 N.ar    1  UNL1       -0.2192
     23 C           8.2343   -5.8416   30.6142 C.ar    1  UNL1        0.1991
     24 N           6.8459   -5.7856   30.0493 N.ar    1  UNL1       -0.2192
     25 C           6.5592   -4.9360   28.8468 C.ar    1  UNL1        0.1396
@<TRIPOS>BOND
     1    12    13    1
     2    13    14   ar
     3    14    15   ar
     4    15    16   ar
     5    16    17   ar
     6    17     8    1
     7     8     9   am
     8     9    10    2
     9     9     1    1
    10     1     2   ar
    11     2     3   ar
    12     3    19    1
    13    19    20    1
    14    20    21   ar
    15    21    22   ar
    16    22    23   ar
    17    23    24   ar
    18    24    25   ar
    19     3     4   ar
    20     4     5   ar
    21     5     6    1
    22     5     7   ar
    23    17    18   ar
    24    18    13   ar
    25     7     1   ar
    26    25    20   ar
    27     8    11    1
