@<TRIPOS>MOLECULE
*****
 28 32 0 0 0
SMALL
GASTEIGER

@<TRIPOS>ATOM
      1 N          -7.8221  -15.4331   24.5386 N.pl3   1  UNL1       -0.3133
      2 C          -6.7399  -16.2465   23.8928 C.2     1  UNL1        0.2770
      3 N          -6.9281  -17.2513   22.7951 N.2     1  UNL1       -0.2203
      4 C          -5.5840  -17.8238   22.4551 C.3     1  UNL1        0.1539
      5 C          -4.5650  -17.1728   23.3427 C.3     1  UNL1        0.2350
      6 O          -5.2793  -16.1979   24.2312 O.2     1  UNL1       -0.4478
      7 C          -6.7106  -18.3862   21.6399 C.ar    1  UNL1        0.0355
      8 C          -8.1137  -17.9079   21.8689 C.ar    1  UNL1        0.0007
      9 C          -9.2403  -18.4703   21.0538 C.ar    1  UNL1        0.0015
     10 C          -8.9637  -19.5111   20.0096 C.ar    1  UNL1        0.0031
     11 C          -7.5607  -19.9894   19.7806 C.ar    1  UNL1        0.0366
     12 C          -6.4340  -19.4270   20.5957 C.ar    1  UNL1        0.1363
     13 O          -5.0309  -19.9053   20.3667 O.3     1  UNL1       -0.4768
     14 C          -3.9043  -19.3429   21.1819 C.3     1  UNL1        0.1975
     15 C          -2.5012  -19.8212   20.9529 C.3     1  UNL1        0.1855
     16 O          -1.3747  -19.2588   21.7680 O.3     1  UNL1       -0.3499
     17 C          -1.6512  -18.2180   22.8122 C.3     1  UNL1        0.1425
     18 C          -3.0543  -17.7397   23.0413 C.3     1  UNL1        0.0381
     19 C          -4.1808  -18.3021   22.2261 C.3     1  UNL1        0.0734
     20 H          -8.7564  -15.5362   24.2461 H       1  UNL1        0.1466
     21 H          -7.5980  -14.7961   25.2550 H       1  UNL1        0.1466
     22 C         -10.6434  -17.9920   21.2828 C.ar    1  UNL1        0.0200
     23 C         -11.3402  -17.1806   20.2312 C.ar    1  UNL1        0.0989
     24 N         -12.7434  -16.7022   20.4602 N.ar    1  UNL1       -0.2414
     25 C         -13.4496  -17.0353   21.7409 C.ar    1  UNL1        0.1102
     26 C         -12.7528  -17.8468   22.7926 C.ar    1  UNL1        0.0768
     27 CL        -13.4590  -18.1799   24.0733 Cl      1  UNL1       -0.0806
     28 C         -11.3497  -18.3251   22.5636 C.ar    1  UNL1        0.0145
@<TRIPOS>BOND
     1     1     2    1
     2     2     3    2
     3     3     4    1
     4     4     5    1
     5     5     6    1
     6     4     7    1
     7     7     8   ar
     8     8     9   ar
     9     9    22    1
    10    22    23   ar
    11    23    24   ar
    12    24    25   ar
    13    25    26   ar
    14    26    27    1
    15    26    28   ar
    16     9    10   ar
    17    10    11   ar
    18    11    12   ar
    19    12    13    1
    20    13    14    1
    21    14    15    1
    22    15    16    1
    23    16    17    1
    24    17    18    1
    25    19    18    1
    26     6     2    1
    27    12     7   ar
    28    19    14    1
    29    19     4    1
    30    28    22   ar
    31     1    20    1
    32     1    21    1
@<TRIPOS>MOLECULE
*****
 28 32 0 0 0
SMALL
GASTEIGER

@<TRIPOS>ATOM
      1 N          -5.6535  -15.6206   23.7165 N.pl3   1  UNL1       -0.3133
      2 C          -7.0122  -16.1137   23.3155 C.2     1  UNL1        0.2770
      3 N          -7.2971  -17.2221   22.3458 N.2     1  UNL1       -0.2203
      4 C          -8.7855  -17.3785   22.2448 C.3     1  UNL1        0.1539
      5 C          -9.4205  -16.3668   23.1521 C.3     1  UNL1        0.2350
      6 O          -8.3245  -15.5851   23.8139 O.2     1  UNL1       -0.4478
      7 C          -8.0120  -18.3331   21.3844 C.ar    1  UNL1        0.0355
      8 C          -6.5125  -18.2941   21.3816 C.ar    1  UNL1        0.0007
      9 C          -5.7390  -19.2487   20.5212 C.ar    1  UNL1        0.0015
     10 C          -6.4650  -20.2423   19.6635 C.ar    1  UNL1        0.0031
     11 C          -7.9644  -20.2814   19.6662 C.ar    1  UNL1        0.0366
     12 C          -8.7380  -19.3267   20.5267 C.ar    1  UNL1        0.1363
     13 O         -10.2375  -19.3658   20.5294 O.3     1  UNL1       -0.4768
     14 C         -11.0110  -18.4111   21.3899 C.3     1  UNL1        0.1975
     15 C         -12.5105  -18.4502   21.3926 C.3     1  UNL1        0.1855
     16 O         -13.2840  -17.4956   22.2530 O.3     1  UNL1       -0.3499
     17 C         -12.5580  -16.5019   23.1107 C.3     1  UNL1        0.1425
     18 C         -11.0586  -16.4629   23.1080 C.3     1  UNL1        0.0381
     19 C         -10.2851  -17.4175   22.2476 C.3     1  UNL1        0.0734
     20 H          -4.8467  -16.0338   23.3323 H       1  UNL1        0.1466
     21 H          -5.5686  -14.8837   24.3638 H       1  UNL1        0.1466
     22 C          -4.2395  -19.2096   20.5185 C.ar    1  UNL1        0.0200
     23 C          -3.4695  -19.8925   21.6097 C.ar    1  UNL1        0.0989
     24 N          -1.9700  -19.8534   21.6069 N.ar    1  UNL1       -0.2414
     25 C          -1.2405  -19.1315   20.5130 C.ar    1  UNL1        0.1102
     26 C          -2.0106  -18.4486   19.4218 C.ar    1  UNL1        0.0768
     27 CL         -1.2812  -17.7267   18.3278 Cl      1  UNL1       -0.0806
     28 C          -3.5100  -18.4877   19.4245 C.ar    1  UNL1        0.0145
@<TRIPOS>BOND
     1     1     2    1
     2     2     3    2
     3     3     4    1
     4     4     5    1
     5     5     6    1
     6     4     7    1
     7     7     8   ar
     8     8     9   ar
     9     9    22    1
    10    22    23   ar
    11    23    24   ar
    12    24    25   ar
    13    25    26   ar
    14    26    27    1
    15    26    28   ar
    16     9    10   ar
    17    10    11   ar
    18    11    12   ar
    19    12    13    1
    20    13    14    1
    21    14    15    1
    22    15    16    1
    23    16    17    1
    24    17    18    1
    25    19    18    1
    26     6     2    1
    27    12     7   ar
    28    19    14    1
    29    19     4    1
    30    28    22   ar
    31     1    20    1
    32     1    21    1
@<TRIPOS>MOLECULE
*****
 28 32 0 0 0
SMALL
GASTEIGER

@<TRIPOS>ATOM
      1 N          -8.5632  -20.6660   19.2466 N.pl3   1  UNL1       -0.3133
      2 C          -7.3143  -20.1757   19.9174 C.2     1  UNL1        0.2770
      3 N          -7.2419  -19.1275   20.9879 N.2     1  UNL1       -0.2203
      4 C          -5.8015  -18.9515   21.3676 C.3     1  UNL1        0.1539
      5 C          -4.9837  -19.8908   20.5317 C.3     1  UNL1        0.2350
      6 O          -5.9186  -20.6475   19.6354 O.2     1  UNL1       -0.4478
      7 C          -6.7454  -18.0685   22.1288 C.ar    1  UNL1        0.0355
      8 C          -8.2189  -18.1344   21.8560 C.ar    1  UNL1        0.0007
      9 C          -9.1628  -17.2514   22.6172 C.ar    1  UNL1        0.0015
     10 C          -8.6332  -16.3026   23.6512 C.ar    1  UNL1        0.0031
     11 C          -7.1597  -16.2367   23.9241 C.ar    1  UNL1        0.0366
     12 C          -6.2158  -17.1197   23.1629 C.ar    1  UNL1        0.1363
     13 O          -4.7423  -17.0538   23.4357 O.3     1  UNL1       -0.4768
     14 C          -3.7983  -17.9367   22.6745 C.3     1  UNL1        0.1975
     15 C          -2.3249  -17.8709   22.9473 C.3     1  UNL1        0.1855
     16 O          -1.3810  -18.7538   22.1862 O.3     1  UNL1       -0.3499
     17 C          -1.9106  -19.7026   21.1521 C.3     1  UNL1        0.1425
     18 C          -3.3841  -19.7685   20.8793 C.3     1  UNL1        0.0381
     19 C          -4.3279  -18.8856   21.6405 C.3     1  UNL1        0.0734
     20 H          -9.4378  -20.2930   19.5016 H       1  UNL1        0.1466
     21 H          -8.5081  -21.3609   18.5513 H       1  UNL1        0.1466
     22 C         -10.6363  -17.3173   22.3444 C.ar    1  UNL1        0.0200
     23 C         -11.1596  -17.0086   20.9730 C.ar    1  UNL1        0.0989
     24 N         -12.6332  -17.0745   20.7001 N.ar    1  UNL1       -0.2414
     25 C         -13.5833  -17.4491   21.7987 C.ar    1  UNL1        0.1102
     26 C         -13.0599  -17.7578   23.1701 C.ar    1  UNL1        0.0768
     27 CL        -14.0100  -18.1325   24.2687 Cl      1  UNL1       -0.0806
     28 C         -11.5865  -17.6919   23.4430 C.ar    1  UNL1        0.0145
@<TRIPOS>BOND
     1     1     2    1
     2     2     3    2
     3     3     4    1
     4     4     5    1
     5     5     6    1
     6     4     7    1
     7     7     8   ar
     8     8     9   ar
     9     9    22    1
    10    22    23   ar
    11    23    24   ar
    12    24    25   ar
    13    25    26   ar
    14    26    27    1
    15    26    28   ar
    16     9    10   ar
    17    10    11   ar
    18    11    12   ar
    19    12    13    1
    20    13    14    1
    21    14    15    1
    22    15    16    1
    23    16    17    1
    24    17    18    1
    25    19    18    1
    26     6     2    1
    27    12     7   ar
    28    19    14    1
    29    19     4    1
    30    28    22   ar
    31     1    20    1
    32     1    21    1
@<TRIPOS>MOLECULE
*****
 28 32 0 0 0
SMALL
GASTEIGER

@<TRIPOS>ATOM
      1 N         -16.3149   -3.9493   20.4793 N.pl3   1  UNL1       -0.3133
      2 C         -15.1250   -3.5419   19.6619 C.2     1  UNL1        0.2770
      3 N         -14.3272   -4.4361   18.7598 N.2     1  UNL1       -0.2203
      4 C         -13.2331   -3.6157   18.1434 C.3     1  UNL1        0.1539
      5 C         -13.3548   -2.2145   18.6646 C.3     1  UNL1        0.2350
      6 O         -14.5240   -2.1689   19.6031 O.2     1  UNL1       -0.4478
      7 C         -13.2365   -5.0519   17.7105 C.ar    1  UNL1        0.0355
      8 C         -14.2741   -5.9940   18.2452 C.ar    1  UNL1        0.0007
      9 C         -14.2775   -7.4301   17.8123 C.ar    1  UNL1        0.0015
     10 C         -13.2433   -7.9242   16.8446 C.ar    1  UNL1        0.0031
     11 C         -12.2058   -6.9822   16.3099 C.ar    1  UNL1        0.0366
     12 C         -12.2024   -5.5460   16.7428 C.ar    1  UNL1        0.1363
     13 O         -11.1648   -4.6039   16.2080 O.3     1  UNL1       -0.4768
     14 C         -11.1614   -3.1677   16.6409 C.3     1  UNL1        0.1975
     15 C         -10.1238   -2.2257   16.1062 C.3     1  UNL1        0.1855
     16 O         -10.1204   -0.7895   16.5391 O.3     1  UNL1       -0.3499
     17 C         -11.1546   -0.2955   17.5068 C.3     1  UNL1        0.1425
     18 C         -12.1921   -1.2375   18.0415 C.3     1  UNL1        0.0381
     19 C         -12.1955   -2.6736   17.6086 C.3     1  UNL1        0.0734
     20 H         -16.6363   -4.8795   20.4513 H       1  UNL1        0.1466
     21 H         -16.7746   -3.2865   21.0439 H       1  UNL1        0.1466
     22 C         -15.3150   -8.3722   18.3471 C.ar    1  UNL1        0.0200
     23 C         -15.2227   -9.8388   18.0463 C.ar    1  UNL1        0.0989
     24 N         -16.2604  -10.7808   18.5811 N.ar    1  UNL1       -0.2414
     25 C         -17.3902  -10.2563   19.4166 C.ar    1  UNL1        0.1102
     26 C         -17.4825   -8.7896   19.7174 C.ar    1  UNL1        0.0768
     27 CL        -18.6124   -8.2650   20.5530 Cl      1  UNL1       -0.0806
     28 C         -16.4450   -7.8476   19.1827 C.ar    1  UNL1        0.0145
@<TRIPOS>BOND
     1     1     2    1
     2     2     3    2
     3     3     4    1
     4     4     5    1
     5     5     6    1
     6     4     7    1
     7     7     8   ar
     8     8     9   ar
     9     9    22    1
    10    22    23   ar
    11    23    24   ar
    12    24    25   ar
    13    25    26   ar
    14    26    27    1
    15    26    28   ar
    16     9    10   ar
    17    10    11   ar
    18    11    12   ar
    19    12    13    1
    20    13    14    1
    21    14    15    1
    22    15    16    1
    23    16    17    1
    24    17    18    1
    25    19    18    1
    26     6     2    1
    27    12     7   ar
    28    19    14    1
    29    19     4    1
    30    28    22   ar
    31     1    20    1
    32     1    21    1
@<TRIPOS>MOLECULE
*****
 28 32 0 0 0
SMALL
GASTEIGER

@<TRIPOS>ATOM
      1 N          -6.4030  -15.6954   24.9033 N.pl3   1  UNL1       -0.3133
      2 C          -5.4718  -16.3521   23.9277 C.2     1  UNL1        0.2770
      3 N          -5.8461  -17.3956   22.9173 N.2     1  UNL1       -0.2203
      4 C          -4.6085  -17.7690   22.1564 C.3     1  UNL1        0.1539
      5 C          -3.4694  -16.9563   22.6966 C.3     1  UNL1        0.2350
      6 O          -4.0029  -16.0805   23.7913 O.2     1  UNL1       -0.4478
      7 C          -5.8387  -18.5087   21.7212 C.ar    1  UNL1        0.0355
      8 C          -7.1528  -18.2393   22.3927 C.ar    1  UNL1        0.0007
      9 C          -8.3830  -18.9790   21.9575 C.ar    1  UNL1        0.0015
     10 C          -8.2993  -19.9880   20.8507 C.ar    1  UNL1        0.0031
     11 C          -6.9853  -20.2574   20.1792 C.ar    1  UNL1        0.0366
     12 C          -5.7550  -19.5177   20.6144 C.ar    1  UNL1        0.1363
     13 O          -4.4411  -19.7871   19.9429 O.3     1  UNL1       -0.4768
     14 C          -3.2108  -19.0474   20.3781 C.3     1  UNL1        0.1975
     15 C          -1.8969  -19.3168   19.7066 C.3     1  UNL1        0.1855
     16 O          -0.6667  -18.5771   20.1418 O.3     1  UNL1       -0.3499
     17 C          -0.7504  -17.5681   21.2486 C.3     1  UNL1        0.1425
     18 C          -2.0643  -17.2987   21.9201 C.3     1  UNL1        0.0381
     19 C          -3.2945  -18.0384   21.4849 C.3     1  UNL1        0.0734
     20 H          -7.3560  -15.9419   24.9164 H       1  UNL1        0.1466
     21 H          -6.0611  -15.0179   25.5305 H       1  UNL1        0.1466
     22 C          -9.6969  -18.7096   22.6290 C.ar    1  UNL1        0.0200
     23 C         -10.2030  -19.6431   23.6885 C.ar    1  UNL1        0.0989
     24 N         -11.5170  -19.3737   24.3601 N.ar    1  UNL1       -0.2414
     25 C         -12.3248  -18.1709   23.9721 C.ar    1  UNL1        0.1102
     26 C         -11.8188  -17.2374   22.9126 C.ar    1  UNL1        0.0768
     27 CL        -12.6266  -16.0346   22.5246 Cl      1  UNL1       -0.0806
     28 C         -10.5048  -17.5068   22.2410 C.ar    1  UNL1        0.0145
@<TRIPOS>BOND
     1     1     2    1
     2     2     3    2
     3     3     4    1
     4     4     5    1
     5     5     6    1
     6     4     7    1
     7     7     8   ar
     8     8     9   ar
     9     9    22    1
    10    22    23   ar
    11    23    24   ar
    12    24    25   ar
    13    25    26   ar
    14    26    27    1
    15    26    28   ar
    16     9    10   ar
    17    10    11   ar
    18    11    12   ar
    19    12    13    1
    20    13    14    1
    21    14    15    1
    22    15    16    1
    23    16    17    1
    24    17    18    1
    25    19    18    1
    26     6     2    1
    27    12     7   ar
    28    19    14    1
    29    19     4    1
    30    28    22   ar
    31     1    20    1
    32     1    21    1
@<TRIPOS>MOLECULE
*****
 28 32 0 0 0
SMALL
GASTEIGER

@<TRIPOS>ATOM
      1 N         -16.4214   -3.7881   20.5423 N.pl3   1  UNL1       -0.3133
      2 C         -15.0675   -4.1477   20.0060 C.2     1  UNL1        0.2770
      3 N         -14.0922   -3.2029   19.3686 N.2     1  UNL1       -0.2203
      4 C         -12.8730   -3.9865   18.9817 C.3     1  UNL1        0.1539
      5 C         -13.0948   -5.4155   19.3800 C.3     1  UNL1        0.2350
      6 O         -14.4510   -5.5152   20.0131 O.2     1  UNL1       -0.4478
      7 C         -12.7940   -2.5277   18.6417 C.ar    1  UNL1        0.0355
      8 C         -13.9407   -1.6179   18.9695 C.ar    1  UNL1        0.0007
      9 C         -13.8617   -0.1591   18.6295 C.ar    1  UNL1        0.0015
     10 C         -12.6359    0.3899   17.9615 C.ar    1  UNL1        0.0031
     11 C         -11.4893   -0.5198   17.6337 C.ar    1  UNL1        0.0366
     12 C         -11.5683   -1.9786   17.9737 C.ar    1  UNL1        0.1363
     13 O         -10.4216   -2.8883   17.6459 O.3     1  UNL1       -0.4768
     14 C         -10.5006   -4.3472   17.9859 C.3     1  UNL1        0.1975
     15 C          -9.3539   -5.2569   17.6581 C.3     1  UNL1        0.1855
     16 O          -9.4330   -6.7156   17.9981 O.3     1  UNL1       -0.3499
     17 C         -10.6587   -7.2647   18.6661 C.3     1  UNL1        0.1425
     18 C         -11.8054   -6.3550   18.9939 C.3     1  UNL1        0.0381
     19 C         -11.7263   -4.8962   18.6539 C.3     1  UNL1        0.0734
     20 H         -16.7396   -2.8578   20.4918 H       1  UNL1        0.1466
     21 H         -16.9918   -4.4823   20.9446 H       1  UNL1        0.1466
     22 C         -15.0083    0.7506   18.9573 C.ar    1  UNL1        0.0200
     23 C         -14.9845    2.1804   18.5047 C.ar    1  UNL1        0.0989
     24 N         -16.1312    3.0902   18.8326 N.ar    1  UNL1       -0.2414
     25 C         -17.3018    2.5700   19.6131 C.ar    1  UNL1        0.1102
     26 C         -17.3256    1.1401   20.0657 C.ar    1  UNL1        0.0768
     27 CL        -18.4962    0.6199   20.8462 Cl      1  UNL1       -0.0806
     28 C         -16.1790    0.2304   19.7378 C.ar    1  UNL1        0.0145
@<TRIPOS>BOND
     1     1     2    1
     2     2     3    2
     3     3     4    1
     4     4     5    1
     5     5     6    1
     6     4     7    1
     7     7     8   ar
     8     8     9   ar
     9     9    22    1
    10    22    23   ar
    11    23    24   ar
    12    24    25   ar
    13    25    26   ar
    14    26    27    1
    15    26    28   ar
    16     9    10   ar
    17    10    11   ar
    18    11    12   ar
    19    12    13    1
    20    13    14    1
    21    14    15    1
    22    15    16    1
    23    16    17    1
    24    17    18    1
    25    19    18    1
    26     6     2    1
    27    12     7   ar
    28    19    14    1
    29    19     4    1
    30    28    22   ar
    31     1    20    1
    32     1    21    1
@<TRIPOS>MOLECULE
*****
 28 32 0 0 0
SMALL
GASTEIGER

@<TRIPOS>ATOM
      1 N         -17.8321   -3.4452   20.0431 N.pl3   1  UNL1       -0.3133
      2 C         -16.3691   -3.5613   19.7333 C.2     1  UNL1        0.2770
      3 N         -15.6453   -4.8191   19.3536 N.2     1  UNL1       -0.2203
      4 C         -14.2019   -4.4752   19.1343 C.3     1  UNL1        0.1539
      5 C         -14.0335   -3.0048   19.3785 C.3     1  UNL1        0.2350
      6 O         -15.3729   -2.4400   19.7486 O.2     1  UNL1       -0.4478
      7 C         -14.5222   -5.9254   18.9240 C.ar    1  UNL1        0.0355
      8 C         -15.9273   -6.4174   19.1078 C.ar    1  UNL1        0.0007
      9 C         -16.2477   -7.8676   18.8974 C.ar    1  UNL1        0.0015
     10 C         -15.1630   -8.8258   18.5032 C.ar    1  UNL1        0.0031
     11 C         -13.7580   -8.3338   18.3194 C.ar    1  UNL1        0.0366
     12 C         -13.4376   -6.8836   18.5298 C.ar    1  UNL1        0.1363
     13 O         -12.0325   -6.3916   18.3460 O.3     1  UNL1       -0.4768
     14 C         -11.7121   -4.9413   18.5564 C.3     1  UNL1        0.1975
     15 C         -10.3071   -4.4494   18.3726 C.3     1  UNL1        0.1855
     16 O          -9.9867   -2.9992   18.5829 O.3     1  UNL1       -0.3499
     17 C         -11.0714   -2.0410   18.9771 C.3     1  UNL1        0.1425
     18 C         -12.4764   -2.5330   19.1609 C.3     1  UNL1        0.0381
     19 C         -12.7968   -3.9831   18.9505 C.3     1  UNL1        0.0734
     20 H         -18.4079   -4.2429   20.0061 H       1  UNL1        0.1466
     21 H         -18.2165   -2.5714   20.2836 H       1  UNL1        0.1466
     22 C         -17.6527   -8.3596   19.0812 C.ar    1  UNL1        0.0200
     23 C         -18.3546   -9.0617   17.9568 C.ar    1  UNL1        0.0989
     24 N         -19.7597   -9.5536   18.1407 N.ar    1  UNL1       -0.2414
     25 C         -20.4628   -9.3435   19.4489 C.ar    1  UNL1        0.1102
     26 C         -19.7608   -8.6414   20.5733 C.ar    1  UNL1        0.0768
     27 CL        -20.4639   -8.4313   21.8815 Cl      1  UNL1       -0.0806
     28 C         -18.3558   -8.1494   20.3895 C.ar    1  UNL1        0.0145
@<TRIPOS>BOND
     1     1     2    1
     2     2     3    2
     3     3     4    1
     4     4     5    1
     5     5     6    1
     6     4     7    1
     7     7     8   ar
     8     8     9   ar
     9     9    22    1
    10    22    23   ar
    11    23    24   ar
    12    24    25   ar
    13    25    26   ar
    14    26    27    1
    15    26    28   ar
    16     9    10   ar
    17    10    11   ar
    18    11    12   ar
    19    12    13    1
    20    13    14    1
    21    14    15    1
    22    15    16    1
    23    16    17    1
    24    17    18    1
    25    19    18    1
    26     6     2    1
    27    12     7   ar
    28    19    14    1
    29    19     4    1
    30    28    22   ar
    31     1    20    1
    32     1    21    1
@<TRIPOS>MOLECULE
*****
 28 32 0 0 0
SMALL
GASTEIGER

@<TRIPOS>ATOM
      1 N         -11.9082   -7.6511   16.7920 N.pl3   1  UNL1       -0.3133
      2 C         -11.9445   -6.1635   16.9803 C.2     1  UNL1        0.2770
      3 N         -13.0271   -5.3883   17.6711 N.2     1  UNL1       -0.2203
      4 C         -12.6563   -3.9355   17.6287 C.3     1  UNL1        0.1539
      5 C         -11.3445   -3.8127   16.9116 C.3     1  UNL1        0.2350
      6 O         -10.9046   -5.1897   16.5109 O.2     1  UNL1       -0.4478
      7 C         -13.9571   -4.2131   18.3221 C.ar    1  UNL1        0.0355
      8 C         -14.4575   -5.6222   18.4417 C.ar    1  UNL1        0.0007
      9 C         -15.7582   -5.8998   19.1351 C.ar    1  UNL1        0.0015
     10 C         -16.5587   -4.7684   19.7090 C.ar    1  UNL1        0.0031
     11 C         -16.0583   -3.3594   19.5894 C.ar    1  UNL1        0.0366
     12 C         -14.7575   -3.0817   18.8959 C.ar    1  UNL1        0.1363
     13 O         -14.2571   -1.6727   18.7763 O.3     1  UNL1       -0.4768
     14 C         -12.9563   -1.3951   18.0829 C.3     1  UNL1        0.1975
     15 C         -12.4559    0.0139   17.9633 C.3     1  UNL1        0.1855
     16 O         -11.1552    0.2915   17.2699 O.3     1  UNL1       -0.3499
     17 C         -10.3547   -0.8399   16.6960 C.3     1  UNL1        0.1425
     18 C         -10.8551   -2.2489   16.8156 C.3     1  UNL1        0.0381
     19 C         -12.1559   -2.5264   17.5090 C.3     1  UNL1        0.0734
     20 H         -12.6419   -8.2091   17.1378 H       1  UNL1        0.1466
     21 H         -11.1507   -8.0696   16.3226 H       1  UNL1        0.1466
     22 C         -16.2586   -7.3087   19.2547 C.ar    1  UNL1        0.0200
     23 C         -15.3440   -8.4579   18.9497 C.ar    1  UNL1        0.0989
     24 N         -15.8444   -9.8669   19.0693 N.ar    1  UNL1       -0.2414
     25 C         -17.2594  -10.1268   19.4939 C.ar    1  UNL1        0.1102
     26 C         -18.1740   -8.9777   19.7989 C.ar    1  UNL1        0.0768
     27 CL        -19.5889   -9.2375   20.2235 Cl      1  UNL1       -0.0806
     28 C         -17.6736   -7.5687   19.6793 C.ar    1  UNL1        0.0145
@<TRIPOS>BOND
     1     1     2    1
     2     2     3    2
     3     3     4    1
     4     4     5    1
     5     5     6    1
     6     4     7    1
     7     7     8   ar
     8     8     9   ar
     9     9    22    1
    10    22    23   ar
    11    23    24   ar
    12    24    25   ar
    13    25    26   ar
    14    26    27    1
    15    26    28   ar
    16     9    10   ar
    17    10    11   ar
    18    11    12   ar
    19    12    13    1
    20    13    14    1
    21    14    15    1
    22    15    16    1
    23    16    17    1
    24    17    18    1
    25    19    18    1
    26     6     2    1
    27    12     7   ar
    28    19    14    1
    29    19     4    1
    30    28    22   ar
    31     1    20    1
    32     1    21    1
@<TRIPOS>MOLECULE
*****
 28 32 0 0 0
SMALL
GASTEIGER

@<TRIPOS>ATOM
      1 N          -0.9668    2.2332   20.7403 N.pl3   1  UNL1       -0.3133
      2 C           0.2288    1.4631   20.2635 C.2     1  UNL1        0.2770
      3 N           1.2725    0.8275   21.1334 N.2     1  UNL1       -0.2203
      4 C           2.2794    0.1649   20.2406 C.3     1  UNL1        0.1539
      5 C           1.8580    0.3910   18.8189 C.3     1  UNL1        0.2350
      6 O           0.5907    1.1933   18.8330 O.2     1  UNL1       -0.4478
      7 C           2.5735    0.0206   21.7044 C.ar    1  UNL1        0.0355
      8 C           1.6526    0.6322   22.7183 C.ar    1  UNL1        0.0007
      9 C           1.9467    0.4878   24.1820 C.ar    1  UNL1        0.0015
     10 C           3.1617   -0.2681   24.6320 C.ar    1  UNL1        0.0031
     11 C           4.0825   -0.8797   23.6181 C.ar    1  UNL1        0.0366
     12 C           3.7885   -0.7354   22.1543 C.ar    1  UNL1        0.1363
     13 O           4.7093   -1.3470   21.1405 O.3     1  UNL1       -0.4768
     14 C           4.4152   -1.2027   19.6766 C.3     1  UNL1        0.1975
     15 C           5.3361   -1.8143   18.6628 C.3     1  UNL1        0.1855
     16 O           5.0420   -1.6699   17.1990 O.3     1  UNL1       -0.3499
     17 C           3.8271   -0.9140   16.7491 C.3     1  UNL1        0.1425
     18 C           2.9062   -0.3024   17.7629 C.3     1  UNL1        0.0381
     19 C           3.2003   -0.4467   19.2267 C.3     1  UNL1        0.0734
     20 H          -1.1196    2.3574   21.7049 H       1  UNL1        0.1466
     21 H          -1.5987    2.6144   20.0887 H       1  UNL1        0.1466
     22 C           1.0258    1.0994   25.1959 C.ar    1  UNL1        0.0200
     23 C           1.3237    0.9611   26.6595 C.ar    1  UNL1        0.0989
     24 N           0.4028    1.5728   27.6734 N.ar    1  UNL1       -0.2414
     25 C          -0.8160    2.3227   27.2236 C.ar    1  UNL1        0.1102
     26 C          -1.1138    2.4610   25.7600 C.ar    1  UNL1        0.0768
     27 CL         -2.3325    3.2109   25.3102 Cl      1  UNL1       -0.0806
     28 C          -0.1929    1.8494   24.7461 C.ar    1  UNL1        0.0145
@<TRIPOS>BOND
     1     1     2    1
     2     2     3    2
     3     3     4    1
     4     4     5    1
     5     5     6    1
     6     4     7    1
     7     7     8   ar
     8     8     9   ar
     9     9    22    1
    10    22    23   ar
    11    23    24   ar
    12    24    25   ar
    13    25    26   ar
    14    26    27    1
    15    26    28   ar
    16     9    10   ar
    17    10    11   ar
    18    11    12   ar
    19    12    13    1
    20    13    14    1
    21    14    15    1
    22    15    16    1
    23    16    17    1
    24    17    18    1
    25    19    18    1
    26     6     2    1
    27    12     7   ar
    28    19    14    1
    29    19     4    1
    30    28    22   ar
    31     1    20    1
    32     1    21    1
