@<TRIPOS>MOLECULE
*****
 28 32 0 0 0
SMALL
GASTEIGER

@<TRIPOS>ATOM
      1 C          -5.1297  -17.8165   22.2654 C.3     1  UNL1        0.0581
      2 C          -4.7483  -17.1640   23.5610 C.3     1  UNL1        0.0163
      3 C          -6.0027  -16.6689   24.2176 C.3     1  UNL1        0.0058
      4 C          -7.1594  -17.0153   23.3277 C.3     1  UNL1        0.0240
      5 C          -8.1292  -17.4693   22.2772 C.3     1  UNL1        0.0301
      6 C          -9.6209  -17.3136   22.2514 C.ar    1  UNL1       -0.0255
      7 C         -10.2131  -17.9127   21.0104 C.ar    1  UNL1       -0.0046
      8 C         -11.6956  -17.8638   20.7877 C.ar    1  UNL1       -0.0003
      9 C         -12.5860  -17.2157   21.8062 C.ar    1  UNL1       -0.0003
     10 C         -11.9938  -16.6166   23.0472 C.ar    1  UNL1       -0.0042
     11 C         -10.5113  -16.6655   23.2699 C.ar    1  UNL1       -0.0217
     12 C         -10.1298  -16.0130   24.5656 C.3     1  UNL1        0.0520
     13 C          -8.7639  -15.8475   25.1629 C.ar    1  UNL1       -0.0218
     14 C          -8.8247  -15.1331   26.4804 C.ar    1  UNL1       -0.0042
     15 C          -7.5636  -14.8647   27.2470 C.ar    1  UNL1       -0.0003
     16 C          -6.2418  -15.3108   26.6961 C.ar    1  UNL1       -0.0003
     17 C          -6.1809  -16.0252   25.3785 C.ar    1  UNL1       -0.0046
     18 C          -7.4419  -16.2936   24.6119 C.ar    1  UNL1       -0.0261
     19 C          -6.6199  -17.7246   22.1211 C.3     1  UNL1        0.0203
     20 C          -1.8473  -18.5536   20.1600 C.2     1  UNL1        0.0036
     21 C          -2.3000  -19.7160   19.3269 C.2     1  UNL1       -0.0265
     22 C          -3.6959  -20.2452   19.4733 C.3     1  UNL1        0.0431
     23 C          -4.6391  -19.6120   20.4528 C.3     1  UNL1        0.0770
     24 N          -4.1864  -18.4496   21.2859 N.3     1  UNL1       -0.2699
     25 C          -2.7905  -17.9205   21.1394 C.3     1  UNL1        0.0999
     26 O           0.6753  -18.9603   19.6895 O.co2   1  UNL1       -0.5449
     27 C          -0.4514  -18.0244   20.0135 C.2     1  UNL1        0.0699
     28 O          -0.1821  -16.5595   20.1909 O.co2   1  UNL1       -0.5449
@<TRIPOS>UNITY_ATOM_ATTR
26 1
charge -1
@<TRIPOS>BOND
     1    26    27   ar
     2    27    28   ar
     3    27    20    1
     4    20    21    2
     5    21    22    1
     6    22    23    1
     7    23    24    1
     8    24     1    1
     9     1     2    1
    10     2     3    1
    11     4     3    1
    12     4     5    1
    13     5     6    1
    14     6     7   ar
    15     7     8   ar
    16     8     9   ar
    17     9    10   ar
    18    10    11   ar
    19    11    12    1
    20    12    13    1
    21    13    14   ar
    22    14    15   ar
    23    15    16   ar
    24    16    17   ar
    25    17    18   ar
    26     4    19    1
    27    24    25    1
    28    25    20    1
    29    19     1    1
    30    18     4    1
    31    11     6   ar
    32    18    13   ar
@<TRIPOS>MOLECULE
*****
 28 32 0 0 0
SMALL
GASTEIGER

@<TRIPOS>ATOM
      1 C           4.2269   -1.3489   25.2190 C.3     1  UNL1        0.0581
      2 C           4.8948   -2.4165   24.4042 C.3     1  UNL1        0.0163
      3 C           4.3635   -2.3316   23.0041 C.3     1  UNL1        0.0058
      4 C           3.3672   -1.2114   22.9536 C.3     1  UNL1        0.0240
      5 C           2.4288   -0.0602   23.1637 C.3     1  UNL1        0.0301
      6 C           1.5239    0.6027   22.1678 C.ar    1  UNL1       -0.0255
      7 C           0.7479    1.7235   22.7936 C.ar    1  UNL1       -0.0046
      8 C          -0.2182    2.5196   21.9673 C.ar    1  UNL1       -0.0003
      9 C          -0.4082    2.1950   20.5152 C.ar    1  UNL1       -0.0003
     10 C           0.3679    1.0742   19.8895 C.ar    1  UNL1       -0.0042
     11 C           1.3339    0.2781   20.7158 C.ar    1  UNL1       -0.0217
     12 C           2.0019   -0.7896   19.9010 C.3     1  UNL1        0.0520
     13 C           3.0248   -1.7964   20.3370 C.ar    1  UNL1       -0.0218
     14 C           3.4344   -2.6881   19.2025 C.ar    1  UNL1       -0.0042
     15 C           4.4516   -3.7675   19.4265 C.ar    1  UNL1       -0.0003
     16 C           5.0592   -3.9552   20.7850 C.ar    1  UNL1       -0.0003
     17 C           4.6496   -3.0635   21.9195 C.ar    1  UNL1       -0.0046
     18 C           3.6324   -1.9841   21.6955 C.ar    1  UNL1       -0.0261
     19 C           3.2827   -0.6040   24.3225 C.3     1  UNL1        0.0203
     20 C           3.5341   -0.7100   29.0741 C.2     1  UNL1        0.0036
     21 C           4.9317   -0.5249   29.5865 C.2     1  UNL1       -0.0265
     22 C           6.0944   -0.6145   28.6430 C.3     1  UNL1        0.0431
     23 C           5.8595   -0.8891   27.1872 C.3     1  UNL1        0.0770
     24 N           4.4618   -1.0742   26.6748 N.3     1  UNL1       -0.2699
     25 C           3.2992   -0.9847   27.6184 C.3     1  UNL1        0.0999
     26 O           2.5879   -0.7883   31.4925 O.co2   1  UNL1       -0.5449
     27 C           2.3714   -0.6205   30.0177 C.2     1  UNL1        0.0699
     28 O           0.9924   -0.3631   29.4865 O.co2   1  UNL1       -0.5449
@<TRIPOS>UNITY_ATOM_ATTR
26 1
charge -1
@<TRIPOS>BOND
     1    26    27   ar
     2    27    28   ar
     3    27    20    1
     4    20    21    2
     5    21    22    1
     6    22    23    1
     7    23    24    1
     8    24     1    1
     9     1     2    1
    10     2     3    1
    11     4     3    1
    12     4     5    1
    13     5     6    1
    14     6     7   ar
    15     7     8   ar
    16     8     9   ar
    17     9    10   ar
    18    10    11   ar
    19    11    12    1
    20    12    13    1
    21    13    14   ar
    22    14    15   ar
    23    15    16   ar
    24    16    17   ar
    25    17    18   ar
    26     4    19    1
    27    24    25    1
    28    25    20    1
    29    19     1    1
    30    18     4    1
    31    11     6   ar
    32    18    13   ar
@<TRIPOS>MOLECULE
*****
 28 32 0 0 0
SMALL
GASTEIGER

@<TRIPOS>ATOM
      1 C           3.2722   -0.1851   25.3486 C.3     1  UNL1        0.0581
      2 C           2.2006    0.7968   24.9781 C.3     1  UNL1        0.0163
      3 C           1.9031    0.6291   23.5175 C.3     1  UNL1        0.0058
      4 C           2.7909   -0.4566   22.9854 C.3     1  UNL1        0.0240
      5 C           3.7718   -1.5563   22.7051 C.3     1  UNL1        0.0301
      6 C           4.0448   -2.2579   21.4077 C.ar    1  UNL1       -0.0255
      7 C           5.1097   -3.3028   21.5632 C.ar    1  UNL1       -0.0046
      8 C           5.5342   -4.1227   20.3811 C.ar    1  UNL1       -0.0003
      9 C           4.8937   -3.8978   19.0435 C.ar    1  UNL1       -0.0003
     10 C           3.8288   -2.8530   18.8880 C.ar    1  UNL1       -0.0042
     11 C           3.4043   -2.0331   20.0701 C.ar    1  UNL1       -0.0217
     12 C           2.3327   -1.0511   19.6996 C.3     1  UNL1        0.0520
     13 C           1.6368   -0.0514   20.5750 C.ar    1  UNL1       -0.0218
     14 C           0.6232    0.7409   19.8038 C.ar    1  UNL1       -0.0042
     15 C          -0.1864    1.7978   20.4948 C.ar    1  UNL1       -0.0003
     16 C           0.0175    2.0623   21.9571 C.ar    1  UNL1       -0.0003
     17 C           1.0311    1.2700   22.7284 C.ar    1  UNL1       -0.0046
     18 C           1.8408    0.2131   22.0374 C.ar    1  UNL1       -0.0261
     19 C           3.6371   -0.9598   24.1171 C.3     1  UNL1        0.0203
     20 C           3.5901   -0.5745   29.2853 C.2     1  UNL1        0.0036
     21 C           5.0759   -0.7141   29.4373 C.2     1  UNL1       -0.0265
     22 C           5.9605   -0.6774   28.2264 C.3     1  UNL1        0.0431
     23 C           5.3592   -0.5010   26.8635 C.3     1  UNL1        0.0770
     24 N           3.8734   -0.3615   26.7115 N.3     1  UNL1       -0.2699
     25 C           2.9889   -0.3982   27.9225 C.3     1  UNL1        0.0999
     26 O           1.3762    0.0832   30.4753 O.co2   1  UNL1       -0.5449
     27 C           2.7056   -0.6113   30.4963 C.2     1  UNL1        0.0699
     28 O           3.1505   -1.3425   31.7281 O.co2   1  UNL1       -0.5449
@<TRIPOS>UNITY_ATOM_ATTR
26 1
charge -1
@<TRIPOS>BOND
     1    26    27   ar
     2    27    28   ar
     3    27    20    1
     4    20    21    2
     5    21    22    1
     6    22    23    1
     7    23    24    1
     8    24     1    1
     9     1     2    1
    10     2     3    1
    11     4     3    1
    12     4     5    1
    13     5     6    1
    14     6     7   ar
    15     7     8   ar
    16     8     9   ar
    17     9    10   ar
    18    10    11   ar
    19    11    12    1
    20    12    13    1
    21    13    14   ar
    22    14    15   ar
    23    15    16   ar
    24    16    17   ar
    25    17    18   ar
    26     4    19    1
    27    24    25    1
    28    25    20    1
    29    19     1    1
    30    18     4    1
    31    11     6   ar
    32    18    13   ar
@<TRIPOS>MOLECULE
*****
 28 32 0 0 0
SMALL
GASTEIGER

@<TRIPOS>ATOM
      1 C          -6.0824  -18.6605   21.2084 C.3     1  UNL1        0.0581
      2 C          -7.3870  -18.9178   20.5144 C.3     1  UNL1        0.0163
      3 C          -8.4791  -18.3007   21.3367 C.3     1  UNL1        0.0058
      4 C          -7.8494  -17.6618   22.5390 C.3     1  UNL1        0.0240
      5 C          -6.9883  -17.1120   23.6373 C.3     1  UNL1        0.0301
      6 C          -7.4042  -16.3405   24.8546 C.ar    1  UNL1       -0.0255
      7 C          -6.2221  -15.9768   25.7032 C.ar    1  UNL1       -0.0046
      8 C          -6.4198  -15.2008   26.9716 C.ar    1  UNL1       -0.0003
      9 C          -7.7996  -14.7885   27.3912 C.ar    1  UNL1       -0.0003
     10 C          -8.9817  -15.1522   26.5425 C.ar    1  UNL1       -0.0042
     11 C          -8.7840  -15.9282   25.2742 C.ar    1  UNL1       -0.0217
     12 C         -10.0887  -16.1856   24.5802 C.3     1  UNL1        0.0520
     13 C         -10.3358  -16.9188   23.2952 C.ar    1  UNL1       -0.0218
     14 C         -11.7960  -16.9488   22.9533 C.ar    1  UNL1       -0.0042
     15 C         -12.2596  -17.6358   21.7031 C.ar    1  UNL1       -0.0003
     16 C         -11.2631  -18.2928   20.7947 C.ar    1  UNL1       -0.0003
     17 C          -9.8028  -18.2628   21.1365 C.ar    1  UNL1       -0.0046
     18 C          -9.3392  -17.5758   22.3867 C.ar    1  UNL1       -0.0261
     19 C          -6.3681  -17.8842   22.4597 C.3     1  UNL1        0.0203
     20 C          -2.1973  -18.6267   20.3990 C.2     1  UNL1        0.0036
     21 C          -2.0235  -19.9848   19.7862 C.2     1  UNL1       -0.0265
     22 C          -3.2027  -20.9014   19.6474 C.3     1  UNL1        0.0431
     23 C          -4.5557  -20.4600   20.1215 C.3     1  UNL1        0.0770
     24 N          -4.7294  -19.1019   20.7343 N.3     1  UNL1       -0.2699
     25 C          -3.5501  -18.1853   20.8730 C.3     1  UNL1        0.0999
     26 O           0.3602  -18.2072   20.2161 O.co2   1  UNL1       -0.5449
     27 C          -1.0180  -17.7100   20.5377 C.2     1  UNL1        0.0699
     28 O          -1.2169  -16.2963   20.9979 O.co2   1  UNL1       -0.5449
@<TRIPOS>UNITY_ATOM_ATTR
26 1
charge -1
@<TRIPOS>BOND
     1    26    27   ar
     2    27    28   ar
     3    27    20    1
     4    20    21    2
     5    21    22    1
     6    22    23    1
     7    23    24    1
     8    24     1    1
     9     1     2    1
    10     2     3    1
    11     4     3    1
    12     4     5    1
    13     5     6    1
    14     6     7   ar
    15     7     8   ar
    16     8     9   ar
    17     9    10   ar
    18    10    11   ar
    19    11    12    1
    20    12    13    1
    21    13    14   ar
    22    14    15   ar
    23    15    16   ar
    24    16    17   ar
    25    17    18   ar
    26     4    19    1
    27    24    25    1
    28    25    20    1
    29    19     1    1
    30    18     4    1
    31    11     6   ar
    32    18    13   ar
@<TRIPOS>MOLECULE
*****
 28 32 0 0 0
SMALL
GASTEIGER

@<TRIPOS>ATOM
      1 C           1.0126    0.9507   20.0707 C.3     1  UNL1        0.0581
      2 C           1.6145   -0.1037   19.1899 C.3     1  UNL1        0.0163
      3 C           2.4860   -0.9776   20.0422 C.3     1  UNL1        0.0058
      4 C           2.4228   -0.4633   21.4499 C.3     1  UNL1        0.0240
      5 C           2.1933    0.2367   22.7566 C.3     1  UNL1        0.0301
      6 C           2.7622   -0.0905   24.1054 C.ar    1  UNL1       -0.0255
      7 C           2.2744    0.8663   25.1526 C.ar    1  UNL1       -0.0046
      8 C           2.7255    0.7151   26.5751 C.ar    1  UNL1       -0.0003
      9 C           3.6644   -0.3929   26.9504 C.ar    1  UNL1       -0.0003
     10 C           4.1522   -1.3496   25.9033 C.ar    1  UNL1       -0.0042
     11 C           3.7010   -1.1984   24.4808 C.ar    1  UNL1       -0.0217
     12 C           4.3029   -2.2529   23.5999 C.3     1  UNL1        0.0520
     13 C           4.1146   -2.4599   22.1262 C.ar    1  UNL1       -0.0218
     14 C           4.9023   -3.6373   21.6331 C.ar    1  UNL1       -0.0042
     15 C           4.8532   -4.0183   20.1831 C.ar    1  UNL1       -0.0003
     16 C           4.0165   -3.2219   19.2263 C.ar    1  UNL1       -0.0003
     17 C           3.2288   -2.0444   19.7194 C.ar    1  UNL1       -0.0046
     18 C           3.2779   -1.6634   21.1694 C.ar    1  UNL1       -0.0261
     19 C           1.5121    0.7285   21.4675 C.3     1  UNL1        0.0203
     20 C          -2.0176    3.5135   20.0649 C.2     1  UNL1        0.0036
     21 C          -1.7984    4.2087   18.7539 C.2     1  UNL1       -0.0265
     22 C          -0.6422    3.8179   17.8818 C.3     1  UNL1        0.0431
     23 C           0.2948    2.7319   18.3207 C.3     1  UNL1        0.0770
     24 N           0.0756    2.0367   19.6317 N.3     1  UNL1       -0.2699
     25 C          -1.0807    2.4276   20.5038 C.3     1  UNL1        0.0999
     26 O          -4.1087    2.8536   21.4584 O.co2   1  UNL1       -0.5449
     27 C          -3.1738    3.9044   20.9370 C.2     1  UNL1        0.0699
     28 O          -3.3952    5.3459   21.2875 O.co2   1  UNL1       -0.5449
@<TRIPOS>UNITY_ATOM_ATTR
26 1
charge -1
@<TRIPOS>BOND
     1    26    27   ar
     2    27    28   ar
     3    27    20    1
     4    20    21    2
     5    21    22    1
     6    22    23    1
     7    23    24    1
     8    24     1    1
     9     1     2    1
    10     2     3    1
    11     4     3    1
    12     4     5    1
    13     5     6    1
    14     6     7   ar
    15     7     8   ar
    16     8     9   ar
    17     9    10   ar
    18    10    11   ar
    19    11    12    1
    20    12    13    1
    21    13    14   ar
    22    14    15   ar
    23    15    16   ar
    24    16    17   ar
    25    17    18   ar
    26     4    19    1
    27    24    25    1
    28    25    20    1
    29    19     1    1
    30    18     4    1
    31    11     6   ar
    32    18    13   ar
@<TRIPOS>MOLECULE
*****
 28 32 0 0 0
SMALL
GASTEIGER

@<TRIPOS>ATOM
      1 C          -2.5450    3.2339   25.8611 C.3     1  UNL1        0.0581
      2 C          -3.3158    3.9575   26.9250 C.3     1  UNL1        0.0163
      3 C          -4.5388    4.5496   26.2898 C.3     1  UNL1        0.0058
      4 C          -4.5238    4.1920   24.8331 C.3     1  UNL1        0.0240
      5 C          -4.2786    3.7082   23.4346 C.3     1  UNL1        0.0301
      6 C          -5.1166    3.9250   22.2095 C.ar    1  UNL1       -0.0255
      7 C          -4.5086    3.2672   21.0063 C.ar    1  UNL1       -0.0046
      8 C          -5.1909    3.3636   19.6740 C.ar    1  UNL1       -0.0003
      9 C          -6.4811    4.1178   19.5448 C.ar    1  UNL1       -0.0003
     10 C          -7.0890    4.7755   20.7480 C.ar    1  UNL1       -0.0042
     11 C          -6.4067    4.6791   22.0804 C.ar    1  UNL1       -0.0217
     12 C          -7.1776    5.4028   23.1444 C.3     1  UNL1        0.0520
     13 C          -6.8487    5.5510   24.6004 C.ar    1  UNL1       -0.0218
     14 C          -7.8905    6.3566   25.3184 C.ar    1  UNL1       -0.0042
     15 C          -7.7513    6.6235   26.7879 C.ar    1  UNL1       -0.0003
     16 C          -6.5703    6.0847   27.5394 C.ar    1  UNL1       -0.0003
     17 C          -5.5284    5.2790   26.8214 C.ar    1  UNL1       -0.0046
     18 C          -5.6676    5.0121   25.3519 C.ar    1  UNL1       -0.0261
     19 C          -3.2916    3.3788   24.5681 C.3     1  UNL1        0.0203
     20 C           0.3493    1.1294   27.5769 C.2     1  UNL1        0.0036
     21 C           1.3274    1.0173   26.4451 C.2     1  UNL1       -0.0265
     22 C           1.0148    1.6441   25.1187 C.3     1  UNL1        0.0431
     23 C          -0.2760    2.3830   24.9240 C.3     1  UNL1        0.0770
     24 N          -1.2542    2.4950   26.0557 N.3     1  UNL1       -0.2699
     25 C          -0.9414    1.8682   27.3822 C.3     1  UNL1        0.0999
     26 O           1.7369   -0.5388   29.0059 O.co2   1  UNL1       -0.5449
     27 C           0.6620    0.5025   28.9033 C.2     1  UNL1        0.0699
     28 O          -0.1000    0.9169   30.1270 O.co2   1  UNL1       -0.5449
@<TRIPOS>UNITY_ATOM_ATTR
26 1
charge -1
@<TRIPOS>BOND
     1    26    27   ar
     2    27    28   ar
     3    27    20    1
     4    20    21    2
     5    21    22    1
     6    22    23    1
     7    23    24    1
     8    24     1    1
     9     1     2    1
    10     2     3    1
    11     4     3    1
    12     4     5    1
    13     5     6    1
    14     6     7   ar
    15     7     8   ar
    16     8     9   ar
    17     9    10   ar
    18    10    11   ar
    19    11    12    1
    20    12    13    1
    21    13    14   ar
    22    14    15   ar
    23    15    16   ar
    24    16    17   ar
    25    17    18   ar
    26     4    19    1
    27    24    25    1
    28    25    20    1
    29    19     1    1
    30    18     4    1
    31    11     6   ar
    32    18    13   ar
@<TRIPOS>MOLECULE
*****
 28 32 0 0 0
SMALL
GASTEIGER

@<TRIPOS>ATOM
      1 C           2.4552   -0.1241   19.5672 C.3     1  UNL1        0.0581
      2 C           1.9268    0.6504   18.3964 C.3     1  UNL1        0.0163
      3 C           0.9351    1.6507   18.9118 C.3     1  UNL1        0.0058
      4 C           0.8506    1.4944   20.4013 C.3     1  UNL1        0.0240
      5 C           0.9486    1.1438   21.8564 C.3     1  UNL1        0.0301
      6 C           0.2170    1.7515   23.0163 C.ar    1  UNL1       -0.0255
      7 C           0.6096    1.1049   24.3116 C.ar    1  UNL1       -0.0046
      8 C          -0.0082    1.5667   25.5980 C.ar    1  UNL1       -0.0003
      9 C          -1.0187    2.6752   25.5892 C.ar    1  UNL1       -0.0003
     10 C          -1.4114    3.3219   24.2940 C.ar    1  UNL1       -0.0042
     11 C          -0.7935    2.8600   23.0075 C.ar    1  UNL1       -0.0217
     12 C          -1.3219    3.6345   21.8366 C.3     1  UNL1        0.0520
     13 C          -0.9703    3.4919   20.3854 C.ar    1  UNL1       -0.0218
     14 C          -1.7320    4.4679   19.5385 C.ar    1  UNL1       -0.0042
     15 C          -1.5268    4.4914   18.0528 C.ar    1  UNL1       -0.0003
     16 C          -0.5600    3.5390   17.4140 C.ar    1  UNL1       -0.0003
     17 C           0.2017    2.5630   18.2609 C.ar    1  UNL1       -0.0046
     18 C          -0.0035    2.5395   19.7467 C.ar    1  UNL1       -0.0261
     19 C           1.7901    0.3975   20.8064 C.3     1  UNL1        0.0203
     20 C           4.9140   -3.0218   20.7109 C.2     1  UNL1        0.0036
     21 C           5.5012   -3.4320   19.3929 C.2     1  UNL1       -0.0265
     22 C           5.0731   -2.7396   18.1331 C.3     1  UNL1        0.0431
     23 C           4.0578   -1.6369   18.1911 C.3     1  UNL1        0.0770
     24 N           3.4706   -1.2267   19.5091 N.3     1  UNL1       -0.2699
     25 C           3.8987   -1.9192   20.7690 C.3     1  UNL1        0.0999
     26 O           4.5504   -3.5338   23.2320 O.co2   1  UNL1       -0.5449
     27 C           5.3422   -3.7142   21.9708 C.2     1  UNL1        0.0699
     28 O           6.5621   -4.5871   21.9694 O.co2   1  UNL1       -0.5449
@<TRIPOS>UNITY_ATOM_ATTR
26 1
charge -1
@<TRIPOS>BOND
     1    26    27   ar
     2    27    28   ar
     3    27    20    1
     4    20    21    2
     5    21    22    1
     6    22    23    1
     7    23    24    1
     8    24     1    1
     9     1     2    1
    10     2     3    1
    11     4     3    1
    12     4     5    1
    13     5     6    1
    14     6     7   ar
    15     7     8   ar
    16     8     9   ar
    17     9    10   ar
    18    10    11   ar
    19    11    12    1
    20    12    13    1
    21    13    14   ar
    22    14    15   ar
    23    15    16   ar
    24    16    17   ar
    25    17    18   ar
    26     4    19    1
    27    24    25    1
    28    25    20    1
    29    19     1    1
    30    18     4    1
    31    11     6   ar
    32    18    13   ar
@<TRIPOS>MOLECULE
*****
 28 32 0 0 0
SMALL
GASTEIGER

@<TRIPOS>ATOM
      1 C           3.9267   -1.6919   22.7108 C.3     1  UNL1        0.0581
      2 C           4.7228   -2.1933   23.8790 C.3     1  UNL1        0.0163
      3 C           4.2384   -1.4839   25.1087 C.3     1  UNL1        0.0058
      4 C           3.1429   -0.5442   24.7004 C.3     1  UNL1        0.0240
      5 C           2.0924    0.3019   24.0442 C.3     1  UNL1        0.0301
      6 C           1.1664    1.2994   24.6746 C.ar    1  UNL1       -0.0255
      7 C           0.2647    1.9306   23.6556 C.ar    1  UNL1       -0.0046
      8 C          -0.7411    2.9597   24.0790 C.ar    1  UNL1       -0.0003
      9 C          -0.8452    3.3576   25.5215 C.ar    1  UNL1       -0.0003
     10 C           0.0565    2.7265   26.5406 C.ar    1  UNL1       -0.0042
     11 C           1.0623    1.6974   26.1171 C.ar    1  UNL1       -0.0217
     12 C           1.8584    1.1960   27.2854 C.3     1  UNL1        0.0520
     13 C           2.9553    0.1729   27.2998 C.ar    1  UNL1       -0.0218
     14 C           3.4897   -0.0383   28.6853 C.ar    1  UNL1       -0.0042
     15 C           4.5957   -1.0239   28.9205 C.ar    1  UNL1       -0.0003
     16 C           5.1673   -1.7984   27.7701 C.ar    1  UNL1       -0.0003
     17 C           4.6329   -1.5872   26.3844 C.ar    1  UNL1       -0.0046
     18 C           3.5269   -0.6015   26.1493 C.ar    1  UNL1       -0.0261
     19 C           2.9502   -0.6727   23.2184 C.3     1  UNL1        0.0203
     20 C           3.9110   -1.6250   18.7428 C.2     1  UNL1        0.0036
     21 C           4.3869   -3.0136   18.4339 C.2     1  UNL1       -0.0265
     22 C           4.7095   -3.9616   19.5507 C.3     1  UNL1        0.0431
     23 C           4.5561   -3.5211   20.9763 C.3     1  UNL1        0.0770
     24 N           4.0801   -2.1325   21.2852 N.3     1  UNL1       -0.2699
     25 C           3.7576   -1.1845   20.1683 C.3     1  UNL1        0.0999
     26 O           3.9492   -1.0313   16.2137 O.co2   1  UNL1       -0.5449
     27 C           3.5884   -0.6770   17.6259 C.2     1  UNL1        0.0699
     28 O           2.9051    0.6253   17.9212 O.co2   1  UNL1       -0.5449
@<TRIPOS>UNITY_ATOM_ATTR
26 1
charge -1
@<TRIPOS>BOND
     1    26    27   ar
     2    27    28   ar
     3    27    20    1
     4    20    21    2
     5    21    22    1
     6    22    23    1
     7    23    24    1
     8    24     1    1
     9     1     2    1
    10     2     3    1
    11     4     3    1
    12     4     5    1
    13     5     6    1
    14     6     7   ar
    15     7     8   ar
    16     8     9   ar
    17     9    10   ar
    18    10    11   ar
    19    11    12    1
    20    12    13    1
    21    13    14   ar
    22    14    15   ar
    23    15    16   ar
    24    16    17   ar
    25    17    18   ar
    26     4    19    1
    27    24    25    1
    28    25    20    1
    29    19     1    1
    30    18     4    1
    31    11     6   ar
    32    18    13   ar
@<TRIPOS>MOLECULE
*****
 28 32 0 0 0
SMALL
GASTEIGER

@<TRIPOS>ATOM
      1 C           3.4575   -0.3400   25.3598 C.3     1  UNL1        0.0581
      2 C           2.3820    0.6573   25.0461 C.3     1  UNL1        0.0163
      3 C           2.0341    0.5222   23.5933 C.3     1  UNL1        0.0058
      4 C           2.8946   -0.5587   23.0092 C.3     1  UNL1        0.0240
      5 C           3.8564   -1.6596   22.6733 C.3     1  UNL1        0.0301
      6 C           4.0798   -2.3360   21.3532 C.ar    1  UNL1       -0.0255
      7 C           5.1409   -3.3918   21.4511 C.ar    1  UNL1       -0.0046
      8 C           5.5185   -4.1901   20.2387 C.ar    1  UNL1       -0.0003
      9 C           4.8352   -3.9327   18.9284 C.ar    1  UNL1       -0.0003
     10 C           3.7741   -2.8770   18.8306 C.ar    1  UNL1       -0.0042
     11 C           3.3965   -2.0786   20.0430 C.ar    1  UNL1       -0.0217
     12 C           2.3209   -1.0812   19.7293 C.3     1  UNL1        0.0520
     13 C           1.6631   -0.0949   20.6482 C.ar    1  UNL1       -0.0218
     14 C           0.6306    0.7208   19.9281 C.ar    1  UNL1       -0.0042
     15 C          -0.1467    1.7691   20.6678 C.ar    1  UNL1       -0.0003
     16 C           0.1086    2.0016   22.1275 C.ar    1  UNL1       -0.0003
     17 C           1.1412    1.1859   22.8475 C.ar    1  UNL1       -0.0046
     18 C           1.9184    0.1377   22.1079 C.ar    1  UNL1       -0.0261
     19 C           3.7743   -1.0916   24.1010 C.3     1  UNL1        0.0203
     20 C           5.5468   -2.0009   28.2969 C.2     1  UNL1        0.0036
     21 C           5.3937   -0.9674   29.3733 C.2     1  UNL1       -0.0265
     22 C           4.5952    0.2752   29.1118 C.3     1  UNL1        0.0431
     23 C           3.9498    0.4844   27.7740 C.3     1  UNL1        0.0770
     24 N           4.1029   -0.5491   26.6977 N.3     1  UNL1       -0.2699
     25 C           4.9014   -1.7918   26.9592 C.3     1  UNL1        0.0999
     26 O           6.6749   -3.6406   29.9669 O.co2   1  UNL1       -0.5449
     27 C           6.3453   -3.2435   28.5584 C.2     1  UNL1        0.0699
     28 O           6.8142   -4.0890   27.4116 O.co2   1  UNL1       -0.5449
@<TRIPOS>UNITY_ATOM_ATTR
26 1
charge -1
@<TRIPOS>BOND
     1    26    27   ar
     2    27    28   ar
     3    27    20    1
     4    20    21    2
     5    21    22    1
     6    22    23    1
     7    23    24    1
     8    24     1    1
     9     1     2    1
    10     2     3    1
    11     4     3    1
    12     4     5    1
    13     5     6    1
    14     6     7   ar
    15     7     8   ar
    16     8     9   ar
    17     9    10   ar
    18    10    11   ar
    19    11    12    1
    20    12    13    1
    21    13    14   ar
    22    14    15   ar
    23    15    16   ar
    24    16    17   ar
    25    17    18   ar
    26     4    19    1
    27    24    25    1
    28    25    20    1
    29    19     1    1
    30    18     4    1
    31    11     6   ar
    32    18    13   ar
