@<TRIPOS>MOLECULE
*****
 34 37 0 0 0
SMALL
GASTEIGER

@<TRIPOS>ATOM
      1 C          -9.2396  -18.4483   21.1722 C.ar    1  UNL1        0.0949
      2 C          -9.9970  -18.8515   19.9419 C.ar    1  UNL1        0.1454
      3 F         -11.3862  -18.3342   19.7132 F       1  UNL1       -0.2040
      4 C          -9.3650  -19.7720   18.9403 C.ar    1  UNL1        0.0312
      5 C          -7.9758  -20.2894   19.1690 C.ar    1  UNL1        0.0204
      6 C          -7.2184  -19.8862   20.3993 C.ar    1  UNL1        0.0924
      7 C          -7.8503  -18.9656   21.4009 C.ar    1  UNL1        0.1598
      8 F          -7.0930  -18.5624   22.6314 F       1  UNL1       -0.2026
      9 C          -9.8715  -17.5277   22.1739 C.2     1  UNL1        0.2007
     10 O         -11.3595  -17.5323   22.3625 O.2     1  UNL1       -0.2866
     11 C          -9.3991  -17.5564   25.5275 C.2     1  UNL1        0.1360
     12 C          -9.0283  -17.3575   26.9672 C.2     1  UNL1        0.0837
     13 C          -8.0914  -16.2520   27.3547 C.2     1  UNL1        0.2385
     14 N          -7.5253  -15.3454   26.3023 N.2     1  UNL1       -0.0338
     15 C          -7.8961  -15.5442   24.8626 C.2     1  UNL1        0.3626
     16 N          -7.4994  -14.8139   23.6139 N.2     1  UNL1       -0.0341
     17 C          -8.1910  -15.4680   22.4547 C.2     1  UNL1        0.2355
     18 C          -9.0153  -16.6026   22.9870 C.2     1  UNL1        0.0823
     19 C          -8.8330  -16.6497   24.4752 C.3     1  UNL1        0.1973
     20 C          -9.7934  -20.0126   24.7782 C.3     1  UNL1        0.2520
     21 O         -10.3360  -18.6618   25.1401 O.2     1  UNL1       -0.4746
     22 N          -5.8291  -20.4035   20.6280 N.pl3   1  UNL1       -0.2127
     23 H          -5.6728  -21.3714   20.7177 H       1  UNL1        0.1738
     24 S          -4.6780  -19.4461   20.7202 S.O2    1  UNL1        0.0780
     25 O          -4.0561  -20.2967   21.7877 O.2     1  UNL1       -0.1498
     26 O          -5.3000  -18.5956   19.6526 O.2     1  UNL1       -0.1498
     27 C          -3.5270  -18.4888   20.8123 C.ar    1  UNL1        0.1797
     28 C          -2.5058  -18.4358   19.7148 C.ar    1  UNL1        0.1611
     29 F          -2.6358  -19.3403   18.5252 F       1  UNL1       -0.2027
     30 C          -1.3548  -17.4785   19.8067 C.ar    1  UNL1        0.0312
     31 C          -1.2248  -16.5740   20.9963 C.ar    1  UNL1        0.0047
     32 C          -2.2460  -16.6269   22.0938 C.ar    1  UNL1        0.0312
     33 C          -3.3971  -17.5842   22.0018 C.ar    1  UNL1        0.1611
     34 F          -4.4182  -17.6371   23.0993 F       1  UNL1       -0.2027
@<TRIPOS>BOND
     1    20    21    1
     2    21    11    1
     3    11    12    2
     4    12    13    1
     5    13    14    2
     6    14    15    1
     7    15    16    2
     8    16    17    1
     9    17    18    2
    10    18     9    1
    11     9    10    2
    12     9     1    1
    13     1     2   ar
    14     2     3    1
    15     2     4   ar
    16     4     5   ar
    17     5     6   ar
    18     6    22    1
    19    22    24    1
    20    24    25    2
    21    24    26    2
    22    24    27    1
    23    27    28   ar
    24    28    29    1
    25    28    30   ar
    26    30    31   ar
    27    31    32   ar
    28    32    33   ar
    29    33    34    1
    30     6     7   ar
    31     7     8    1
    32    18    19    1
    33    19    11    1
    34    19    15    1
    35     7     1   ar
    36    33    27   ar
    37    22    23    1
@<TRIPOS>MOLECULE
*****
 34 37 0 0 0
SMALL
GASTEIGER

@<TRIPOS>ATOM
      1 C          -8.9368  -18.5039   20.9961 C.ar    1  UNL1        0.0949
      2 C          -9.7187  -19.0248   19.8268 C.ar    1  UNL1        0.1454
      3 F         -11.1235  -18.5534   19.5941 F       1  UNL1       -0.2040
      4 C          -9.0957  -20.0171   18.8902 C.ar    1  UNL1        0.0312
      5 C          -7.6908  -20.4885   19.1229 C.ar    1  UNL1        0.0204
      6 C          -6.9089  -19.9676   20.2922 C.ar    1  UNL1        0.0924
      7 C          -7.5319  -18.9753   21.2288 C.ar    1  UNL1        0.1598
      8 F          -6.7500  -18.4544   22.3981 F       1  UNL1       -0.2026
      9 C          -9.5597  -17.5115   21.9327 C.2     1  UNL1        0.2007
     10 O          -9.9699  -16.1597   21.4287 O.2     1  UNL1       -0.2866
     11 C          -8.1365  -16.0839   24.6542 C.2     1  UNL1        0.1360
     12 C          -7.6518  -15.6308   25.9995 C.2     1  UNL1        0.0837
     13 C          -8.1509  -16.3055   27.2428 C.2     1  UNL1        0.2385
     14 N          -9.1347  -17.4331   27.1408 N.2     1  UNL1       -0.0338
     15 C          -9.6194  -17.8862   25.7956 C.2     1  UNL1        0.3626
     16 N         -10.5800  -18.9627   25.3851 N.2     1  UNL1       -0.0341
     17 C         -10.6746  -18.9534   23.8881 C.2     1  UNL1        0.2355
     18 C          -9.7724  -17.8711   23.3734 C.2     1  UNL1        0.0823
     19 C          -9.1203  -17.2116   24.5523 C.3     1  UNL1        0.1973
     20 C          -6.1709  -15.1462   23.2375 C.3     1  UNL1        0.2520
     21 O          -7.6374  -15.4093   23.4109 O.2     1  UNL1       -0.4746
     22 N          -5.5041  -20.4390   20.5249 N.pl3   1  UNL1       -0.2127
     23 H          -5.3165  -21.4012   20.6163 H       1  UNL1        0.1738
     24 S          -4.3851  -19.4445   20.6184 S.O2    1  UNL1        0.0780
     25 O          -3.7130  -20.2979   21.6528 O.2     1  UNL1       -0.1498
     26 O          -5.0571  -18.5911   19.5840 O.2     1  UNL1       -0.1498
     27 C          -3.2661  -18.4500   20.7118 C.ar    1  UNL1        0.1797
     28 C          -2.2839  -18.3181   19.5858 C.ar    1  UNL1        0.1611
     29 F          -2.4207  -19.1809   18.3665 F       1  UNL1       -0.2027
     30 C          -1.1649  -17.3236   19.6791 C.ar    1  UNL1        0.0312
     31 C          -1.0281  -16.4608   20.8985 C.ar    1  UNL1        0.0047
     32 C          -2.0104  -16.5926   22.0245 C.ar    1  UNL1        0.0312
     33 C          -3.1294  -17.5872   21.9312 C.ar    1  UNL1        0.1611
     34 F          -4.1115  -17.7189   23.0572 F       1  UNL1       -0.2027
@<TRIPOS>BOND
     1    20    21    1
     2    21    11    1
     3    11    12    2
     4    12    13    1
     5    13    14    2
     6    14    15    1
     7    15    16    2
     8    16    17    1
     9    17    18    2
    10    18     9    1
    11     9    10    2
    12     9     1    1
    13     1     2   ar
    14     2     3    1
    15     2     4   ar
    16     4     5   ar
    17     5     6   ar
    18     6    22    1
    19    22    24    1
    20    24    25    2
    21    24    26    2
    22    24    27    1
    23    27    28   ar
    24    28    29    1
    25    28    30   ar
    26    30    31   ar
    27    31    32   ar
    28    32    33   ar
    29    33    34    1
    30     6     7   ar
    31     7     8    1
    32    18    19    1
    33    19    11    1
    34    19    15    1
    35     7     1   ar
    36    33    27   ar
    37    22    23    1
@<TRIPOS>MOLECULE
*****
 34 37 0 0 0
SMALL
GASTEIGER

@<TRIPOS>ATOM
      1 C          -9.5806  -19.1925   21.3402 C.ar    1  UNL1        0.0949
      2 C         -10.0821  -19.1685   19.9267 C.ar    1  UNL1        0.1454
      3 F         -11.4852  -18.7248   19.6361 F       1  UNL1       -0.2040
      4 C          -9.1804  -19.5883   18.8039 C.ar    1  UNL1        0.0312
      5 C          -7.7774  -20.0320   19.0944 C.ar    1  UNL1        0.0204
      6 C          -7.2759  -20.0560   20.5079 C.ar    1  UNL1        0.0924
      7 C          -8.1775  -19.6363   21.6308 C.ar    1  UNL1        0.1598
      8 F          -7.6761  -19.6603   23.0443 F       1  UNL1       -0.2026
      9 C         -10.4823  -18.7728   22.4631 C.2     1  UNL1        0.2007
     10 O         -11.9711  -18.8466   22.2970 O.2     1  UNL1       -0.2866
     11 C          -8.5213  -16.0524   22.9366 C.2     1  UNL1        0.1360
     12 C          -7.6541  -14.9220   23.4059 C.2     1  UNL1        0.0837
     13 C          -7.2944  -14.8053   24.8574 C.2     1  UNL1        0.2385
     14 N          -7.8020  -15.8189   25.8397 N.2     1  UNL1       -0.0338
     15 C          -8.6692  -16.9492   25.3705 C.2     1  UNL1        0.3626
     16 N          -9.3129  -18.0904   26.1007 N.2     1  UNL1       -0.0341
     17 C         -10.0705  -18.9125   25.1006 C.2     1  UNL1        0.2355
     18 C          -9.8949  -18.2793   23.7521 C.2     1  UNL1        0.0823
     19 C          -9.0289  -17.0660   23.9189 C.3     1  UNL1        0.1973
     20 C         -10.1761  -15.6009   20.9853 C.3     1  UNL1        0.2520
     21 O          -8.8810  -16.1691   21.4851 O.2     1  UNL1       -0.4746
     22 N          -5.8728  -20.4998   20.7985 N.pl3   1  UNL1       -0.2127
     23 H          -5.6729  -21.4570   20.9126 H       1  UNL1        0.1738
     24 S          -4.7743  -19.4851   20.9153 S.O2    1  UNL1        0.0780
     25 O          -5.4955  -18.5931   19.9487 O.2     1  UNL1       -0.1498
     26 O          -4.0531  -20.3771   21.8818 O.2     1  UNL1       -0.1498
     27 C          -3.6758  -18.4704   21.0321 C.ar    1  UNL1        0.1797
     28 C          -3.5886  -17.5960   22.2477 C.ar    1  UNL1        0.1611
     29 F          -4.6000  -17.7363   23.3465 F       1  UNL1       -0.2027
     30 C          -2.4901  -16.5813   22.3646 C.ar    1  UNL1        0.0312
     31 C          -1.4786  -16.4410   21.2659 C.ar    1  UNL1        0.0047
     32 C          -1.5658  -17.3155   20.0502 C.ar    1  UNL1        0.0312
     33 C          -2.6643  -18.3302   19.9333 C.ar    1  UNL1        0.1611
     34 F          -2.7514  -19.2046   18.7176 F       1  UNL1       -0.2027
@<TRIPOS>BOND
     1    20    21    1
     2    21    11    1
     3    11    12    2
     4    12    13    1
     5    13    14    2
     6    14    15    1
     7    15    16    2
     8    16    17    1
     9    17    18    2
    10    18     9    1
    11     9    10    2
    12     9     1    1
    13     1     2   ar
    14     2     3    1
    15     2     4   ar
    16     4     5   ar
    17     5     6   ar
    18     6    22    1
    19    22    24    1
    20    24    25    2
    21    24    26    2
    22    24    27    1
    23    27    28   ar
    24    28    29    1
    25    28    30   ar
    26    30    31   ar
    27    31    32   ar
    28    32    33   ar
    29    33    34    1
    30     6     7   ar
    31     7     8    1
    32    18    19    1
    33    19    11    1
    34    19    15    1
    35     7     1   ar
    36    33    27   ar
    37    22    23    1
@<TRIPOS>MOLECULE
*****
 34 37 0 0 0
SMALL
GASTEIGER

@<TRIPOS>ATOM
      1 C          -8.7648  -18.8304   20.7430 C.ar    1  UNL1        0.0949
      2 C          -9.5264  -19.4869   19.6299 C.ar    1  UNL1        0.1454
      3 F         -10.9537  -19.1053   19.3708 F       1  UNL1       -0.2040
      4 C          -8.8608  -20.5251   18.7761 C.ar    1  UNL1        0.0312
      5 C          -7.4335  -20.9068   19.0353 C.ar    1  UNL1        0.0204
      6 C          -6.6718  -20.2503   20.1483 C.ar    1  UNL1        0.0924
      7 C          -7.3375  -19.2121   21.0021 C.ar    1  UNL1        0.1598
      8 F          -6.5759  -18.5556   22.1152 F       1  UNL1       -0.2026
      9 C          -9.4304  -17.7922   21.5969 C.2     1  UNL1        0.2007
     10 O          -9.4869  -16.3659   21.1361 O.2     1  UNL1       -0.2866
     11 C         -12.7122  -17.8075   22.4334 C.2     1  UNL1        0.1360
     12 C         -14.0789  -17.9012   23.0444 C.2     1  UNL1        0.0837
     13 C         -14.2361  -18.3603   24.4637 C.2     1  UNL1        0.2385
     14 N         -13.0266  -18.7258   25.2721 N.2     1  UNL1       -0.0338
     15 C         -11.6599  -18.6321   24.6611 C.2     1  UNL1        0.3626
     16 N         -10.2938  -18.9233   25.2080 N.2     1  UNL1       -0.0341
     17 C          -9.2924  -18.6441   24.1268 C.2     1  UNL1        0.2355
     18 C         -10.0395  -18.1804   22.9116 C.2     1  UNL1        0.0823
     19 C         -11.5027  -18.1730   23.2418 C.3     1  UNL1        0.1973
     20 C         -12.8075  -15.9134   20.6577 C.3     1  UNL1        0.2520
     21 O         -12.5550  -17.3484   21.0141 O.2     1  UNL1       -0.4746
     22 N          -5.2445  -20.6320   20.4075 N.pl3   1  UNL1       -0.2127
     23 H          -4.9921  -21.5817   20.4677 H       1  UNL1        0.1738
     24 S          -4.2019  -19.5667   20.5748 S.O2    1  UNL1        0.0780
     25 O          -4.9312  -18.6986   19.5928 O.2     1  UNL1       -0.1498
     26 O          -3.4725  -20.4349   21.5568 O.2     1  UNL1       -0.1498
     27 C          -3.1592  -18.5015   20.7422 C.ar    1  UNL1        0.1797
     28 C          -3.0699  -17.7349   22.0285 C.ar    1  UNL1        0.1611
     29 F          -4.0234  -18.0336   23.1473 F       1  UNL1       -0.2027
     30 C          -2.0272  -16.6697   22.1960 C.ar    1  UNL1        0.0312
     31 C          -1.0737  -16.3710   21.0772 C.ar    1  UNL1        0.0047
     32 C          -1.1630  -17.1376   19.7910 C.ar    1  UNL1        0.0312
     33 C          -2.2057  -18.2029   19.6235 C.ar    1  UNL1        0.1611
     34 F          -2.2949  -18.9694   18.3372 F       1  UNL1       -0.2027
@<TRIPOS>BOND
     1    20    21    1
     2    21    11    1
     3    11    12    2
     4    12    13    1
     5    13    14    2
     6    14    15    1
     7    15    16    2
     8    16    17    1
     9    17    18    2
    10    18     9    1
    11     9    10    2
    12     9     1    1
    13     1     2   ar
    14     2     3    1
    15     2     4   ar
    16     4     5   ar
    17     5     6   ar
    18     6    22    1
    19    22    24    1
    20    24    25    2
    21    24    26    2
    22    24    27    1
    23    27    28   ar
    24    28    29    1
    25    28    30   ar
    26    30    31   ar
    27    31    32   ar
    28    32    33   ar
    29    33    34    1
    30     6     7   ar
    31     7     8    1
    32    18    19    1
    33    19    11    1
    34    19    15    1
    35     7     1   ar
    36    33    27   ar
    37    22    23    1
@<TRIPOS>MOLECULE
*****
 34 37 0 0 0
SMALL
GASTEIGER

@<TRIPOS>ATOM
      1 C          -7.8784  -16.0340   25.0945 C.ar    1  UNL1        0.0949
      2 C          -7.7102  -15.6888   26.5446 C.ar    1  UNL1        0.1454
      3 F          -8.9151  -15.5490   27.4269 F       1  UNL1       -0.2040
      4 C          -6.3370  -15.4835   27.1122 C.ar    1  UNL1        0.0312
      5 C          -5.1321  -15.6234   26.2298 C.ar    1  UNL1        0.0204
      6 C          -5.3003  -15.9685   24.7798 C.ar    1  UNL1        0.0924
      7 C          -6.6735  -16.1738   24.2122 C.ar    1  UNL1        0.1598
      8 F          -6.8418  -16.5189   22.7621 F       1  UNL1       -0.2026
      9 C          -9.2517  -16.2393   24.5268 C.2     1  UNL1        0.2007
     10 O         -10.1299  -15.0571   24.2422 O.2     1  UNL1       -0.2866
     11 C         -10.0261  -17.5869   21.5178 C.2     1  UNL1        0.1360
     12 C         -10.4281  -18.4058   20.3271 C.2     1  UNL1        0.0837
     13 C         -10.8828  -19.8233   20.5107 C.2     1  UNL1        0.2385
     14 N         -10.9356  -20.4221   21.8850 N.2     1  UNL1       -0.0338
     15 C         -10.5336  -19.6032   23.0757 C.2     1  UNL1        0.3626
     16 N         -10.4823  -19.9204   24.5409 N.2     1  UNL1       -0.0341
     17 C          -9.9958  -18.6988   25.2629 C.2     1  UNL1        0.2355
     18 C          -9.7465  -17.6267   24.2438 C.2     1  UNL1        0.0823
     19 C         -10.0788  -18.1856   22.8921 C.3     1  UNL1        0.1973
     20 C         -10.3832  -15.2233   20.5001 C.3     1  UNL1        0.2520
     21 O          -9.5713  -16.1694   21.3342 O.2     1  UNL1       -0.4746
     22 N          -4.0954  -16.1083   23.8974 N.pl3   1  UNL1       -0.2127
     23 H          -3.3735  -15.4402   23.9405 H       1  UNL1        0.1738
     24 S          -3.9903  -17.2660   22.9494 S.O2    1  UNL1        0.0780
     25 O          -4.1797  -18.2190   24.0922 O.2     1  UNL1       -0.1498
     26 O          -3.8008  -16.3130   21.8067 O.2     1  UNL1       -0.1498
     27 C          -3.8852  -18.4236   22.0014 C.ar    1  UNL1        0.1797
     28 C          -5.1163  -19.1848   21.6078 C.ar    1  UNL1        0.1611
     29 F          -6.4525  -18.7884   22.1622 F       1  UNL1       -0.2027
     30 C          -5.0113  -20.3425   20.6597 C.ar    1  UNL1        0.0312
     31 C          -3.6751  -20.7390   20.1052 C.ar    1  UNL1        0.0047
     32 C          -2.4440  -19.9777   20.4989 C.ar    1  UNL1        0.0312
     33 C          -2.5490  -18.8201   21.4469 C.ar    1  UNL1        0.1611
     34 F          -1.3179  -18.0589   21.8405 F       1  UNL1       -0.2027
@<TRIPOS>BOND
     1    20    21    1
     2    21    11    1
     3    11    12    2
     4    12    13    1
     5    13    14    2
     6    14    15    1
     7    15    16    2
     8    16    17    1
     9    17    18    2
    10    18     9    1
    11     9    10    2
    12     9     1    1
    13     1     2   ar
    14     2     3    1
    15     2     4   ar
    16     4     5   ar
    17     5     6   ar
    18     6    22    1
    19    22    24    1
    20    24    25    2
    21    24    26    2
    22    24    27    1
    23    27    28   ar
    24    28    29    1
    25    28    30   ar
    26    30    31   ar
    27    31    32   ar
    28    32    33   ar
    29    33    34    1
    30     6     7   ar
    31     7     8    1
    32    18    19    1
    33    19    11    1
    34    19    15    1
    35     7     1   ar
    36    33    27   ar
    37    22    23    1
@<TRIPOS>MOLECULE
*****
 34 37 0 0 0
SMALL
GASTEIGER

@<TRIPOS>ATOM
      1 C          -8.3493  -17.6087   21.7763 C.ar    1  UNL1        0.0949
      2 C          -8.5171  -16.2511   22.3917 C.ar    1  UNL1        0.1454
      3 F          -9.7845  -15.4796   22.1721 F       1  UNL1       -0.2040
      4 C          -7.4174  -15.6651   23.2267 C.ar    1  UNL1        0.0312
      5 C          -6.1499  -16.4367   23.4463 C.ar    1  UNL1        0.0204
      6 C          -5.9821  -17.7943   22.8309 C.ar    1  UNL1        0.0924
      7 C          -7.0818  -18.3803   21.9959 C.ar    1  UNL1        0.1598
      8 F          -6.9141  -19.7379   21.3804 F       1  UNL1       -0.2026
      9 C          -9.4490  -18.1948   20.9412 C.2     1  UNL1        0.2007
     10 O          -9.1161  -19.0797   19.7767 O.2     1  UNL1       -0.2866
     11 C         -11.0864  -18.8444   23.8338 C.2     1  UNL1        0.1360
     12 C         -12.0240  -19.0200   24.9914 C.2     1  UNL1        0.0837
     13 C         -13.4450  -18.5521   24.8833 C.2     1  UNL1        0.2385
     14 N         -13.9285  -17.9087   23.6175 N.2     1  UNL1       -0.0338
     15 C         -12.9910  -17.7332   22.4599 C.2     1  UNL1        0.3626
     16 N         -13.1808  -17.1389   21.0957 N.2     1  UNL1       -0.0341
     17 C         -11.8771  -17.2395   20.3608 C.2     1  UNL1        0.2355
     18 C         -10.8815  -17.8960   21.2707 C.2     1  UNL1        0.0823
     19 C         -11.5699  -18.2011   22.5680 C.3     1  UNL1        0.1973
     20 C          -9.3687  -20.7682   24.1474 C.3     1  UNL1        0.2520
     21 O          -9.6654  -19.3123   23.9419 O.2     1  UNL1       -0.4746
     22 N          -4.7147  -18.5659   23.0505 N.pl3   1  UNL1       -0.2127
     23 H          -4.6863  -19.2852   23.7220 H       1  UNL1        0.1738
     24 S          -3.4904  -18.2414   22.2469 S.O2    1  UNL1        0.0780
     25 O          -4.2708  -18.4332   20.9804 O.2     1  UNL1       -0.1498
     26 O          -2.7099  -18.0496   23.5134 O.2     1  UNL1       -0.1498
     27 C          -2.2660  -17.9170   21.4434 C.ar    1  UNL1        0.1797
     28 C          -1.7885  -16.4985   21.3437 C.ar    1  UNL1        0.1611
     29 F          -2.5354  -15.4045   22.0475 F       1  UNL1       -0.2027
     30 C          -0.5641  -16.1739   20.5402 C.ar    1  UNL1        0.0312
     31 C           0.1828  -17.2678   19.8363 C.ar    1  UNL1        0.0047
     32 C          -0.2948  -18.6863   19.9360 C.ar    1  UNL1        0.0312
     33 C          -1.5191  -19.0109   20.7395 C.ar    1  UNL1        0.1611
     34 F          -1.9966  -20.4294   20.8391 F       1  UNL1       -0.2027
@<TRIPOS>BOND
     1    20    21    1
     2    21    11    1
     3    11    12    2
     4    12    13    1
     5    13    14    2
     6    14    15    1
     7    15    16    2
     8    16    17    1
     9    17    18    2
    10    18     9    1
    11     9    10    2
    12     9     1    1
    13     1     2   ar
    14     2     3    1
    15     2     4   ar
    16     4     5   ar
    17     5     6   ar
    18     6    22    1
    19    22    24    1
    20    24    25    2
    21    24    26    2
    22    24    27    1
    23    27    28   ar
    24    28    29    1
    25    28    30   ar
    26    30    31   ar
    27    31    32   ar
    28    32    33   ar
    29    33    34    1
    30     6     7   ar
    31     7     8    1
    32    18    19    1
    33    19    11    1
    34    19    15    1
    35     7     1   ar
    36    33    27   ar
    37    22    23    1
@<TRIPOS>MOLECULE
*****
 34 37 0 0 0
SMALL
GASTEIGER

@<TRIPOS>ATOM
      1 C          -8.1994  -16.6569   25.3573 C.ar    1  UNL1        0.0949
      2 C          -8.0853  -16.2884   26.8069 C.ar    1  UNL1        0.1454
      3 F          -9.1796  -16.6593   27.7634 F       1  UNL1       -0.2040
      4 C          -6.8769  -15.5490   27.2998 C.ar    1  UNL1        0.0312
      5 C          -5.7826  -15.1781   26.3433 C.ar    1  UNL1        0.0204
      6 C          -5.8967  -15.5466   24.8937 C.ar    1  UNL1        0.0924
      7 C          -7.1051  -16.2860   24.4008 C.ar    1  UNL1        0.1598
      8 F          -7.2192  -16.6546   22.9512 F       1  UNL1       -0.2026
      9 C          -9.4078  -17.3964   24.8643 C.2     1  UNL1        0.2007
     10 O         -10.0047  -18.4948   25.6931 O.2     1  UNL1       -0.2866
     11 C          -9.2008  -19.1147   21.9531 C.2     1  UNL1        0.1360
     12 C          -9.2618  -19.6767   20.5637 C.2     1  UNL1        0.0837
     13 C         -10.0249  -18.9524   19.4945 C.2     1  UNL1        0.2385
     14 N         -10.7270  -17.6662   19.8147 N.2     1  UNL1       -0.0338
     15 C         -10.6661  -17.1042   21.2041 C.2     1  UNL1        0.3626
     16 N         -11.2539  -15.8655   21.8125 N.2     1  UNL1       -0.0341
     17 C         -10.8541  -15.8242   23.2576 C.2     1  UNL1        0.2355
     18 C         -10.0192  -17.0373   23.5424 C.2     1  UNL1        0.0823
     19 C          -9.9029  -17.8284   22.2733 C.3     1  UNL1        0.1973
     20 C          -9.1400  -20.8252   23.9077 C.3     1  UNL1        0.2520
     21 O          -8.4377  -19.8389   23.0223 O.2     1  UNL1       -0.4746
     22 N          -4.8024  -15.1757   23.9372 N.pl3   1  UNL1       -0.2127
     23 H          -4.5372  -14.2332   23.8341 H       1  UNL1        0.1738
     24 S          -4.1122  -16.2408   23.1377 S.O2    1  UNL1        0.0780
     25 O          -4.1966  -17.1745   24.3086 O.2     1  UNL1       -0.1498
     26 O          -4.0279  -15.3072   21.9667 O.2     1  UNL1       -0.1498
     27 C          -3.4221  -17.3058   22.3381 C.ar    1  UNL1        0.1797
     28 C          -4.0698  -18.6468   22.1582 C.ar    1  UNL1        0.1611
     29 F          -5.4076  -18.9227   22.7779 F       1  UNL1       -0.2027
     30 C          -3.3797  -19.7119   21.3586 C.ar    1  UNL1        0.0312
     31 C          -2.0418  -19.4360   20.7389 C.ar    1  UNL1        0.0047
     32 C          -1.3941  -18.0951   20.9188 C.ar    1  UNL1        0.0312
     33 C          -2.0842  -17.0300   21.7184 C.ar    1  UNL1        0.1611
     34 F          -1.4365  -15.6890   21.8982 F       1  UNL1       -0.2027
@<TRIPOS>BOND
     1    20    21    1
     2    21    11    1
     3    11    12    2
     4    12    13    1
     5    13    14    2
     6    14    15    1
     7    15    16    2
     8    16    17    1
     9    17    18    2
    10    18     9    1
    11     9    10    2
    12     9     1    1
    13     1     2   ar
    14     2     3    1
    15     2     4   ar
    16     4     5   ar
    17     5     6   ar
    18     6    22    1
    19    22    24    1
    20    24    25    2
    21    24    26    2
    22    24    27    1
    23    27    28   ar
    24    28    29    1
    25    28    30   ar
    26    30    31   ar
    27    31    32   ar
    28    32    33   ar
    29    33    34    1
    30     6     7   ar
    31     7     8    1
    32    18    19    1
    33    19    11    1
    34    19    15    1
    35     7     1   ar
    36    33    27   ar
    37    22    23    1
@<TRIPOS>MOLECULE
*****
 34 37 0 0 0
SMALL
GASTEIGER

@<TRIPOS>ATOM
      1 C          -7.1695  -17.3318   23.0095 C.ar    1  UNL1        0.0949
      2 C          -7.3983  -16.1244   23.8696 C.ar    1  UNL1        0.1454
      3 F          -8.7914  -15.6141   24.0908 F       1  UNL1       -0.2040
      4 C          -6.2339  -15.4273   24.5086 C.ar    1  UNL1        0.0312
      5 C          -4.8408  -15.9376   24.2874 C.ar    1  UNL1        0.0204
      6 C          -4.6121  -17.1450   23.4273 C.ar    1  UNL1        0.0924
      7 C          -5.7764  -17.8420   22.7883 C.ar    1  UNL1        0.1598
      8 F          -5.5477  -19.0495   21.9281 F       1  UNL1       -0.2026
      9 C          -8.3339  -18.0289   22.3705 C.2     1  UNL1        0.2007
     10 O          -8.4162  -18.1357   20.8766 O.2     1  UNL1       -0.2866
     11 C         -11.5558  -17.0163   22.6237 C.2     1  UNL1        0.1360
     12 C         -13.0072  -16.7709   22.9121 C.2     1  UNL1        0.0837
     13 C         -13.7372  -17.6482   23.8854 C.2     1  UNL1        0.2385
     14 N         -13.0159  -18.7710   24.5702 N.2     1  UNL1       -0.0338
     15 C         -11.5646  -19.0164   24.2818 C.2     1  UNL1        0.3626
     16 N         -10.5971  -20.0388   24.8002 N.2     1  UNL1       -0.0341
     17 C          -9.2691  -19.7934   24.1473 C.2     1  UNL1        0.2355
     18 C          -9.4159  -18.6193   23.2254 C.2     1  UNL1        0.0823
     19 C         -10.8345  -18.1391   23.3085 C.3     1  UNL1        0.1973
     20 C         -11.3204  -16.0095   20.2402 C.3     1  UNL1        0.2520
     21 O         -10.8258  -16.1390   21.6504 O.2     1  UNL1       -0.4746
     22 N          -3.2190  -17.6552   23.2061 N.pl3   1  UNL1       -0.2127
     23 H          -2.6747  -17.9484   23.9723 H       1  UNL1        0.1738
     24 S          -2.6552  -17.7188   21.8175 S.O2    1  UNL1        0.0780
     25 O          -2.7961  -16.2307   21.6922 O.2     1  UNL1       -0.1498
     26 O          -2.5143  -19.2068   21.9429 O.2     1  UNL1       -0.1498
     27 C          -2.0914  -17.7824   20.4290 C.ar    1  UNL1        0.1797
     28 C          -0.6234  -17.5701   20.2051 C.ar    1  UNL1        0.1611
     29 F           0.2806  -17.2942   21.3698 F       1  UNL1       -0.2027
     30 C          -0.0595  -17.6337   18.8166 C.ar    1  UNL1        0.0312
     31 C          -0.9636  -17.9096   17.6519 C.ar    1  UNL1        0.0047
     32 C          -2.4315  -18.1219   17.8758 C.ar    1  UNL1        0.0312
     33 C          -2.9954  -18.0583   19.2643 C.ar    1  UNL1        0.1611
     34 F          -4.4634  -18.2706   19.4881 F       1  UNL1       -0.2027
@<TRIPOS>BOND
     1    20    21    1
     2    21    11    1
     3    11    12    2
     4    12    13    1
     5    13    14    2
     6    14    15    1
     7    15    16    2
     8    16    17    1
     9    17    18    2
    10    18     9    1
    11     9    10    2
    12     9     1    1
    13     1     2   ar
    14     2     3    1
    15     2     4   ar
    16     4     5   ar
    17     5     6   ar
    18     6    22    1
    19    22    24    1
    20    24    25    2
    21    24    26    2
    22    24    27    1
    23    27    28   ar
    24    28    29    1
    25    28    30   ar
    26    30    31   ar
    27    31    32   ar
    28    32    33   ar
    29    33    34    1
    30     6     7   ar
    31     7     8    1
    32    18    19    1
    33    19    11    1
    34    19    15    1
    35     7     1   ar
    36    33    27   ar
    37    22    23    1
@<TRIPOS>MOLECULE
*****
 34 37 0 0 0
SMALL
GASTEIGER

@<TRIPOS>ATOM
      1 C          -6.5954  -20.0522   20.4309 C.ar    1  UNL1        0.0949
      2 C          -6.7963  -21.1507   19.4294 C.ar    1  UNL1        0.1454
      3 F          -5.7131  -22.1623   19.1983 F       1  UNL1       -0.2040
      4 C          -8.0803  -21.2374   18.6590 C.ar    1  UNL1        0.0312
      5 C          -9.1635  -20.2258   18.8900 C.ar    1  UNL1        0.0204
      6 C          -8.9626  -19.1274   19.8916 C.ar    1  UNL1        0.0924
      7 C          -7.6785  -19.0406   20.6620 C.ar    1  UNL1        0.1598
      8 F          -7.4775  -17.9422   21.6636 F       1  UNL1       -0.2026
      9 C          -5.3112  -19.9654   21.2014 C.2     1  UNL1        0.2007
     10 O          -5.2678  -20.3961   22.6375 O.2     1  UNL1       -0.2866
     11 C          -3.4226  -17.3093   22.1224 C.2     1  UNL1        0.1360
     12 C          -2.4344  -16.1976   22.3164 C.2     1  UNL1        0.0837
     13 C          -1.2852  -16.0412   21.3652 C.2     1  UNL1        0.2385
     14 N          -1.1240  -16.9964   20.2200 N.2     1  UNL1       -0.0338
     15 C          -2.1122  -18.1081   20.0260 C.2     1  UNL1        0.3626
     16 N          -2.2112  -19.1947   18.9967 N.2     1  UNL1       -0.0341
     17 C          -3.4216  -20.0228   19.3117 C.2     1  UNL1        0.2355
     18 C          -4.0707  -19.4479   20.5357 C.2     1  UNL1        0.0823
     19 C          -3.2614  -18.2645   20.9772 C.3     1  UNL1        0.1973
     20 C          -5.0687  -16.2828   23.8504 C.3     1  UNL1        0.2520
     21 O          -4.5718  -17.4657   23.0735 O.2     1  UNL1       -0.4746
     22 N         -10.0458  -18.1158   20.1226 N.pl3   1  UNL1       -0.2127
     23 H         -10.1974  -17.3982   19.4659 H       1  UNL1        0.1738
     24 S         -10.8979  -18.1975   21.3544 S.O2    1  UNL1        0.0780
     25 O         -10.3793  -16.8630   21.8017 O.2     1  UNL1       -0.1498
     26 O         -11.4165  -19.5320   20.9071 O.2     1  UNL1       -0.1498
     27 C         -11.7501  -18.2793   22.5860 C.ar    1  UNL1        0.1797
     28 C         -13.1741  -17.8096   22.5454 C.ar    1  UNL1        0.1611
     29 F         -13.7458  -17.2581   21.2730 F       1  UNL1       -0.2027
     30 C         -14.0263  -17.8913   23.7770 C.ar    1  UNL1        0.0312
     31 C         -13.4546  -18.4428   25.0494 C.ar    1  UNL1        0.0047
     32 C         -12.0306  -18.9125   25.0901 C.ar    1  UNL1        0.0312
     33 C         -11.1783  -18.8308   23.8584 C.ar    1  UNL1        0.1611
     34 F          -9.7543  -19.3005   23.8992 F       1  UNL1       -0.2027
@<TRIPOS>BOND
     1    20    21    1
     2    21    11    1
     3    11    12    2
     4    12    13    1
     5    13    14    2
     6    14    15    1
     7    15    16    2
     8    16    17    1
     9    17    18    2
    10    18     9    1
    11     9    10    2
    12     9     1    1
    13     1     2   ar
    14     2     3    1
    15     2     4   ar
    16     4     5   ar
    17     5     6   ar
    18     6    22    1
    19    22    24    1
    20    24    25    2
    21    24    26    2
    22    24    27    1
    23    27    28   ar
    24    28    29    1
    25    28    30   ar
    26    30    31   ar
    27    31    32   ar
    28    32    33   ar
    29    33    34    1
    30     6     7   ar
    31     7     8    1
    32    18    19    1
    33    19    11    1
    34    19    15    1
    35     7     1   ar
    36    33    27   ar
    37    22    23    1
