@<TRIPOS>MOLECULE
*****
 23 23 0 0 0
SMALL
GASTEIGER

@<TRIPOS>ATOM
      1 C          -7.4969  -19.7493   21.8748 C.3     1  UNL1        0.0435
      2 C          -3.5637  -19.2202   21.8634 C.ar    1  UNL1        0.1382
      3 C          -3.1631  -20.0968   20.7141 C.ar    1  UNL1        0.0369
      4 C          -4.2071  -20.8577   19.9517 C.ar    1  UNL1        0.0028
      5 C          -5.6516  -20.7418   20.3386 C.ar    1  UNL1       -0.0040
      6 C          -6.0522  -19.8652   21.4879 C.ar    1  UNL1       -0.0178
      7 C          -5.0083  -19.1044   22.2503 C.ar    1  UNL1        0.0327
      8 O          -2.5197  -18.4594   22.6258 O.3     1  UNL1       -0.4755
      9 C          -2.4329  -16.9677   22.4940 C.3     1  UNL1        0.2054
     10 C          -1.8849  -16.3564   21.2386 C.3     1  UNL1        0.0473
     11 C          -1.3965  -17.6310   19.0280 C.3     1  UNL1        0.0001
     12 C          -0.9446  -17.1399   20.3713 C.3     1  UNL1        0.0038
     13 C          -8.3384  -18.6438   21.3095 C.3     1  UNL1        0.0737
     14 N          -8.0561  -17.2192   21.6849 N.3     1  UNL1       -0.2895
     15 H          -7.8787  -16.7153   20.8160 H       1  UNL1        0.1237
     16 C          -9.0788  -16.4268   22.4439 C.3     1  UNL1        0.1552
     17 C         -10.5400  -16.6438   22.1837 C.2     1  UNL1        0.2418
     18 O         -11.2038  -15.9654   21.0222 O.2     1  UNL1       -0.2734
     19 N         -11.3374  -17.5393   23.0850 N.am    1  UNL1       -0.2784
     20 C         -12.7986  -17.7564   22.8247 C.3     1  UNL1        0.0935
     21 C         -13.7449  -17.9452   23.9731 C.3     1  UNL1        0.0233
     22 C         -10.6736  -18.2178   24.2464 C.3     1  UNL1        0.0935
     23 C         -10.4968  -19.7073   24.2440 C.3     1  UNL1        0.0233
@<TRIPOS>BOND
     1    11    12    1
     2    12    10    1
     3    10     9    1
     4     9     8    1
     5     8     2    1
     6     2     3   ar
     7     3     4   ar
     8     4     5   ar
     9     5     6   ar
    10     6     1    1
    11     1    13    1
    12    13    14    1
    13    14    16    1
    14    16    17    1
    15    17    18    2
    16    17    19   am
    17    19    20    1
    18    20    21    1
    19    19    22    1
    20    22    23    1
    21     6     7   ar
    22     7     2   ar
    23    14    15    1
@<TRIPOS>MOLECULE
*****
 23 23 0 0 0
SMALL
GASTEIGER

@<TRIPOS>ATOM
      1 C          -6.6484  -20.3182   20.3091 C.3     1  UNL1        0.0435
      2 C          -4.0588  -18.4642   22.6770 C.ar    1  UNL1        0.1382
      3 C          -2.7577  -18.9179   22.0844 C.ar    1  UNL1        0.0369
      4 C          -2.7535  -19.8384   20.9001 C.ar    1  UNL1        0.0028
      5 C          -4.0504  -20.3052   20.3083 C.ar    1  UNL1       -0.0040
      6 C          -5.3515  -19.8514   20.9009 C.ar    1  UNL1       -0.0178
      7 C          -5.3557  -18.9309   22.0852 C.ar    1  UNL1        0.0327
      8 O          -4.0631  -17.5436   23.8613 O.3     1  UNL1       -0.4755
      9 C          -4.6764  -16.1794   23.7487 C.3     1  UNL1        0.2054
     10 C          -5.8120  -15.7910   24.6484 C.3     1  UNL1        0.0473
     11 C          -6.5801  -15.4093   27.1008 C.3     1  UNL1        0.0001
     12 C          -5.5330  -15.2878   26.0337 C.3     1  UNL1        0.0038
     13 C          -7.7344  -19.3285   20.0075 C.3     1  UNL1        0.0737
     14 N          -8.9875  -19.7775   19.3158 N.3     1  UNL1       -0.2895
     15 H          -8.9651  -20.7971   19.2986 H       1  UNL1        0.1237
     16 C         -10.3279  -19.3829   19.8612 C.3     1  UNL1        0.1552
     17 C         -10.4618  -18.1465   20.6998 C.2     1  UNL1        0.2418
     18 O         -10.5356  -16.7996   20.0438 O.2     1  UNL1       -0.2734
     19 N         -10.5220  -18.2569   22.1946 N.am    1  UNL1       -0.2784
     20 C         -10.6560  -17.0205   23.0332 C.3     1  UNL1        0.0935
     21 C          -9.5455  -16.6172   23.9573 C.3     1  UNL1        0.0233
     22 C         -10.4482  -19.6038   22.8507 C.3     1  UNL1        0.0935
     23 C          -9.1358  -20.1167   23.3648 C.3     1  UNL1        0.0233
@<TRIPOS>BOND
     1    11    12    1
     2    12    10    1
     3    10     9    1
     4     9     8    1
     5     8     2    1
     6     2     3   ar
     7     3     4   ar
     8     4     5   ar
     9     5     6   ar
    10     6     1    1
    11     1    13    1
    12    13    14    1
    13    14    16    1
    14    16    17    1
    15    17    18    2
    16    17    19   am
    17    19    20    1
    18    20    21    1
    19    19    22    1
    20    22    23    1
    21     6     7   ar
    22     7     2   ar
    23    14    15    1
@<TRIPOS>MOLECULE
*****
 23 23 0 0 0
SMALL
GASTEIGER

@<TRIPOS>ATOM
      1 C          -8.1451  -19.4932   21.5650 C.3     1  UNL1        0.0435
      2 C          -4.2487  -18.9800   22.1171 C.ar    1  UNL1        0.1382
      3 C          -3.6910  -19.8711   21.0471 C.ar    1  UNL1        0.0369
      4 C          -4.6180  -20.6362   20.1498 C.ar    1  UNL1        0.0028
      5 C          -6.1026  -20.5102   20.3224 C.ar    1  UNL1       -0.0040
      6 C          -6.6603  -19.6191   21.3923 C.ar    1  UNL1       -0.0178
      7 C          -5.7333  -18.8540   22.2897 C.ar    1  UNL1        0.0327
      8 O          -3.3217  -18.2149   23.0145 O.3     1  UNL1       -0.4755
      9 C          -2.0024  -17.7293   22.4913 C.3     1  UNL1        0.2054
     10 C          -1.9607  -16.6800   21.4202 C.3     1  UNL1        0.0473
     11 C          -0.3121  -17.9198   19.8407 C.3     1  UNL1        0.0001
     12 C          -1.5110  -17.0397   20.0351 C.3     1  UNL1        0.0038
     13 C          -8.7162  -19.1278   22.9030 C.3     1  UNL1        0.0737
     14 N          -9.9860  -18.3334   22.9849 N.3     1  UNL1       -0.2895
     15 H         -10.4591  -18.6220   23.8412 H       1  UNL1        0.1237
     16 C          -9.9329  -16.8345   23.0036 C.3     1  UNL1        0.1552
     17 C          -8.6082  -16.1309   23.0093 C.2     1  UNL1        0.2418
     18 O          -7.9570  -15.7475   21.7135 O.2     1  UNL1       -0.2734
     19 N          -7.9346  -15.8107   24.3108 N.am    1  UNL1       -0.2784
     20 C          -6.6098  -15.1072   24.3164 C.3     1  UNL1        0.0935
     21 C          -5.3459  -15.8897   24.5165 C.3     1  UNL1        0.0233
     22 C          -8.5857  -16.1941   25.6065 C.3     1  UNL1        0.0935
     23 C          -8.1731  -15.5202   26.8815 C.3     1  UNL1        0.0233
@<TRIPOS>BOND
     1    11    12    1
     2    12    10    1
     3    10     9    1
     4     9     8    1
     5     8     2    1
     6     2     3   ar
     7     3     4   ar
     8     4     5   ar
     9     5     6   ar
    10     6     1    1
    11     1    13    1
    12    13    14    1
    13    14    16    1
    14    16    17    1
    15    17    18    2
    16    17    19   am
    17    19    20    1
    18    20    21    1
    19    19    22    1
    20    22    23    1
    21     6     7   ar
    22     7     2   ar
    23    14    15    1
@<TRIPOS>MOLECULE
*****
 23 23 0 0 0
SMALL
GASTEIGER

@<TRIPOS>ATOM
      1 C          -4.6253  -16.9385   24.1765 C.3     1  UNL1        0.0435
      2 C          -4.2053  -19.4868   21.1632 C.ar    1  UNL1        0.1382
      3 C          -2.7207  -19.4376   20.9552 C.ar    1  UNL1        0.0369
      4 C          -1.8709  -18.5553   21.8209 C.ar    1  UNL1        0.0028
      5 C          -2.5057  -17.7223   22.8946 C.ar    1  UNL1       -0.0040
      6 C          -3.9904  -17.7715   23.1027 C.ar    1  UNL1       -0.0178
      7 C          -4.8402  -18.6538   22.2370 C.ar    1  UNL1        0.0327
      8 O          -5.0551  -20.3691   20.2975 O.3     1  UNL1       -0.4755
      9 C          -6.5361  -20.4403   20.5244 C.3     1  UNL1        0.2054
     10 C          -7.4400  -19.4164   19.9040 C.3     1  UNL1        0.0473
     11 C          -9.9998  -19.6482   19.5249 C.3     1  UNL1        0.0001
     12 C          -8.5922  -19.8531   19.0486 C.3     1  UNL1        0.0038
     13 C          -4.8809  -15.4793   23.9411 C.3     1  UNL1        0.0737
     14 N          -6.0856  -15.0453   23.1598 N.3     1  UNL1       -0.2895
     15 H          -5.8179  -15.0562   22.1757 H       1  UNL1        0.1237
     16 C          -7.3676  -15.8164   23.2684 C.3     1  UNL1        0.1552
     17 C          -8.3942  -15.7219   22.1789 C.2     1  UNL1        0.2418
     18 O          -8.2079  -14.7456   21.0555 O.2     1  UNL1       -0.2734
     19 N          -9.6072  -16.6038   22.2127 N.am    1  UNL1       -0.2784
     20 C         -10.6337  -16.5093   21.1232 C.3     1  UNL1        0.0935
     21 C         -12.0804  -16.3182   21.4703 C.3     1  UNL1        0.0233
     22 C          -9.7935  -17.5802   23.3361 C.3     1  UNL1        0.0935
     23 C          -9.3755  -19.0104   23.1639 C.3     1  UNL1        0.0233
@<TRIPOS>BOND
     1    11    12    1
     2    12    10    1
     3    10     9    1
     4     9     8    1
     5     8     2    1
     6     2     3   ar
     7     3     4   ar
     8     4     5   ar
     9     5     6   ar
    10     6     1    1
    11     1    13    1
    12    13    14    1
    13    14    16    1
    14    16    17    1
    15    17    18    2
    16    17    19   am
    17    19    20    1
    18    20    21    1
    19    19    22    1
    20    22    23    1
    21     6     7   ar
    22     7     2   ar
    23    14    15    1
@<TRIPOS>MOLECULE
*****
 23 23 0 0 0
SMALL
GASTEIGER

@<TRIPOS>ATOM
      1 C          -3.8322  -17.9691   23.4604 C.3     1  UNL1        0.0435
      2 C          -6.0568  -19.8401   20.7585 C.ar    1  UNL1        0.1382
      3 C          -5.0043  -20.5821   19.9894 C.ar    1  UNL1        0.0369
      4 C          -3.5611  -20.4532   20.3772 C.ar    1  UNL1        0.0028
      5 C          -3.1703  -19.5822   21.5342 C.ar    1  UNL1       -0.0040
      6 C          -4.2229  -18.8401   22.3033 C.ar    1  UNL1       -0.0178
      7 C          -5.6661  -18.9691   21.9154 C.ar    1  UNL1        0.0327
      8 O          -7.5000  -19.9691   20.3706 O.3     1  UNL1       -0.4755
      9 C          -8.5184  -19.0311   20.9476 C.3     1  UNL1        0.2054
     10 C          -9.8735  -18.9138   20.3151 C.3     1  UNL1        0.0473
     11 C         -12.1409  -17.9474   21.1366 C.3     1  UNL1        0.0001
     12 C         -10.7467  -17.7344   20.6259 C.3     1  UNL1        0.0038
     13 C          -4.2785  -16.5378   23.5059 C.3     1  UNL1        0.0737
     14 N          -5.0560  -16.0318   24.6847 N.3     1  UNL1       -0.2895
     15 H          -4.3963  -15.5299   25.2791 H       1  UNL1        0.1237
     16 C          -6.2290  -15.1208   24.4744 C.3     1  UNL1        0.1552
     17 C          -7.5045  -15.6612   23.8992 C.2     1  UNL1        0.2418
     18 O          -7.7694  -15.5505   22.4269 O.2     1  UNL1       -0.2734
     19 N          -8.5153  -16.3122   24.7962 N.am    1  UNL1       -0.2784
     20 C          -9.7908  -16.8526   24.2210 C.3     1  UNL1        0.0935
     21 C         -10.0820  -18.3223   24.2916 C.3     1  UNL1        0.0233
     22 C          -8.2504  -16.4229   26.2685 C.3     1  UNL1        0.0935
     23 C          -8.5030  -15.2483   27.1664 C.3     1  UNL1        0.0233
@<TRIPOS>BOND
     1    11    12    1
     2    12    10    1
     3    10     9    1
     4     9     8    1
     5     8     2    1
     6     2     3   ar
     7     3     4   ar
     8     4     5   ar
     9     5     6   ar
    10     6     1    1
    11     1    13    1
    12    13    14    1
    13    14    16    1
    14    16    17    1
    15    17    18    2
    16    17    19   am
    17    19    20    1
    18    20    21    1
    19    19    22    1
    20    22    23    1
    21     6     7   ar
    22     7     2   ar
    23    14    15    1
@<TRIPOS>MOLECULE
*****
 23 23 0 0 0
SMALL
GASTEIGER

@<TRIPOS>ATOM
      1 C          -9.2928   -6.3005   19.0231 C.3     1  UNL1        0.0435
      2 C         -10.8834   -2.7240   18.3686 C.ar    1  UNL1        0.1382
      3 C         -10.3869   -2.4425   16.9814 C.ar    1  UNL1        0.0369
      4 C          -9.5258   -3.4470   16.2748 C.ar    1  UNL1        0.0028
      5 C          -9.1611   -4.7330   16.9553 C.ar    1  UNL1       -0.0040
      6 C          -9.6575   -5.0145   18.3425 C.ar    1  UNL1       -0.0178
      7 C         -10.5186   -4.0099   19.0491 C.ar    1  UNL1        0.0327
      8 O         -11.7445   -1.7194   19.0752 O.3     1  UNL1       -0.4755
      9 C         -13.2106   -1.6404   18.7683 C.3     1  UNL1        0.2054
     10 C         -14.1107   -2.7919   19.1057 C.3     1  UNL1        0.0473
     11 C         -13.7439   -5.0561   20.3260 C.3     1  UNL1        0.0001
     12 C         -13.8967   -3.5647   20.3735 C.3     1  UNL1        0.0038
     13 C          -9.8975   -7.5924   18.5591 C.3     1  UNL1        0.0737
     14 N         -11.3854   -7.7141   18.4125 N.3     1  UNL1       -0.2895
     15 H         -11.8002   -7.0173   19.0312 H       1  UNL1        0.1237
     16 C         -12.0237   -7.5334   17.0672 C.3     1  UNL1        0.1552
     17 C         -13.1484   -6.5558   16.8960 C.2     1  UNL1        0.2418
     18 O         -12.8514   -5.1046   16.6600 O.2     1  UNL1       -0.2734
     19 N         -14.5702   -7.0295   16.9608 N.am    1  UNL1       -0.2784
     20 C         -15.6950   -6.0520   16.7896 C.3     1  UNL1        0.0935
     21 C         -16.4927   -5.6105   17.9807 C.3     1  UNL1        0.0233
     22 C         -14.8672   -8.4808   17.1969 C.3     1  UNL1        0.0935
     23 C         -15.0243   -8.9962   18.5967 C.3     1  UNL1        0.0233
@<TRIPOS>BOND
     1    11    12    1
     2    12    10    1
     3    10     9    1
     4     9     8    1
     5     8     2    1
     6     2     3   ar
     7     3     4   ar
     8     4     5   ar
     9     5     6   ar
    10     6     1    1
    11     1    13    1
    12    13    14    1
    13    14    16    1
    14    16    17    1
    15    17    18    2
    16    17    19   am
    17    19    20    1
    18    20    21    1
    19    19    22    1
    20    22    23    1
    21     6     7   ar
    22     7     2   ar
    23    14    15    1
@<TRIPOS>MOLECULE
*****
 23 23 0 0 0
SMALL
GASTEIGER

@<TRIPOS>ATOM
      1 C         -11.7962   -7.7701   16.7511 C.3     1  UNL1        0.0435
      2 C         -10.8642   -4.1623   18.1168 C.ar    1  UNL1        0.1382
      3 C          -9.7841   -4.5019   19.1006 C.ar    1  UNL1        0.0369
      4 C          -9.3746   -5.9309   19.3012 C.ar    1  UNL1        0.0028
      5 C         -10.0453   -7.0203   18.5180 C.ar    1  UNL1       -0.0040
      6 C         -11.1254   -6.6807   17.5343 C.ar    1  UNL1       -0.0178
      7 C         -11.5349   -5.2516   17.3337 C.ar    1  UNL1        0.0327
      8 O         -11.2737   -2.7332   17.9162 O.3     1  UNL1       -0.4755
      9 C         -12.0711   -2.0263   18.9718 C.3     1  UNL1        0.2054
     10 C         -13.4317   -2.5327   19.3489 C.3     1  UNL1        0.0473
     11 C         -13.7366   -4.8959   20.3846 C.3     1  UNL1        0.0001
     12 C         -13.5976   -3.4119   20.5530 C.3     1  UNL1        0.0038
     13 C         -13.2183   -8.1420   17.0499 C.3     1  UNL1        0.0737
     14 N         -13.6494   -8.3803   18.4667 N.3     1  UNL1       -0.2895
     15 H         -13.1967   -7.6654   19.0364 H       1  UNL1        0.1237
     16 C         -15.1067   -8.3578   18.8211 C.3     1  UNL1        0.1552
     17 C         -15.9951   -9.4957   18.4141 C.2     1  UNL1        0.2418
     18 O         -15.4121  -10.8595   18.1902 O.2     1  UNL1       -0.2734
     19 N         -17.4667   -9.2699   18.2309 N.am    1  UNL1       -0.2784
     20 C         -18.3552  -10.4078   17.8239 C.3     1  UNL1        0.0935
     21 C         -19.8415  -10.2961   17.9922 C.3     1  UNL1        0.0233
     22 C         -18.0498   -7.9061   18.4548 C.3     1  UNL1        0.0935
     23 C         -18.1408   -6.9332   17.3168 C.3     1  UNL1        0.0233
@<TRIPOS>BOND
     1    11    12    1
     2    12    10    1
     3    10     9    1
     4     9     8    1
     5     8     2    1
     6     2     3   ar
     7     3     4   ar
     8     4     5   ar
     9     5     6   ar
    10     6     1    1
    11     1    13    1
    12    13    14    1
    13    14    16    1
    14    16    17    1
    15    17    18    2
    16    17    19   am
    17    19    20    1
    18    20    21    1
    19    19    22    1
    20    22    23    1
    21     6     7   ar
    22     7     2   ar
    23    14    15    1
@<TRIPOS>MOLECULE
*****
 23 23 0 0 0
SMALL
GASTEIGER

@<TRIPOS>ATOM
      1 C         -11.8680   -7.6747   16.3836 C.3     1  UNL1        0.0435
      2 C         -10.6328   -4.2321   17.9241 C.ar    1  UNL1        0.1382
      3 C          -9.7283   -4.7190   19.0171 C.ar    1  UNL1        0.0369
      4 C          -9.5370   -6.1911   19.2324 C.ar    1  UNL1        0.0028
      5 C         -10.2502   -7.1763   18.3546 C.ar    1  UNL1       -0.0040
      6 C         -11.1547   -6.6895   17.2615 C.ar    1  UNL1       -0.0178
      7 C         -11.3460   -5.2174   17.0463 C.ar    1  UNL1        0.0327
      8 O         -10.8241   -2.7600   17.7089 O.3     1  UNL1       -0.4755
      9 C         -11.4890   -1.9278   18.7649 C.3     1  UNL1        0.2054
     10 C         -12.9813   -1.7770   18.7717 C.3     1  UNL1        0.0473
     11 C         -13.3583   -3.8513   20.2900 C.3     1  UNL1        0.0001
     12 C         -13.8046   -2.5096   19.7894 C.3     1  UNL1        0.0038
     13 C         -13.3290   -7.4997   16.0928 C.3     1  UNL1        0.0737
     14 N         -14.3245   -8.4830   16.6335 N.3     1  UNL1       -0.2895
     15 H         -14.1791   -9.3571   16.1284 H       1  UNL1        0.1237
     16 C         -14.3258   -8.8223   18.0946 C.3     1  UNL1        0.1552
     17 C         -15.6243   -9.0474   18.8110 C.2     1  UNL1        0.2418
     18 O         -16.2215  -10.4222   18.8670 O.2     1  UNL1       -0.2734
     19 N         -16.3256   -7.8975   19.4716 N.am    1  UNL1       -0.2784
     20 C         -17.6240   -8.1226   20.1880 C.3     1  UNL1        0.0935
     21 C         -18.9236   -7.8995   19.4729 C.3     1  UNL1        0.0233
     22 C         -15.7283   -6.5227   19.4156 C.3     1  UNL1        0.0935
     23 C         -16.0516   -5.6107   18.2695 C.3     1  UNL1        0.0233
@<TRIPOS>BOND
     1    11    12    1
     2    12    10    1
     3    10     9    1
     4     9     8    1
     5     8     2    1
     6     2     3   ar
     7     3     4   ar
     8     4     5   ar
     9     5     6   ar
    10     6     1    1
    11     1    13    1
    12    13    14    1
    13    14    16    1
    14    16    17    1
    15    17    18    2
    16    17    19   am
    17    19    20    1
    18    20    21    1
    19    19    22    1
    20    22    23    1
    21     6     7   ar
    22     7     2   ar
    23    14    15    1
@<TRIPOS>MOLECULE
*****
 23 23 0 0 0
SMALL
GASTEIGER

@<TRIPOS>ATOM
      1 C          -9.8750   -6.0543   19.0785 C.3     1  UNL1        0.0435
      2 C         -10.8631   -2.3868   17.9282 C.ar    1  UNL1        0.1382
      3 C         -10.1027   -2.2793   16.6397 C.ar    1  UNL1        0.0369
      4 C          -9.2664   -3.4301   16.1642 C.ar    1  UNL1        0.0028
      5 C          -9.1905   -4.6884   16.9771 C.ar    1  UNL1       -0.0040
      6 C          -9.9509   -4.7959   18.2655 C.ar    1  UNL1       -0.0178
      7 C         -10.7872   -3.6451   18.7411 C.ar    1  UNL1        0.0327
      8 O         -11.6994   -1.2359   18.4038 O.3     1  UNL1       -0.4755
      9 C         -13.1411   -1.1396   18.0009 C.3     1  UNL1        0.2054
     10 C         -13.5946   -1.7172   16.6930 C.3     1  UNL1        0.0473
     11 C         -13.3874   -4.2098   15.9900 C.3     1  UNL1        0.0001
     12 C         -14.1633   -3.1043   16.6427 C.3     1  UNL1        0.0038
     13 C         -10.5280   -7.3095   18.5805 C.3     1  UNL1        0.0737
     14 N         -11.9355   -7.6340   18.9851 N.3     1  UNL1       -0.2895
     15 H         -12.2360   -6.8968   19.6227 H       1  UNL1        0.1237
     16 C         -13.0045   -7.7659   17.9411 C.3     1  UNL1        0.1552
     17 C         -14.3415   -8.3402   18.3051 C.2     1  UNL1        0.2418
     18 O         -14.5509   -9.8253   18.2834 O.2     1  UNL1       -0.2734
     19 N         -15.4692   -7.4294   18.6909 N.am    1  UNL1       -0.2784
     20 C         -16.8062   -8.0037   19.0549 C.3     1  UNL1        0.0935
     21 C         -16.9551   -8.8264   20.3002 C.3     1  UNL1        0.0233
     22 C         -15.2598   -5.9442   18.7126 C.3     1  UNL1        0.0935
     23 C         -14.6181   -5.2946   19.9026 C.3     1  UNL1        0.0233
@<TRIPOS>BOND
     1    11    12    1
     2    12    10    1
     3    10     9    1
     4     9     8    1
     5     8     2    1
     6     2     3   ar
     7     3     4   ar
     8     4     5   ar
     9     5     6   ar
    10     6     1    1
    11     1    13    1
    12    13    14    1
    13    14    16    1
    14    16    17    1
    15    17    18    2
    16    17    19   am
    17    19    20    1
    18    20    21    1
    19    19    22    1
    20    22    23    1
    21     6     7   ar
    22     7     2   ar
    23    14    15    1
