@<TRIPOS>MOLECULE
*****
 31 34 0 0 0
SMALL
GASTEIGER

@<TRIPOS>ATOM
      1 N           8.9996   -6.2588   22.0850 N.pl3   1  UNL1       -0.2927
      2 H           9.3805   -7.0332   21.6113 H       1  UNL1        0.1541
      3 C           8.8548   -5.0533   25.8634 C.ar    1  UNL1        0.1559
      4 C           8.9978   -5.0232   24.3705 C.ar    1  UNL1        0.0530
      5 C           8.8566   -6.2889   23.5779 C.ar    1  UNL1        0.0529
      6 C           8.5724   -7.5846   24.2782 C.ar    1  UNL1        0.0163
      7 C           8.4294   -7.6146   25.7710 C.ar    1  UNL1        0.0219
      8 C           8.5706   -6.3490   26.5636 C.ar    1  UNL1        0.0995
      9 N           8.4276   -6.3790   28.0565 N.ar    1  UNL1       -0.2839
     10 C           7.2707   -5.8372   28.8425 C.ar    1  UNL1        0.1826
     11 N           7.5445   -6.0796   30.2973 N.ar    1  UNL1       -0.2280
     12 C           8.8708   -6.7712   30.4103 C.ar    1  UNL1        0.0786
     13 C           9.5347   -7.2021   31.6845 C.3     1  UNL1        0.0538
     14 C           9.4166   -6.9563   29.0255 C.ar    1  UNL1        0.0963
     15 C           7.8293   -2.8553   26.7944 C.3     1  UNL1        0.2525
     16 O           8.9961   -3.7876   26.6559 O.3     1  UNL1       -0.4699
     17 C           8.5621   -5.0488   21.3139 C.ar    1  UNL1        0.1632
     18 N           7.1490   -4.5755   21.1432 N.ar    1  UNL1       -0.2280
     19 C           7.1745   -3.3338   20.3019 C.ar    1  UNL1        0.0705
     20 C           8.6033   -3.0397   19.9528 C.ar    1  UNL1        0.0531
     21 S           9.4609   -4.0996   20.5782 S.2     1  UNL1       -0.0512
     22 C           5.9807   -2.5278   19.8834 C.3     1  UNL1        0.0548
     23 C           5.2763   -3.7860   19.4699 C.3     1  UNL1        0.0104
     24 C           6.6852   -1.2697   20.2969 C.3     1  UNL1        0.0104
     25 C           4.7869   -1.7219   19.4648 C.ar    1  UNL1       -0.0175
     26 C           3.6093   -1.5926   20.3848 C.ar    1  UNL1       -0.0031
     27 C           2.4154   -0.7866   19.9661 C.ar    1  UNL1        0.0111
     28 C           2.3993   -0.1099   18.6275 C.ar    1  UNL1        0.0577
     29 CL          1.2055    0.6961   18.2089 Cl      1  UNL1       -0.0822
     30 C           3.5771   -0.2392   17.7076 C.ar    1  UNL1        0.0111
     31 C           4.7708   -1.0451   18.1262 C.ar    1  UNL1       -0.0031
@<TRIPOS>BOND
     1    15    16    1
     2    16     3    1
     3     3     4   ar
     4     4     5   ar
     5     5     1    1
     6     1    17    1
     7    17    18   ar
     8    18    19   ar
     9    19    22    1
    10    22    23    1
    11    22    24    1
    12    22    25    1
    13    25    26   ar
    14    26    27   ar
    15    27    28   ar
    16    28    29    1
    17    28    30   ar
    18    30    31   ar
    19    19    20   ar
    20    20    21   ar
    21     5     6   ar
    22     6     7   ar
    23     7     8   ar
    24     8     9    1
    25     9    10   ar
    26    10    11   ar
    27    11    12   ar
    28    12    13    1
    29    12    14   ar
    30     8     3   ar
    31    14     9   ar
    32    21    17   ar
    33    31    25   ar
    34     1     2    1
@<TRIPOS>MOLECULE
*****
 31 34 0 0 0
SMALL
GASTEIGER

@<TRIPOS>ATOM
      1 N           0.2713    1.9517   18.9685 N.pl3   1  UNL1       -0.2927
      2 H           0.0782    2.2891   18.0640 H       1  UNL1        0.1541
      3 C           3.3331   -0.5024   18.3745 C.ar    1  UNL1        0.1559
      4 C           2.3663    0.6289   18.1866 C.ar    1  UNL1        0.0530
      5 C           1.2381    0.8202   19.1564 C.ar    1  UNL1        0.0529
      6 C           1.0766   -0.1198   20.3140 C.ar    1  UNL1        0.0163
      7 C           2.0434   -1.2512   20.5019 C.ar    1  UNL1        0.0219
      8 C           3.1716   -1.4425   19.5322 C.ar    1  UNL1        0.0995
      9 N           4.1384   -2.5739   19.7201 N.ar    1  UNL1       -0.2839
     10 C           3.9031   -4.0065   19.3432 C.ar    1  UNL1        0.1826
     11 N           5.1295   -4.7893   19.7081 N.ar    1  UNL1       -0.2280
     12 C           6.1229   -3.8404   20.3105 C.ar    1  UNL1        0.0786
     13 C           7.4889   -4.1979   20.8167 C.3     1  UNL1        0.0538
     14 C           5.5103   -2.4712   20.3179 C.ar    1  UNL1        0.0963
     15 C           5.6212    0.2575   17.4065 C.3     1  UNL1        0.2525
     16 O           4.4614   -0.6937   17.4048 O.3     1  UNL1       -0.4699
     17 C          -0.4013    2.5689   20.1587 C.ar    1  UNL1        0.1632
     18 N          -1.8804    2.7274   20.3519 N.ar    1  UNL1       -0.2280
     19 C          -2.1061    3.3925   21.6773 C.ar    1  UNL1        0.0705
     20 C          -0.7666    3.6452   22.3032 C.ar    1  UNL1        0.0531
     21 S           0.2870    3.1362   21.3646 S.2     1  UNL1       -0.0512
     22 C          -3.4376    3.7434   22.2722 C.3     1  UNL1        0.0548
     23 C          -4.1231    3.2306   21.0404 C.3     1  UNL1        0.0104
     24 C          -2.7521    4.2562   23.5040 C.3     1  UNL1        0.0104
     25 C          -4.7691    4.0942   22.8671 C.ar    1  UNL1       -0.0175
     26 C          -5.9846    4.1723   21.9916 C.ar    1  UNL1       -0.0031
     27 C          -7.3162    4.5232   22.5866 C.ar    1  UNL1        0.0111
     28 C          -7.4322    4.7959   24.0570 C.ar    1  UNL1        0.0577
     29 CL         -8.7637    5.1467   24.6520 Cl      1  UNL1       -0.0822
     30 C          -6.2166    4.7178   24.9325 C.ar    1  UNL1        0.0111
     31 C          -4.8851    4.3669   24.3376 C.ar    1  UNL1       -0.0031
@<TRIPOS>BOND
     1    15    16    1
     2    16     3    1
     3     3     4   ar
     4     4     5   ar
     5     5     1    1
     6     1    17    1
     7    17    18   ar
     8    18    19   ar
     9    19    22    1
    10    22    23    1
    11    22    24    1
    12    22    25    1
    13    25    26   ar
    14    26    27   ar
    15    27    28   ar
    16    28    29    1
    17    28    30   ar
    18    30    31   ar
    19    19    20   ar
    20    20    21   ar
    21     5     6   ar
    22     6     7   ar
    23     7     8   ar
    24     8     9    1
    25     9    10   ar
    26    10    11   ar
    27    11    12   ar
    28    12    13    1
    29    12    14   ar
    30     8     3   ar
    31    14     9   ar
    32    21    17   ar
    33    31    25   ar
    34     1     2    1
@<TRIPOS>MOLECULE
*****
 31 34 0 0 0
SMALL
GASTEIGER

@<TRIPOS>ATOM
      1 N           8.8482   -6.3154   22.5529 N.pl3   1  UNL1       -0.2927
      2 H           9.2004   -7.1338   22.1341 H       1  UNL1        0.1541
      3 C           8.1279   -7.3260   26.3225 C.ar    1  UNL1        0.1559
      4 C           8.2474   -7.4130   24.8298 C.ar    1  UNL1        0.0530
      5 C           8.7288   -6.2284   24.0456 C.ar    1  UNL1        0.0529
      6 C           9.0907   -4.9568   24.7541 C.ar    1  UNL1        0.0163
      7 C           8.9713   -4.8698   26.2468 C.ar    1  UNL1        0.0219
      8 C           8.4899   -6.0545   27.0310 C.ar    1  UNL1        0.0995
      9 N           8.3705   -5.9675   28.5237 N.ar    1  UNL1       -0.2839
     10 C           9.2941   -6.6023   29.5206 C.ar    1  UNL1        0.1826
     11 N           8.8009   -6.2575   30.8946 N.ar    1  UNL1       -0.2280
     12 C           7.5724   -5.4095   30.7469 C.ar    1  UNL1        0.0786
     13 C           6.7536   -4.8407   31.8677 C.3     1  UNL1        0.0538
     14 C           7.3064   -5.2303   29.2816 C.ar    1  UNL1        0.0963
     15 C           8.6229   -9.5516   27.5681 C.3     1  UNL1        0.2525
     16 O           7.6465   -8.5107   27.1066 O.3     1  UNL1       -0.4699
     17 C           8.4310   -5.1554   21.6982 C.ar    1  UNL1        0.1632
     18 N           7.0322   -4.6397   21.5335 N.ar    1  UNL1       -0.2280
     19 C           7.0761   -3.4730   20.5917 C.ar    1  UNL1        0.0705
     20 C           8.5021   -3.2676   20.1744 C.ar    1  UNL1        0.0531
     21 S           9.3395   -4.3074   20.8582 S.2     1  UNL1       -0.0512
     22 C           5.9004   -2.6553   20.1457 C.3     1  UNL1        0.0548
     23 C           6.7326   -2.0560   19.0509 C.3     1  UNL1        0.0104
     24 C           5.0682   -3.2545   21.2404 C.3     1  UNL1        0.0104
     25 C           4.7247   -1.8375   19.6995 C.ar    1  UNL1       -0.0175
     26 C           4.7978   -1.0531   18.4231 C.ar    1  UNL1       -0.0031
     27 C           3.6220   -0.2353   17.9770 C.ar    1  UNL1        0.0111
     28 C           2.3733   -0.2020   18.8073 C.ar    1  UNL1        0.0577
     29 CL          1.1976    0.6158   18.3613 Cl      1  UNL1       -0.0822
     30 C           2.3002   -0.9865   20.0838 C.ar    1  UNL1        0.0111
     31 C           3.4760   -1.8042   20.5299 C.ar    1  UNL1       -0.0031
@<TRIPOS>BOND
     1    15    16    1
     2    16     3    1
     3     3     4   ar
     4     4     5   ar
     5     5     1    1
     6     1    17    1
     7    17    18   ar
     8    18    19   ar
     9    19    22    1
    10    22    23    1
    11    22    24    1
    12    22    25    1
    13    25    26   ar
    14    26    27   ar
    15    27    28   ar
    16    28    29    1
    17    28    30   ar
    18    30    31   ar
    19    19    20   ar
    20    20    21   ar
    21     5     6   ar
    22     6     7   ar
    23     7     8   ar
    24     8     9    1
    25     9    10   ar
    26    10    11   ar
    27    11    12   ar
    28    12    13    1
    29    12    14   ar
    30     8     3   ar
    31    14     9   ar
    32    21    17   ar
    33    31    25   ar
    34     1     2    1
@<TRIPOS>MOLECULE
*****
 31 34 0 0 0
SMALL
GASTEIGER

@<TRIPOS>ATOM
      1 N          -0.8344    3.3885   24.6850 N.pl3   1  UNL1       -0.2927
      2 H          -1.5388    4.0709   24.5991 H       1  UNL1        0.1541
      3 C          -0.5442    1.7009   28.2652 C.ar    1  UNL1        0.1559
      4 C          -1.0715    2.0679   26.9098 C.ar    1  UNL1        0.0530
      5 C          -0.3069    3.0216   26.0405 C.ar    1  UNL1        0.0529
      6 C           0.9850    3.6085   26.5266 C.ar    1  UNL1        0.0163
      7 C           1.5124    3.2415   27.8820 C.ar    1  UNL1        0.0219
      8 C           0.7478    2.2878   28.7513 C.ar    1  UNL1        0.0995
      9 N           1.2753    1.9209   30.1068 N.ar    1  UNL1       -0.2839
     10 C           1.9963    0.6536   30.4589 C.ar    1  UNL1        0.1826
     11 N           2.3409    0.7063   31.9178 N.ar    1  UNL1       -0.2280
     12 C           1.8328    2.0063   32.4674 C.ar    1  UNL1        0.0786
     13 C           1.9609    2.4736   33.8870 C.3     1  UNL1        0.0538
     14 C           1.1742    2.7569   31.3481 C.ar    1  UNL1        0.0963
     15 C          -1.3653   -0.7094   28.7808 C.3     1  UNL1        0.2525
     16 O          -1.3088    0.7472   29.1345 O.3     1  UNL1       -0.4699
     17 C          -0.2885    2.7158   23.4605 C.ar    1  UNL1        0.1632
     18 N           0.6435    1.5406   23.4416 N.ar    1  UNL1       -0.2280
     19 C           0.9292    1.1985   22.0093 C.ar    1  UNL1        0.0705
     20 C           0.1738    2.1623   21.1430 C.ar    1  UNL1        0.0531
     21 S          -0.5788    3.1000   22.0399 S.2     1  UNL1       -0.0512
     22 C           1.8148    0.0877   21.5279 C.3     1  UNL1        0.0548
     23 C           0.8733   -0.1692   20.3888 C.3     1  UNL1        0.0104
     24 C           2.7563    0.3446   22.6671 C.3     1  UNL1        0.0104
     25 C           2.7004   -1.0231   21.0465 C.ar    1  UNL1       -0.0175
     26 C           3.5713   -1.7627   22.0183 C.ar    1  UNL1       -0.0031
     27 C           4.4569   -2.8736   21.5367 C.ar    1  UNL1        0.0111
     28 C           4.4715   -3.2447   20.0834 C.ar    1  UNL1        0.0577
     29 CL          5.3571   -4.3556   19.6019 Cl      1  UNL1       -0.0822
     30 C           3.6005   -2.5050   19.1116 C.ar    1  UNL1        0.0111
     31 C           2.7150   -1.3942   19.5932 C.ar    1  UNL1       -0.0031
@<TRIPOS>BOND
     1    15    16    1
     2    16     3    1
     3     3     4   ar
     4     4     5   ar
     5     5     1    1
     6     1    17    1
     7    17    18   ar
     8    18    19   ar
     9    19    22    1
    10    22    23    1
    11    22    24    1
    12    22    25    1
    13    25    26   ar
    14    26    27   ar
    15    27    28   ar
    16    28    29    1
    17    28    30   ar
    18    30    31   ar
    19    19    20   ar
    20    20    21   ar
    21     5     6   ar
    22     6     7   ar
    23     7     8   ar
    24     8     9    1
    25     9    10   ar
    26    10    11   ar
    27    11    12   ar
    28    12    13    1
    29    12    14   ar
    30     8     3   ar
    31    14     9   ar
    32    21    17   ar
    33    31    25   ar
    34     1     2    1
@<TRIPOS>MOLECULE
*****
 31 34 0 0 0
SMALL
GASTEIGER

@<TRIPOS>ATOM
      1 N           8.4071   -4.0343   26.2242 N.pl3   1  UNL1       -0.2927
      2 H           9.3895   -4.0534   26.1625 H       1  UNL1        0.1541
      3 C           7.2024   -4.2385   22.4483 C.ar    1  UNL1        0.1559
      4 C           8.0279   -4.4346   23.6853 C.ar    1  UNL1        0.0530
      5 C           7.5815   -3.8382   24.9872 C.ar    1  UNL1        0.0529
      6 C           6.3096   -3.0457   25.0523 C.ar    1  UNL1        0.0163
      7 C           5.4841   -2.8496   23.8153 C.ar    1  UNL1        0.0219
      8 C           5.9305   -3.4460   22.5134 C.ar    1  UNL1        0.0995
      9 N           5.1049   -3.2499   21.2764 N.ar    1  UNL1       -0.2839
     10 C           4.1571   -4.2486   20.6814 C.ar    1  UNL1        0.1826
     11 N           3.5487   -3.6365   19.4546 N.ar    1  UNL1       -0.2280
     12 C           4.1204   -2.2594   19.2913 C.ar    1  UNL1        0.0786
     13 C           3.7886   -1.2913   18.1947 C.3     1  UNL1        0.0538
     14 C           5.0822   -2.0204   20.4173 C.ar    1  UNL1        0.0963
     15 C           9.1108   -5.0264   20.8713 C.3     1  UNL1        0.2525
     16 O           7.6487   -4.8348   21.1464 O.3     1  UNL1       -0.4699
     17 C           7.7359   -4.2014   27.5552 C.ar    1  UNL1        0.1632
     18 N           7.5263   -3.1248   28.5783 N.ar    1  UNL1       -0.2280
     19 C           6.8173   -3.7324   29.7522 C.ar    1  UNL1        0.0705
     20 C           6.5885   -5.1847   29.4546 C.ar    1  UNL1        0.0531
     21 S           7.1563   -5.4745   28.0967 S.2     1  UNL1       -0.0512
     22 C           6.4087   -3.0139   31.0040 C.3     1  UNL1        0.0548
     23 C           5.9698   -1.8364   30.1848 C.3     1  UNL1        0.0104
     24 C           6.8475   -4.1914   31.8231 C.3     1  UNL1        0.0104
     25 C           6.0001   -2.2954   32.2556 C.ar    1  UNL1       -0.0175
     26 C           6.9694   -1.3832   32.9472 C.ar    1  UNL1       -0.0031
     27 C           6.5607   -0.6647   34.1989 C.ar    1  UNL1        0.0111
     28 C           5.1827   -0.8584   34.7590 C.ar    1  UNL1        0.0577
     29 CL          4.7741   -0.1399   36.0107 Cl      1  UNL1       -0.0822
     30 C           4.2134   -1.7706   34.0674 C.ar    1  UNL1        0.0111
     31 C           4.6221   -2.4891   32.8157 C.ar    1  UNL1       -0.0031
@<TRIPOS>BOND
     1    15    16    1
     2    16     3    1
     3     3     4   ar
     4     4     5   ar
     5     5     1    1
     6     1    17    1
     7    17    18   ar
     8    18    19   ar
     9    19    22    1
    10    22    23    1
    11    22    24    1
    12    22    25    1
    13    25    26   ar
    14    26    27   ar
    15    27    28   ar
    16    28    29    1
    17    28    30   ar
    18    30    31   ar
    19    19    20   ar
    20    20    21   ar
    21     5     6   ar
    22     6     7   ar
    23     7     8   ar
    24     8     9    1
    25     9    10   ar
    26    10    11   ar
    27    11    12   ar
    28    12    13    1
    29    12    14   ar
    30     8     3   ar
    31    14     9   ar
    32    21    17   ar
    33    31    25   ar
    34     1     2    1
@<TRIPOS>MOLECULE
*****
 31 34 0 0 0
SMALL
GASTEIGER

@<TRIPOS>ATOM
      1 N           5.2251   -3.6184   19.3231 N.pl3   1  UNL1       -0.2927
      2 H           5.1402   -4.3500   18.6698 H       1  UNL1        0.1541
      3 C           2.7992   -0.5494   19.9912 C.ar    1  UNL1        0.1559
      4 C           3.5560   -1.8283   20.1948 C.ar    1  UNL1        0.0530
      5 C           4.4683   -2.3393   19.1194 C.ar    1  UNL1        0.0529
      6 C           4.6239   -1.5714   17.8404 C.ar    1  UNL1        0.0163
      7 C           3.8672   -0.2924   17.6367 C.ar    1  UNL1        0.0219
      8 C           2.9548    0.2186   18.7121 C.ar    1  UNL1        0.0995
      9 N           2.1980    1.4976   18.5084 N.ar    1  UNL1       -0.2839
     10 C           2.7922    2.8736   18.4483 C.ar    1  UNL1        0.1826
     11 N           1.6756    3.8516   18.2318 N.ar    1  UNL1       -0.2280
     12 C           0.3913    3.0800   18.1581 C.ar    1  UNL1        0.0786
     13 C          -0.9757    3.6611   17.9501 C.3     1  UNL1        0.0538
     14 C           0.7143    1.6252   18.3291 C.ar    1  UNL1        0.0963
     15 C           2.4196    0.8745   22.1309 C.3     1  UNL1        0.2525
     16 O           1.8869   -0.0383   21.0666 O.3     1  UNL1       -0.4699
     17 C           6.1112   -3.7827   20.5222 C.ar    1  UNL1        0.1632
     18 N           5.6582   -4.1018   21.9161 N.ar    1  UNL1       -0.2280
     19 C           6.8729   -4.1731   22.7934 C.ar    1  UNL1        0.0705
     20 C           8.0766   -3.8980   21.9416 C.ar    1  UNL1        0.0531
     21 S           7.6058   -3.6567   20.5380 S.2     1  UNL1       -0.0512
     22 C           6.8822   -4.4678   24.2641 C.3     1  UNL1        0.0548
     23 C           5.9744   -3.2980   24.5042 C.3     1  UNL1        0.0104
     24 C           7.7900   -5.6375   24.0240 C.3     1  UNL1        0.0104
     25 C           6.8915   -4.7623   25.7348 C.ar    1  UNL1       -0.0175
     26 C           6.5998   -3.6699   26.7204 C.ar    1  UNL1       -0.0031
     27 C           6.6090   -3.9645   28.1912 C.ar    1  UNL1        0.0111
     28 C           6.9100   -5.3516   28.6764 C.ar    1  UNL1        0.0577
     29 CL          6.9193   -5.6463   30.1471 Cl      1  UNL1       -0.0822
     30 C           7.2017   -6.4441   27.6907 C.ar    1  UNL1        0.0111
     31 C           7.1924   -6.1495   26.2200 C.ar    1  UNL1       -0.0031
@<TRIPOS>BOND
     1    15    16    1
     2    16     3    1
     3     3     4   ar
     4     4     5   ar
     5     5     1    1
     6     1    17    1
     7    17    18   ar
     8    18    19   ar
     9    19    22    1
    10    22    23    1
    11    22    24    1
    12    22    25    1
    13    25    26   ar
    14    26    27   ar
    15    27    28   ar
    16    28    29    1
    17    28    30   ar
    18    30    31   ar
    19    19    20   ar
    20    20    21   ar
    21     5     6   ar
    22     6     7   ar
    23     7     8   ar
    24     8     9    1
    25     9    10   ar
    26    10    11   ar
    27    11    12   ar
    28    12    13    1
    29    12    14   ar
    30     8     3   ar
    31    14     9   ar
    32    21    17   ar
    33    31    25   ar
    34     1     2    1
@<TRIPOS>MOLECULE
*****
 31 34 0 0 0
SMALL
GASTEIGER

@<TRIPOS>ATOM
      1 N           0.3240    3.1680   25.5108 N.pl3   1  UNL1       -0.2927
      2 H           0.3868    3.6682   26.3565 H       1  UNL1        0.1541
      3 C          -3.3636    3.4625   24.0738 C.ar    1  UNL1        0.1559
      4 C          -2.2265    3.2018   25.0166 C.ar    1  UNL1        0.0530
      5 C          -0.8132    3.4287   24.5680 C.ar    1  UNL1        0.0529
      6 C          -0.5371    3.9164   23.1766 C.ar    1  UNL1        0.0163
      7 C          -1.6743    4.1771   22.2338 C.ar    1  UNL1        0.0219
      8 C          -3.0875    3.9501   22.6824 C.ar    1  UNL1        0.0995
      9 N          -4.2247    4.2108   21.7396 N.ar    1  UNL1       -0.2839
     10 C          -5.0684    5.4504   21.6972 C.ar    1  UNL1        0.1826
     11 N          -6.0829    5.2834   20.6050 N.ar    1  UNL1       -0.2280
     12 C          -5.8663    3.9406   19.9724 C.ar    1  UNL1        0.0786
     13 C          -6.6589    3.3623   18.8378 C.3     1  UNL1        0.0538
     14 C          -4.7179    3.2778   20.6736 C.ar    1  UNL1        0.0963
     15 C          -5.5036    4.3055   25.2820 C.3     1  UNL1        0.2525
     16 O          -4.7769    3.2355   24.5224 O.3     1  UNL1       -0.4699
     17 C           1.3653    2.1452   25.1652 C.ar    1  UNL1        0.1632
     18 N           1.3746    1.2743   23.9440 N.ar    1  UNL1       -0.2280
     19 C           2.5952    0.4045   24.0041 C.ar    1  UNL1        0.0705
     20 C           3.3404    0.7379   25.2625 C.ar    1  UNL1        0.0531
     21 S           2.5802    1.8137   25.9801 S.2     1  UNL1       -0.0512
     22 C           2.9997   -0.6189   22.9848 C.3     1  UNL1        0.0548
     23 C           3.8215   -1.3264   24.0213 C.3     1  UNL1        0.0104
     24 C           2.1779    0.0886   21.9484 C.3     1  UNL1        0.0104
     25 C           3.4042   -1.6423   21.9656 C.ar    1  UNL1       -0.0175
     26 C           4.2576   -2.8075   22.3705 C.ar    1  UNL1       -0.0031
     27 C           4.6621   -3.8310   21.3512 C.ar    1  UNL1        0.0111
     28 C           4.2131   -3.6892   19.9269 C.ar    1  UNL1        0.0577
     29 CL          4.6176   -4.7127   18.9076 Cl      1  UNL1       -0.0822
     30 C           3.3597   -2.5240   19.5221 C.ar    1  UNL1        0.0111
     31 C           2.9552   -1.5005   20.5414 C.ar    1  UNL1       -0.0031
@<TRIPOS>BOND
     1    15    16    1
     2    16     3    1
     3     3     4   ar
     4     4     5   ar
     5     5     1    1
     6     1    17    1
     7    17    18   ar
     8    18    19   ar
     9    19    22    1
    10    22    23    1
    11    22    24    1
    12    22    25    1
    13    25    26   ar
    14    26    27   ar
    15    27    28   ar
    16    28    29    1
    17    28    30   ar
    18    30    31   ar
    19    19    20   ar
    20    20    21   ar
    21     5     6   ar
    22     6     7   ar
    23     7     8   ar
    24     8     9    1
    25     9    10   ar
    26    10    11   ar
    27    11    12   ar
    28    12    13    1
    29    12    14   ar
    30     8     3   ar
    31    14     9   ar
    32    21    17   ar
    33    31    25   ar
    34     1     2    1
@<TRIPOS>MOLECULE
*****
 31 34 0 0 0
SMALL
GASTEIGER

@<TRIPOS>ATOM
      1 N           6.5494   -4.9882   30.6348 N.pl3   1  UNL1       -0.2927
      2 H           6.3786   -5.8680   31.0424 H       1  UNL1        0.1541
      3 C           6.9854   -5.9535   26.8101 C.ar    1  UNL1        0.1559
      4 C           6.8774   -6.0812   28.3008 C.ar    1  UNL1        0.0530
      5 C           6.6573   -4.8605   29.1441 C.ar    1  UNL1        0.0529
      6 C           6.5451   -3.5120   28.4969 C.ar    1  UNL1        0.0163
      7 C           6.6530   -3.3843   27.0063 C.ar    1  UNL1        0.0219
      8 C           6.8731   -4.6050   26.1629 C.ar    1  UNL1        0.0995
      9 N           6.9811   -4.4773   24.6722 N.ar    1  UNL1       -0.2839
     10 C           5.8980   -4.0075   23.7468 C.ar    1  UNL1        0.1826
     11 N           6.4386   -4.0367   22.3479 N.ar    1  UNL1       -0.2280
     12 C           7.8558   -4.5246   22.4087 C.ar    1  UNL1        0.0786
     13 C           8.7761   -4.7080   21.2385 C.3     1  UNL1        0.0538
     14 C           8.1910   -4.7968   23.8452 C.ar    1  UNL1        0.0963
     15 C           8.5212   -7.8928   26.0164 C.3     1  UNL1        0.2525
     16 O           7.2055   -7.1743   25.9668 O.3     1  UNL1       -0.4699
     17 C           6.7016   -3.7756   31.5045 C.ar    1  UNL1        0.1632
     18 N           5.6088   -3.1080   32.2857 N.ar    1  UNL1       -0.2280
     19 C           6.2051   -1.9374   33.0096 C.ar    1  UNL1        0.0705
     20 C           7.6665   -1.8815   32.6759 C.ar    1  UNL1        0.0531
     21 S           7.9732   -3.0175   31.7456 S.2     1  UNL1       -0.0512
     22 C           5.4693   -0.9893   33.9094 C.3     1  UNL1        0.0548
     23 C           4.2927   -1.9195   33.9273 C.3     1  UNL1        0.0104
     24 C           6.6459   -0.0591   33.8914 C.3     1  UNL1        0.0104
     25 C           4.7334   -0.0412   34.8091 C.ar    1  UNL1       -0.0175
     26 C           3.9342    1.0835   34.2206 C.ar    1  UNL1       -0.0031
     27 C           3.1983    2.0317   35.1204 C.ar    1  UNL1        0.0111
     28 C           3.2616    1.8550   36.6086 C.ar    1  UNL1        0.0577
     29 CL          2.5258    2.8031   37.5084 Cl      1  UNL1       -0.0822
     30 C           4.0609    0.7303   37.1971 C.ar    1  UNL1        0.0111
     31 C           4.7968   -0.2178   36.2973 C.ar    1  UNL1       -0.0031
@<TRIPOS>BOND
     1    15    16    1
     2    16     3    1
     3     3     4   ar
     4     4     5   ar
     5     5     1    1
     6     1    17    1
     7    17    18   ar
     8    18    19   ar
     9    19    22    1
    10    22    23    1
    11    22    24    1
    12    22    25    1
    13    25    26   ar
    14    26    27   ar
    15    27    28   ar
    16    28    29    1
    17    28    30   ar
    18    30    31   ar
    19    19    20   ar
    20    20    21   ar
    21     5     6   ar
    22     6     7   ar
    23     7     8   ar
    24     8     9    1
    25     9    10   ar
    26    10    11   ar
    27    11    12   ar
    28    12    13    1
    29    12    14   ar
    30     8     3   ar
    31    14     9   ar
    32    21    17   ar
    33    31    25   ar
    34     1     2    1
@<TRIPOS>MOLECULE
*****
 31 34 0 0 0
SMALL
GASTEIGER

@<TRIPOS>ATOM
      1 N           2.8920    2.7318   27.0140 N.pl3   1  UNL1       -0.2927
      2 H           2.9998    3.7093   26.9670 H       1  UNL1        0.1541
      3 C           2.3959    1.3334   30.6948 C.ar    1  UNL1        0.1559
      4 C           2.1362    2.0554   29.4060 C.ar    1  UNL1        0.0530
      5 C           3.1517    2.0098   28.3030 C.ar    1  UNL1        0.0529
      6 C           4.4269    1.2422   28.4888 C.ar    1  UNL1        0.0163
      7 C           4.6866    0.5202   29.7777 C.ar    1  UNL1        0.0219
      8 C           3.6711    0.5658   30.8807 C.ar    1  UNL1        0.0995
      9 N           3.9308   -0.1562   32.1697 N.ar    1  UNL1       -0.2839
     10 C           3.8755   -1.6410   32.3751 C.ar    1  UNL1        0.1826
     11 N           4.2020   -1.9226   33.8118 N.ar    1  UNL1       -0.2280
     12 C           4.4591   -0.6118   34.4943 C.ar    1  UNL1        0.0786
     13 C           4.8204   -0.4254   35.9382 C.3     1  UNL1        0.0538
     14 C           4.2915    0.4799   33.4794 C.ar    1  UNL1        0.0963
     15 C           1.2658    2.5997   32.6619 C.3     1  UNL1        0.2525
     16 O           1.3803    1.3790   31.7978 O.3     1  UNL1       -0.4699
     17 C           2.4679    1.9646   25.7969 C.ar    1  UNL1        0.1632
     18 N           3.3043    0.9725   25.0443 N.ar    1  UNL1       -0.2280
     19 C           2.4864    0.4495   23.9008 C.ar    1  UNL1        0.0705
     20 C           1.1445    1.1182   23.9467 C.ar    1  UNL1        0.0531
     21 S           1.1331    2.0546   25.1185 S.2     1  UNL1       -0.0512
     22 C           2.9321   -0.5643   22.8892 C.3     1  UNL1        0.0548
     23 C           3.7275   -1.2702   23.9471 C.3     1  UNL1        0.0104
     24 C           2.1367    0.1416   21.8313 C.3     1  UNL1        0.0104
     25 C           3.3778   -1.5781   21.8776 C.ar    1  UNL1       -0.0175
     26 C           2.9764   -1.4299   20.4399 C.ar    1  UNL1       -0.0031
     27 C           3.4222   -2.4438   19.4283 C.ar    1  UNL1        0.0111
     28 C           4.2695   -3.6060   19.8544 C.ar    1  UNL1        0.0577
     29 CL          4.7153   -4.6198   18.8428 Cl      1  UNL1       -0.0822
     30 C           4.6709   -3.7542   21.2921 C.ar    1  UNL1        0.0111
     31 C           4.2251   -2.7403   22.3036 C.ar    1  UNL1       -0.0031
@<TRIPOS>BOND
     1    15    16    1
     2    16     3    1
     3     3     4   ar
     4     4     5   ar
     5     5     1    1
     6     1    17    1
     7    17    18   ar
     8    18    19   ar
     9    19    22    1
    10    22    23    1
    11    22    24    1
    12    22    25    1
    13    25    26   ar
    14    26    27   ar
    15    27    28   ar
    16    28    29    1
    17    28    30   ar
    18    30    31   ar
    19    19    20   ar
    20    20    21   ar
    21     5     6   ar
    22     6     7   ar
    23     7     8   ar
    24     8     9    1
    25     9    10   ar
    26    10    11   ar
    27    11    12   ar
    28    12    13    1
    29    12    14   ar
    30     8     3   ar
    31    14     9   ar
    32    21    17   ar
    33    31    25   ar
    34     1     2    1
