@<TRIPOS>MOLECULE
*****
 42 46 0 0 0
SMALL
GASTEIGER

@<TRIPOS>ATOM
      1 N           7.6343   -4.5894   27.9504 N.am    1  UNL1       -0.2734
      2 C           7.3816   -4.8119   29.4121 C.2     1  UNL1        0.2438
      3 O           7.7221   -6.1311   30.0398 O.2     1  UNL1       -0.2731
      4 C           6.7886   -3.7153   30.2462 C.3     1  UNL1        0.1488
      5 N           6.4482   -2.3962   29.6186 N.am    1  UNL1       -0.2970
      6 C           6.7008   -2.1736   28.1569 C.2     1  UNL1        0.2389
      7 O           6.3604   -0.8544   27.5293 O.2     1  UNL1       -0.2734
      8 C           7.2938   -3.2702   27.3227 C.3     1  UNL1        0.1314
      9 C           7.8869   -4.3668   26.4887 C.3     1  UNL1        0.0445
     10 C           8.1394   -4.1443   25.0270 C.3     1  UNL1        0.0745
     11 N           7.7990   -2.8251   24.3993 N.3     1  UNL1       -0.2688
     12 C           7.2060   -1.7285   25.2334 C.3     1  UNL1        0.0745
     13 C           6.9534   -1.9511   26.6951 C.3     1  UNL1        0.0445
     14 H           6.0590   -1.6764   30.1661 H       1  UNL1        0.1499
     15 C           8.2273   -5.6860   27.1163 C.3     1  UNL1        0.0938
     16 C           7.4427   -6.9374   26.8550 C.3     1  UNL1        0.0215
     17 C           8.6921   -7.6642   24.6961 C.3     1  UNL1        0.0001
     18 C           8.0205   -8.0180   25.9899 C.3     1  UNL1        0.0018
     19 C           6.5360   -3.9379   31.7080 C.3     1  UNL1        0.0290
     20 C           6.1115   -2.7926   32.5786 C.3     1  UNL1        0.0021
     21 C           7.0879   -1.7051   32.9164 C.3     1  UNL1        0.0001
     22 C           6.6633   -0.5598   33.7870 C.3     1  UNL1        0.0000
     23 C           5.2623   -0.5019   34.3199 C.3     1  UNL1        0.0000
     24 C           4.2859   -1.5894   33.9821 C.3     1  UNL1        0.0000
     25 C           4.7105   -2.7347   33.1114 C.3     1  UNL1        0.0001
     26 C           8.0516   -2.6026   22.9376 C.3     1  UNL1        0.0992
     27 C           6.8975   -2.4631   21.9897 C.ar    1  UNL1       -0.0059
     28 C           6.9647   -1.4707   20.8670 C.ar    1  UNL1        0.0002
     29 C           5.8105   -1.3312   19.9191 C.ar    1  UNL1        0.0372
     30 C           4.5891   -2.1842   20.0940 C.ar    1  UNL1        0.1453
     31 C           4.5219   -3.1767   21.2167 C.ar    1  UNL1        0.0372
     32 C           5.6760   -3.3161   22.1646 C.ar    1  UNL1        0.0002
     33 O           3.4350   -2.0448   19.1461 O.3     1  UNL1       -0.4535
     34 C           2.4687   -0.9082   19.3030 C.ar    1  UNL1        0.1453
     35 C           1.4851   -0.9110   20.4354 C.ar    1  UNL1        0.0375
     36 C           0.5188    0.2256   20.5923 C.ar    1  UNL1        0.0043
     37 C           0.5362    1.3649   19.6167 C.ar    1  UNL1        0.0142
     38 C           1.5199    1.3676   18.4842 C.ar    1  UNL1        0.0043
     39 C           2.4862    0.2311   18.3274 C.ar    1  UNL1        0.0375
     40 C          -0.4300    2.5014   19.7736 C.2     1  UNL1        0.0729
     41 O          -1.4667    2.4604   20.8570 O.co2   1  UNL1       -0.5446
     42 O          -0.3596    3.6790   18.8471 O.co2   1  UNL1       -0.5446
@<TRIPOS>UNITY_ATOM_ATTR
41 1
charge -1
@<TRIPOS>BOND
     1    17    18    1
     2    18    16    1
     3    16    15    1
     4    15     1    1
     5     1     2   am
     6     2     3    2
     7     2     4    1
     8     4    19    1
     9    19    20    1
    10    20    21    1
    11    21    22    1
    12    22    23    1
    13    23    24    1
    14    24    25    1
    15     4     5    1
    16     5     6   am
    17     6     7    2
    18     6     8    1
    19     8     9    1
    20     9    10    1
    21    10    11    1
    22    11    26    1
    23    26    27    1
    24    27    28   ar
    25    28    29   ar
    26    29    30   ar
    27    30    33    1
    28    33    34    1
    29    34    35   ar
    30    35    36   ar
    31    36    37   ar
    32    37    40    1
    33    40    41   ar
    34    40    42   ar
    35    37    38   ar
    36    38    39   ar
    37    30    31   ar
    38    31    32   ar
    39    11    12    1
    40    12    13    1
    41     8     1    1
    42    32    27   ar
    43    25    20    1
    44    13     8    1
    45    39    34   ar
    46     5    14    1
@<TRIPOS>MOLECULE
*****
 42 46 0 0 0
SMALL
GASTEIGER

@<TRIPOS>ATOM
      1 N           3.2474    0.5951   33.0838 N.am    1  UNL1       -0.2734
      2 C           3.6287    0.9474   34.4911 C.2     1  UNL1        0.2438
      3 O           4.6539    0.1283   35.2178 O.2     1  UNL1       -0.2731
      4 C           2.9849    2.1188   35.1717 C.3     1  UNL1        0.1488
      5 N           1.9597    2.9379   34.4450 N.am    1  UNL1       -0.2970
      6 C           1.5784    2.5856   33.0378 C.2     1  UNL1        0.2389
      7 O           0.5532    3.4047   32.3111 O.2     1  UNL1       -0.2734
      8 C           2.2222    1.4142   32.3571 C.3     1  UNL1        0.1314
      9 C           2.8661    0.2428   31.6765 C.3     1  UNL1        0.0445
     10 C           2.4848   -0.1095   30.2692 C.3     1  UNL1        0.0745
     11 N           1.4596    0.7096   29.5426 N.3     1  UNL1       -0.2688
     12 C           0.8157    1.8810   30.2231 C.3     1  UNL1        0.0745
     13 C           1.1971    2.2333   31.6304 C.3     1  UNL1        0.0445
     14 H           1.5371    3.7067   34.8917 H       1  UNL1        0.1499
     15 C           3.8913   -0.5763   32.4032 C.3     1  UNL1        0.0938
     16 C           5.3785   -0.6073   32.2106 C.3     1  UNL1        0.0215
     17 C           6.1173   -3.0958   32.3192 C.3     1  UNL1        0.0001
     18 C           6.0273   -1.7989   31.5709 C.3     1  UNL1        0.0018
     19 C           3.3662    2.4711   36.5790 C.3     1  UNL1        0.0290
     20 C           2.4707    2.0833   37.7182 C.3     1  UNL1        0.0021
     21 C           2.6277    0.7429   38.3729 C.3     1  UNL1        0.0001
     22 C           1.7322    0.3551   39.5120 C.3     1  UNL1        0.0000
     23 C           0.6796    1.3077   39.9965 C.3     1  UNL1        0.0000
     24 C           0.5225    2.6481   39.3417 C.3     1  UNL1        0.0000
     25 C           1.4181    3.0359   38.2026 C.3     1  UNL1        0.0001
     26 C           1.0783    0.3573   28.1352 C.3     1  UNL1        0.0992
     27 C           0.4496    1.3901   27.2476 C.ar    1  UNL1       -0.0059
     28 C          -0.9921    1.7608   27.4327 C.ar    1  UNL1        0.0002
     29 C          -1.6208    2.7937   26.5450 C.ar    1  UNL1        0.0372
     30 C          -0.8079    3.4558   25.4723 C.ar    1  UNL1        0.1453
     31 C           0.6337    3.0850   25.2871 C.ar    1  UNL1        0.0372
     32 C           1.2624    2.0522   26.1748 C.ar    1  UNL1        0.0002
     33 O          -1.4367    4.4886   24.5847 O.3     1  UNL1       -0.4535
     34 C          -2.9297    4.6237   24.5319 C.ar    1  UNL1        0.1453
     35 C          -3.7479    3.6155   23.7809 C.ar    1  UNL1        0.0375
     36 C          -5.2408    3.7506   23.7282 C.ar    1  UNL1        0.0043
     37 C          -5.9156    4.8938   24.4265 C.ar    1  UNL1        0.0142
     38 C          -5.0974    5.9020   25.1776 C.ar    1  UNL1        0.0043
     39 C          -3.6044    5.7670   25.2303 C.ar    1  UNL1        0.0375
     40 C          -7.4086    5.0289   24.3738 C.2     1  UNL1        0.0729
     41 O          -8.1956    4.2602   23.3540 O.co2   1  UNL1       -0.5446
     42 O          -8.1145    5.9325   25.3407 O.co2   1  UNL1       -0.5446
@<TRIPOS>UNITY_ATOM_ATTR
41 1
charge -1
@<TRIPOS>BOND
     1    17    18    1
     2    18    16    1
     3    16    15    1
     4    15     1    1
     5     1     2   am
     6     2     3    2
     7     2     4    1
     8     4    19    1
     9    19    20    1
    10    20    21    1
    11    21    22    1
    12    22    23    1
    13    23    24    1
    14    24    25    1
    15     4     5    1
    16     5     6   am
    17     6     7    2
    18     6     8    1
    19     8     9    1
    20     9    10    1
    21    10    11    1
    22    11    26    1
    23    26    27    1
    24    27    28   ar
    25    28    29   ar
    26    29    30   ar
    27    30    33    1
    28    33    34    1
    29    34    35   ar
    30    35    36   ar
    31    36    37   ar
    32    37    40    1
    33    40    41   ar
    34    40    42   ar
    35    37    38   ar
    36    38    39   ar
    37    30    31   ar
    38    31    32   ar
    39    11    12    1
    40    12    13    1
    41     8     1    1
    42    32    27   ar
    43    25    20    1
    44    13     8    1
    45    39    34   ar
    46     5    14    1
@<TRIPOS>MOLECULE
*****
 42 46 0 0 0
SMALL
GASTEIGER

@<TRIPOS>ATOM
      1 N           7.4042   -4.2168   25.0741 N.am    1  UNL1       -0.2734
      2 C           7.3909   -3.8934   23.6094 C.2     1  UNL1        0.2438
      3 O           8.1141   -4.7797   22.6391 O.2     1  UNL1       -0.2731
      4 C           6.6545   -2.6838   23.1151 C.3     1  UNL1        0.1488
      5 N           5.9314   -1.7975   24.0854 N.am    1  UNL1       -0.2970
      6 C           5.9446   -2.1208   25.5500 C.2     1  UNL1        0.2389
      7 O           5.2214   -1.2345   26.5204 O.2     1  UNL1       -0.2734
      8 C           6.6810   -3.3306   26.0444 C.3     1  UNL1        0.1314
      9 C           7.4174   -4.5402   26.5387 C.3     1  UNL1        0.0445
     10 C           7.4307   -4.8636   28.0034 C.3     1  UNL1        0.0745
     11 N           6.7075   -3.9773   28.9737 N.3     1  UNL1       -0.2688
     12 C           5.9711   -2.7676   28.4794 C.3     1  UNL1        0.0745
     13 C           5.9579   -2.4443   27.0148 C.3     1  UNL1        0.0445
     14 H           5.4480   -1.0035   23.7610 H       1  UNL1        0.1499
     15 C           8.1406   -5.4265   25.5684 C.3     1  UNL1        0.0938
     16 C           7.7550   -6.7911   25.0793 C.3     1  UNL1        0.0215
     17 C           8.1797   -8.4673   27.0183 C.3     1  UNL1        0.0001
     18 C           8.4520   -8.0054   25.6175 C.3     1  UNL1        0.0018
     19 C           6.6412   -2.3603   21.6504 C.3     1  UNL1        0.0290
     20 C           5.5231   -2.8572   20.7827 C.3     1  UNL1        0.0021
     21 C           4.2646   -2.0524   20.6471 C.3     1  UNL1        0.0001
     22 C           3.1465   -2.5493   19.7794 C.3     1  UNL1        0.0000
     23 C           3.2869   -3.8510   19.0473 C.3     1  UNL1        0.0000
     24 C           4.5455   -4.6558   19.1829 C.3     1  UNL1        0.0000
     25 C           5.6636   -4.1588   20.0506 C.3     1  UNL1        0.0001
     26 C           6.7208   -4.3007   30.4384 C.3     1  UNL1        0.0992
     27 C           6.9094   -3.2062   31.4465 C.ar    1  UNL1       -0.0059
     28 C           8.2909   -2.7359   31.7933 C.ar    1  UNL1        0.0002
     29 C           8.4795   -1.6412   32.8015 C.ar    1  UNL1        0.0372
     30 C           7.2866   -1.0169   33.4627 C.ar    1  UNL1        0.1453
     31 C           5.9051   -1.4872   33.1159 C.ar    1  UNL1        0.0372
     32 C           5.7165   -2.5818   32.1078 C.ar    1  UNL1        0.0002
     33 O           7.4753    0.0776   34.4708 O.3     1  UNL1       -0.4535
     34 C           6.3038    0.5775   35.2632 C.ar    1  UNL1        0.1453
     35 C           5.8172   -0.1969   36.4520 C.ar    1  UNL1        0.0375
     36 C           4.6458    0.3029   37.2444 C.ar    1  UNL1        0.0043
     37 C           3.9610    1.5773   36.8480 C.ar    1  UNL1        0.0142
     38 C           4.4477    2.3518   35.6591 C.ar    1  UNL1        0.0043
     39 C           5.6191    1.8519   34.8667 C.ar    1  UNL1        0.0375
     40 C           2.7896    2.0771   37.6404 C.2     1  UNL1        0.0729
     41 O           2.6469    1.7021   39.0858 O.co2   1  UNL1       -0.5446
     42 O           1.7609    2.9520   36.9875 O.co2   1  UNL1       -0.5446
@<TRIPOS>UNITY_ATOM_ATTR
41 1
charge -1
@<TRIPOS>BOND
     1    17    18    1
     2    18    16    1
     3    16    15    1
     4    15     1    1
     5     1     2   am
     6     2     3    2
     7     2     4    1
     8     4    19    1
     9    19    20    1
    10    20    21    1
    11    21    22    1
    12    22    23    1
    13    23    24    1
    14    24    25    1
    15     4     5    1
    16     5     6   am
    17     6     7    2
    18     6     8    1
    19     8     9    1
    20     9    10    1
    21    10    11    1
    22    11    26    1
    23    26    27    1
    24    27    28   ar
    25    28    29   ar
    26    29    30   ar
    27    30    33    1
    28    33    34    1
    29    34    35   ar
    30    35    36   ar
    31    36    37   ar
    32    37    40    1
    33    40    41   ar
    34    40    42   ar
    35    37    38   ar
    36    38    39   ar
    37    30    31   ar
    38    31    32   ar
    39    11    12    1
    40    12    13    1
    41     8     1    1
    42    32    27   ar
    43    25    20    1
    44    13     8    1
    45    39    34   ar
    46     5    14    1
@<TRIPOS>MOLECULE
*****
 42 46 0 0 0
SMALL
GASTEIGER

@<TRIPOS>ATOM
      1 N           3.5767    0.6228   33.2119 N.am    1  UNL1       -0.2734
      2 C           3.8617    1.0591   34.6185 C.2     1  UNL1        0.2438
      3 O           4.9664    0.4077   35.3966 O.2     1  UNL1       -0.2731
      4 C           3.0419    2.1466   35.2471 C.3     1  UNL1        0.1488
      5 N           1.9372    2.7980   34.4691 N.am    1  UNL1       -0.2970
      6 C           1.6522    2.3618   33.0625 C.2     1  UNL1        0.2389
      7 O           0.5475    3.0131   32.2845 O.2     1  UNL1       -0.2734
      8 C           2.4720    1.2741   32.4339 C.3     1  UNL1        0.1314
      9 C           3.2918    0.1866   31.8054 C.3     1  UNL1        0.0445
     10 C           3.0068   -0.2497   30.3988 C.3     1  UNL1        0.0745
     11 N           1.9020    0.4017   29.6208 N.3     1  UNL1       -0.2688
     12 C           1.0823    1.4893   30.2494 C.3     1  UNL1        0.0745
     13 C           1.3673    1.9255   31.6559 C.3     1  UNL1        0.0445
     14 H           1.3992    3.5118   34.8817 H       1  UNL1        0.1499
     15 C           4.3965   -0.4648   32.5834 C.3     1  UNL1        0.0938
     16 C           4.5768   -1.7737   33.2935 C.3     1  UNL1        0.0215
     17 C           6.8477   -2.7291   32.4689 C.3     1  UNL1        0.0001
     18 C           5.3656   -2.8745   32.6485 C.3     1  UNL1        0.0018
     19 C           3.3269    2.5829   36.6537 C.3     1  UNL1        0.0290
     20 C           2.4328    2.1377   37.7728 C.3     1  UNL1        0.0021
     21 C           2.6496    0.8019   38.4199 C.3     1  UNL1        0.0001
     22 C           1.7555    0.3567   39.5389 C.3     1  UNL1        0.0000
     23 C           0.6445    1.2472   40.0109 C.3     1  UNL1        0.0000
     24 C           0.4277    2.5830   39.3638 C.3     1  UNL1        0.0000
     25 C           1.3219    3.0282   38.2447 C.3     1  UNL1        0.0001
     26 C           1.6171   -0.0346   28.2142 C.3     1  UNL1        0.0992
     27 C           2.7401   -0.1712   27.2292 C.ar    1  UNL1       -0.0059
     28 C           3.5855   -1.4102   27.2228 C.ar    1  UNL1        0.0002
     29 C           4.7086   -1.5467   26.2378 C.ar    1  UNL1        0.0372
     30 C           4.9861   -0.4443   25.2593 C.ar    1  UNL1        0.1453
     31 C           4.1407    0.7947   25.2657 C.ar    1  UNL1        0.0372
     32 C           3.0177    0.9313   26.2506 C.ar    1  UNL1        0.0002
     33 O           6.1091   -0.5809   24.2743 O.3     1  UNL1       -0.4535
     34 C           5.8649   -1.2283   22.9434 C.ar    1  UNL1        0.1453
     35 C           6.9701   -1.3038   21.9321 C.ar    1  UNL1        0.0375
     36 C           6.7258   -1.9512   20.6012 C.ar    1  UNL1        0.0043
     37 C           5.3764   -2.5230   20.2816 C.ar    1  UNL1        0.0142
     38 C           4.2712   -2.4474   21.2930 C.ar    1  UNL1        0.0043
     39 C           4.5154   -1.8000   22.6239 C.ar    1  UNL1        0.0375
     40 C           5.1322   -3.1703   18.9507 C.2     1  UNL1        0.0729
     41 O           5.8162   -2.6439   17.7239 O.co2   1  UNL1       -0.5446
     42 O           4.2040   -4.3440   18.8467 O.co2   1  UNL1       -0.5446
@<TRIPOS>UNITY_ATOM_ATTR
41 1
charge -1
@<TRIPOS>BOND
     1    17    18    1
     2    18    16    1
     3    16    15    1
     4    15     1    1
     5     1     2   am
     6     2     3    2
     7     2     4    1
     8     4    19    1
     9    19    20    1
    10    20    21    1
    11    21    22    1
    12    22    23    1
    13    23    24    1
    14    24    25    1
    15     4     5    1
    16     5     6   am
    17     6     7    2
    18     6     8    1
    19     8     9    1
    20     9    10    1
    21    10    11    1
    22    11    26    1
    23    26    27    1
    24    27    28   ar
    25    28    29   ar
    26    29    30   ar
    27    30    33    1
    28    33    34    1
    29    34    35   ar
    30    35    36   ar
    31    36    37   ar
    32    37    40    1
    33    40    41   ar
    34    40    42   ar
    35    37    38   ar
    36    38    39   ar
    37    30    31   ar
    38    31    32   ar
    39    11    12    1
    40    12    13    1
    41     8     1    1
    42    32    27   ar
    43    25    20    1
    44    13     8    1
    45    39    34   ar
    46     5    14    1
@<TRIPOS>MOLECULE
*****
 42 46 0 0 0
SMALL
GASTEIGER

@<TRIPOS>ATOM
      1 N           4.5800   -2.3209   19.8092 N.am    1  UNL1       -0.2734
      2 C           3.5811   -1.4731   19.0788 C.2     1  UNL1        0.2438
      3 O           3.6040   -1.4104   17.5802 O.2     1  UNL1       -0.2731
      4 C           2.5595   -0.6881   19.8468 C.3     1  UNL1        0.1488
      5 N           2.5366   -0.7508   21.3453 N.am    1  UNL1       -0.2970
      6 C           3.5354   -1.5986   22.0758 C.2     1  UNL1        0.2389
      7 O           3.5125   -1.6614   23.5743 O.2     1  UNL1       -0.2734
      8 C           4.5571   -2.3837   21.3078 C.3     1  UNL1        0.1314
      9 C           5.5788   -3.1687   20.5397 C.3     1  UNL1        0.0445
     10 C           6.5776   -4.0165   21.2702 C.3     1  UNL1        0.0745
     11 N           6.5547   -4.0792   22.7687 N.3     1  UNL1       -0.2688
     12 C           5.5330   -3.2942   23.5368 C.3     1  UNL1        0.0745
     13 C           4.5342   -2.4465   22.8063 C.3     1  UNL1        0.0445
     14 H           1.8660   -0.2356   21.8494 H       1  UNL1        0.1499
     15 C           5.6016   -3.1060   19.0412 C.3     1  UNL1        0.0938
     16 C           6.5176   -2.4072   18.0806 C.3     1  UNL1        0.0215
     17 C           6.8203    0.0912   17.4354 C.3     1  UNL1        0.0001
     18 C           7.0358   -1.0365   18.4007 C.3     1  UNL1        0.0018
     19 C           1.5606    0.1597   19.1163 C.3     1  UNL1        0.0290
     20 C           1.9026    1.5733   18.7492 C.3     1  UNL1        0.0021
     21 C           3.3355    1.9720   18.5547 C.3     1  UNL1        0.0001
     22 C           3.6775    3.3856   18.1876 C.3     1  UNL1        0.0000
     23 C           2.5865    4.4006   18.0150 C.3     1  UNL1        0.0000
     24 C           1.1536    4.0019   18.2095 C.3     1  UNL1        0.0000
     25 C           0.8117    2.5882   18.5766 C.3     1  UNL1        0.0001
     26 C           7.5535   -4.9271   23.4992 C.3     1  UNL1        0.0992
     27 C           7.7833   -4.7189   24.9668 C.ar    1  UNL1       -0.0059
     28 C           7.0614   -5.5719   25.9674 C.ar    1  UNL1        0.0002
     29 C           7.2912   -5.3636   27.4350 C.ar    1  UNL1        0.0372
     30 C           8.2429   -4.3025   27.9020 C.ar    1  UNL1        0.1453
     31 C           8.9648   -3.4495   26.9014 C.ar    1  UNL1        0.0372
     32 C           8.7351   -3.6577   25.4338 C.ar    1  UNL1        0.0002
     33 O           8.4726   -4.0943   29.3696 O.3     1  UNL1       -0.4535
     34 C           7.4004   -3.4749   30.2161 C.ar    1  UNL1        0.1453
     35 C           7.1515   -3.9864   31.6040 C.ar    1  UNL1        0.0375
     36 C           6.0793   -3.3670   32.4506 C.ar    1  UNL1        0.0043
     37 C           5.2560   -2.2360   31.9093 C.ar    1  UNL1        0.0142
     38 C           5.5049   -1.7244   30.5213 C.ar    1  UNL1        0.0043
     39 C           6.5771   -2.3438   29.6747 C.ar    1  UNL1        0.0375
     40 C           4.1838   -1.6166   32.7558 C.2     1  UNL1        0.0729
     41 O           3.2543   -0.5993   32.1631 O.co2   1  UNL1       -0.5446
     42 O           4.0410   -2.0144   34.1950 O.co2   1  UNL1       -0.5446
@<TRIPOS>UNITY_ATOM_ATTR
41 1
charge -1
@<TRIPOS>BOND
     1    17    18    1
     2    18    16    1
     3    16    15    1
     4    15     1    1
     5     1     2   am
     6     2     3    2
     7     2     4    1
     8     4    19    1
     9    19    20    1
    10    20    21    1
    11    21    22    1
    12    22    23    1
    13    23    24    1
    14    24    25    1
    15     4     5    1
    16     5     6   am
    17     6     7    2
    18     6     8    1
    19     8     9    1
    20     9    10    1
    21    10    11    1
    22    11    26    1
    23    26    27    1
    24    27    28   ar
    25    28    29   ar
    26    29    30   ar
    27    30    33    1
    28    33    34    1
    29    34    35   ar
    30    35    36   ar
    31    36    37   ar
    32    37    40    1
    33    40    41   ar
    34    40    42   ar
    35    37    38   ar
    36    38    39   ar
    37    30    31   ar
    38    31    32   ar
    39    11    12    1
    40    12    13    1
    41     8     1    1
    42    32    27   ar
    43    25    20    1
    44    13     8    1
    45    39    34   ar
    46     5    14    1
@<TRIPOS>MOLECULE
*****
 42 46 0 0 0
SMALL
GASTEIGER

@<TRIPOS>ATOM
      1 N           3.2270   -0.0173   31.7500 N.am    1  UNL1       -0.2734
      2 C           3.9790   -0.5353   32.9402 C.2     1  UNL1        0.2438
      3 O           4.8412   -1.7558   32.8095 O.2     1  UNL1       -0.2731
      4 C           3.8688    0.1672   34.2608 C.3     1  UNL1        0.1488
      5 N           3.0067    1.3877   34.3915 N.am    1  UNL1       -0.2970
      6 C           2.2547    1.9057   33.2015 C.2     1  UNL1        0.2389
      7 O           1.3926    3.1262   33.3321 O.2     1  UNL1       -0.2734
      8 C           2.3649    1.2032   31.8807 C.3     1  UNL1        0.1314
      9 C           2.4751    0.5007   30.5600 C.3     1  UNL1        0.0445
     10 C           1.7232    1.0187   29.3700 C.3     1  UNL1        0.0745
     11 N           0.8610    2.2392   29.5006 N.3     1  UNL1       -0.2688
     12 C           0.7508    2.9417   30.8213 C.3     1  UNL1        0.0745
     13 C           1.5027    2.4237   32.0113 C.3     1  UNL1        0.0445
     14 H           2.9343    1.8488   35.2583 H       1  UNL1        0.1499
     15 C           3.3372   -0.7198   30.4293 C.3     1  UNL1        0.0938
     16 C           4.6435   -0.7304   29.6921 C.3     1  UNL1        0.0215
     17 C           3.6543   -1.3459   27.3700 C.3     1  UNL1        0.0001
     18 C           4.7585   -1.4482   28.3801 C.3     1  UNL1        0.0018
     19 C           4.6208   -0.3507   35.4510 C.3     1  UNL1        0.0290
     20 C           4.8695    0.5443   36.6287 C.3     1  UNL1        0.0021
     21 C           6.2100    1.1931   36.8078 C.3     1  UNL1        0.0001
     22 C           6.4587    2.0881   37.9855 C.3     1  UNL1        0.0000
     23 C           5.3668    2.3344   38.9842 C.3     1  UNL1        0.0000
     24 C           4.0263    1.6856   38.8051 C.3     1  UNL1        0.0000
     25 C           3.7777    0.7905   37.6273 C.3     1  UNL1        0.0001
     26 C           0.1090    2.7571   28.3105 C.3     1  UNL1        0.0992
     27 C           0.5688    2.4128   26.9248 C.ar    1  UNL1       -0.0059
     28 C           1.8025    3.0547   26.3628 C.ar    1  UNL1        0.0002
     29 C           2.2622    2.7103   24.9770 C.ar    1  UNL1        0.0372
     30 C           1.4882    1.7241   24.1535 C.ar    1  UNL1        0.1453
     31 C           0.2545    1.0822   24.7156 C.ar    1  UNL1        0.0372
     32 C          -0.2052    1.4265   26.1012 C.ar    1  UNL1        0.0002
     33 O           1.9480    1.3798   22.7679 O.3     1  UNL1       -0.4535
     34 C           2.6558    0.0820   22.5133 C.ar    1  UNL1        0.1453
     35 C           2.6382   -0.5255   21.1420 C.ar    1  UNL1        0.0375
     36 C           3.3461   -1.8232   20.8874 C.ar    1  UNL1        0.0043
     37 C           4.0716   -2.5134   22.0042 C.ar    1  UNL1        0.0142
     38 C           4.0893   -1.9059   23.3756 C.ar    1  UNL1        0.0043
     39 C           3.3814   -0.6081   23.6302 C.ar    1  UNL1        0.0375
     40 C           4.7795   -3.8111   21.7497 C.2     1  UNL1        0.0729
     41 O           4.3972   -4.6552   20.5700 O.co2   1  UNL1       -0.5446
     42 O           5.8697   -4.2648   22.6746 O.co2   1  UNL1       -0.5446
@<TRIPOS>UNITY_ATOM_ATTR
41 1
charge -1
@<TRIPOS>BOND
     1    17    18    1
     2    18    16    1
     3    16    15    1
     4    15     1    1
     5     1     2   am
     6     2     3    2
     7     2     4    1
     8     4    19    1
     9    19    20    1
    10    20    21    1
    11    21    22    1
    12    22    23    1
    13    23    24    1
    14    24    25    1
    15     4     5    1
    16     5     6   am
    17     6     7    2
    18     6     8    1
    19     8     9    1
    20     9    10    1
    21    10    11    1
    22    11    26    1
    23    26    27    1
    24    27    28   ar
    25    28    29   ar
    26    29    30   ar
    27    30    33    1
    28    33    34    1
    29    34    35   ar
    30    35    36   ar
    31    36    37   ar
    32    37    40    1
    33    40    41   ar
    34    40    42   ar
    35    37    38   ar
    36    38    39   ar
    37    30    31   ar
    38    31    32   ar
    39    11    12    1
    40    12    13    1
    41     8     1    1
    42    32    27   ar
    43    25    20    1
    44    13     8    1
    45    39    34   ar
    46     5    14    1
@<TRIPOS>MOLECULE
*****
 42 46 0 0 0
SMALL
GASTEIGER

@<TRIPOS>ATOM
      1 N           5.5209   -1.9122   29.8389 N.am    1  UNL1       -0.2734
      2 C           4.9144   -1.4184   31.1189 C.2     1  UNL1        0.2438
      3 O           4.0928   -0.1634   31.1244 O.2     1  UNL1       -0.2731
      4 C           5.1295   -2.1796   32.3934 C.3     1  UNL1        0.1488
      5 N           5.9511   -3.4346   32.3879 N.am    1  UNL1       -0.2970
      6 C           6.5576   -3.9283   31.1080 C.2     1  UNL1        0.2389
      7 O           7.3792   -5.1833   31.1025 O.2     1  UNL1       -0.2734
      8 C           6.3425   -3.1671   29.8334 C.3     1  UNL1        0.1314
      9 C           6.1275   -2.4060   28.5590 C.3     1  UNL1        0.0445
     10 C           6.7340   -2.8997   27.2790 C.3     1  UNL1        0.0745
     11 N           7.5556   -4.1547   27.2736 N.3     1  UNL1       -0.2688
     12 C           7.7707   -4.9159   28.5480 C.3     1  UNL1        0.0745
     13 C           7.1641   -4.4221   29.8280 C.3     1  UNL1        0.0445
     14 H           6.0922   -3.9342   33.2244 H       1  UNL1        0.1499
     15 C           5.3059   -1.1510   28.5644 C.3     1  UNL1        0.0938
     16 C           3.9206   -0.9888   28.0123 C.3     1  UNL1        0.0215
     17 C           3.9929   -1.3178   25.4362 C.3     1  UNL1        0.0001
     18 C           3.7239   -0.4470   26.6275 C.3     1  UNL1        0.0018
     19 C           4.5229   -1.6858   33.6734 C.3     1  UNL1        0.0290
     20 C           5.3414   -0.8613   34.6221 C.3     1  UNL1        0.0021
     21 C           4.7781   -0.4739   35.9572 C.3     1  UNL1        0.0001
     22 C           5.5966    0.3506   36.9059 C.3     1  UNL1        0.0000
     23 C           6.9785    0.7879   36.5195 C.3     1  UNL1        0.0000
     24 C           7.5418    0.4005   35.1844 C.3     1  UNL1        0.0000
     25 C           6.7232   -0.4241   34.2356 C.3     1  UNL1        0.0001
     26 C           8.1622   -4.6485   25.9936 C.3     1  UNL1        0.0992
     27 C           7.8110   -3.9879   24.6934 C.ar    1  UNL1       -0.0059
     28 C           8.7751   -3.0343   24.0523 C.ar    1  UNL1        0.0002
     29 C           8.4239   -2.3737   22.7521 C.ar    1  UNL1        0.0372
     30 C           7.1087   -2.6668   22.0931 C.ar    1  UNL1        0.1453
     31 C           6.1446   -3.6205   22.7343 C.ar    1  UNL1        0.0372
     32 C           6.4957   -4.2810   24.0344 C.ar    1  UNL1        0.0002
     33 O           6.7576   -2.0063   20.7930 O.3     1  UNL1       -0.4535
     34 C           5.3572   -1.5269   20.5495 C.ar    1  UNL1        0.1453
     35 C           4.7937   -0.4076   21.3737 C.ar    1  UNL1        0.0375
     36 C           3.3934    0.0718   21.1302 C.ar    1  UNL1        0.0043
     37 C           2.5566   -0.5682   20.0624 C.ar    1  UNL1        0.0142
     38 C           3.1202   -1.6876   19.2380 C.ar    1  UNL1        0.0043
     39 C           4.5205   -2.1669   19.4816 C.ar    1  UNL1        0.0375
     40 C           1.1563   -0.0888   19.8188 C.2     1  UNL1        0.0729
     41 O           0.7823    0.4880   18.4855 O.co2   1  UNL1       -0.5446
     42 O           0.1301   -0.1862   20.9084 O.co2   1  UNL1       -0.5446
@<TRIPOS>UNITY_ATOM_ATTR
41 1
charge -1
@<TRIPOS>BOND
     1    17    18    1
     2    18    16    1
     3    16    15    1
     4    15     1    1
     5     1     2   am
     6     2     3    2
     7     2     4    1
     8     4    19    1
     9    19    20    1
    10    20    21    1
    11    21    22    1
    12    22    23    1
    13    23    24    1
    14    24    25    1
    15     4     5    1
    16     5     6   am
    17     6     7    2
    18     6     8    1
    19     8     9    1
    20     9    10    1
    21    10    11    1
    22    11    26    1
    23    26    27    1
    24    27    28   ar
    25    28    29   ar
    26    29    30   ar
    27    30    33    1
    28    33    34    1
    29    34    35   ar
    30    35    36   ar
    31    36    37   ar
    32    37    40    1
    33    40    41   ar
    34    40    42   ar
    35    37    38   ar
    36    38    39   ar
    37    30    31   ar
    38    31    32   ar
    39    11    12    1
    40    12    13    1
    41     8     1    1
    42    32    27   ar
    43    25    20    1
    44    13     8    1
    45    39    34   ar
    46     5    14    1
@<TRIPOS>MOLECULE
*****
 42 46 0 0 0
SMALL
GASTEIGER

@<TRIPOS>ATOM
      1 N           6.7551   -2.4828   25.5790 N.am    1  UNL1       -0.2734
      2 C           6.8214   -2.2590   24.0972 C.2     1  UNL1        0.2438
      3 O           6.6943   -0.8714   23.5419 O.2     1  UNL1       -0.2731
      4 C           7.0148   -3.4228   23.1708 C.3     1  UNL1        0.1488
      5 N           7.1419   -4.8104   23.7262 N.am    1  UNL1       -0.2970
      6 C           7.0756   -5.0342   25.2078 C.2     1  UNL1        0.2389
      7 O           7.2027   -6.4218   25.7632 O.2     1  UNL1       -0.2734
      8 C           6.8822   -3.8704   26.1343 C.3     1  UNL1        0.1314
      9 C           6.6888   -2.7066   27.0607 C.3     1  UNL1        0.0445
     10 C           6.6225   -2.9305   28.5423 C.3     1  UNL1        0.0745
     11 N           6.7496   -4.3181   29.0977 N.3     1  UNL1       -0.2688
     12 C           6.9430   -5.4819   28.1713 C.3     1  UNL1        0.0745
     13 C           7.0093   -5.2580   26.6896 C.3     1  UNL1        0.0445
     14 H           7.2689   -5.5742   23.1181 H       1  UNL1        0.1499
     15 C           6.5617   -1.3190   26.5053 C.3     1  UNL1        0.0938
     16 C           5.3877   -0.4032   26.3241 C.3     1  UNL1        0.0215
     17 C           3.4334   -0.8531   24.6723 C.3     1  UNL1        0.0001
     18 C           4.0285   -0.9726   26.0440 C.3     1  UNL1        0.0018
     19 C           7.0812   -3.1990   21.6890 C.3     1  UNL1        0.0290
     20 C           5.8332   -3.2834   20.8612 C.3     1  UNL1        0.0021
     21 C           4.7351   -2.2802   21.0553 C.3     1  UNL1        0.0001
     22 C           3.4871   -2.3647   20.2274 C.3     1  UNL1        0.0000
     23 C           3.3372   -3.4525   19.2054 C.3     1  UNL1        0.0000
     24 C           4.4353   -4.4557   19.0113 C.3     1  UNL1        0.0000
     25 C           5.6833   -4.3712   19.8393 C.3     1  UNL1        0.0001
     26 C           6.6833   -4.5419   30.5795 C.3     1  UNL1        0.0992
     27 C           6.8537   -3.3866   31.5208 C.ar    1  UNL1       -0.0059
     28 C           5.6484   -2.7072   32.1003 C.ar    1  UNL1        0.0002
     29 C           5.8188   -1.5519   33.0417 C.ar    1  UNL1        0.0372
     30 C           7.1945   -1.0759   33.4036 C.ar    1  UNL1        0.1453
     31 C           8.3998   -1.7553   32.8241 C.ar    1  UNL1        0.0372
     32 C           8.2294   -2.9106   31.8828 C.ar    1  UNL1        0.0002
     33 O           7.3649    0.0794   34.3450 O.3     1  UNL1       -0.4535
     34 C           6.2077    0.5448   35.1783 C.ar    1  UNL1        0.1453
     35 C           5.3453    1.6748   34.6995 C.ar    1  UNL1        0.0375
     36 C           4.1881    2.1402   35.5328 C.ar    1  UNL1        0.0043
     37 C           3.8935    1.4757   36.8449 C.ar    1  UNL1        0.0142
     38 C           4.7560    0.3456   37.3237 C.ar    1  UNL1        0.0043
     39 C           5.9131   -0.1198   36.4904 C.ar    1  UNL1        0.0375
     40 C           2.7363    1.9411   37.6782 C.2     1  UNL1        0.0729
     41 O           2.5610    1.4221   39.0746 O.co2   1  UNL1       -0.5446
     42 O           1.7546    2.9255   37.1151 O.co2   1  UNL1       -0.5446
@<TRIPOS>UNITY_ATOM_ATTR
41 1
charge -1
@<TRIPOS>BOND
     1    17    18    1
     2    18    16    1
     3    16    15    1
     4    15     1    1
     5     1     2   am
     6     2     3    2
     7     2     4    1
     8     4    19    1
     9    19    20    1
    10    20    21    1
    11    21    22    1
    12    22    23    1
    13    23    24    1
    14    24    25    1
    15     4     5    1
    16     5     6   am
    17     6     7    2
    18     6     8    1
    19     8     9    1
    20     9    10    1
    21    10    11    1
    22    11    26    1
    23    26    27    1
    24    27    28   ar
    25    28    29   ar
    26    29    30   ar
    27    30    33    1
    28    33    34    1
    29    34    35   ar
    30    35    36   ar
    31    36    37   ar
    32    37    40    1
    33    40    41   ar
    34    40    42   ar
    35    37    38   ar
    36    38    39   ar
    37    30    31   ar
    38    31    32   ar
    39    11    12    1
    40    12    13    1
    41     8     1    1
    42    32    27   ar
    43    25    20    1
    44    13     8    1
    45    39    34   ar
    46     5    14    1
@<TRIPOS>MOLECULE
*****
 42 46 0 0 0
SMALL
GASTEIGER

@<TRIPOS>ATOM
      1 N           3.5336   -1.5510   22.2144 N.am    1  UNL1       -0.2734
      2 C           2.5151   -0.7147   21.4980 C.2     1  UNL1        0.2438
      3 O           1.6250    0.2107   22.2734 O.2     1  UNL1       -0.2731
      4 C           2.3868   -0.8038   20.0062 C.3     1  UNL1        0.1488
      5 N           3.2769   -1.7292   19.2307 N.am    1  UNL1       -0.2970
      6 C           4.2954   -2.5655   19.9471 C.2     1  UNL1        0.2389
      7 O           5.1855   -3.4909   19.1717 O.2     1  UNL1       -0.2734
      8 C           4.4238   -2.4764   21.4390 C.3     1  UNL1        0.1314
      9 C           4.5521   -2.3873   22.9308 C.3     1  UNL1        0.0445
     10 C           5.5706   -3.2237   23.6472 C.3     1  UNL1        0.0745
     11 N           6.4607   -4.1491   22.8718 N.3     1  UNL1       -0.2688
     12 C           6.3324   -4.2382   21.3800 C.3     1  UNL1        0.0745
     13 C           5.3139   -3.4018   20.6636 C.3     1  UNL1        0.0445
     14 H           3.1927   -1.7876   18.2516 H       1  UNL1        0.1499
     15 C           3.6620   -1.4619   23.7062 C.3     1  UNL1        0.0938
     16 C           4.0372   -0.1603   24.3504 C.3     1  UNL1        0.0215
     17 C           3.9253   -1.2781   26.6930 C.3     1  UNL1        0.0001
     18 C           4.0934   -0.0520   25.8454 C.3     1  UNL1        0.0018
     19 C           1.3683    0.0326   19.2897 C.3     1  UNL1        0.0290
     20 C           1.7057    1.4344   18.8761 C.3     1  UNL1        0.0021
     21 C           3.1389    1.8390   18.6967 C.3     1  UNL1        0.0001
     22 C           3.4764    3.2407   18.2831 C.3     1  UNL1        0.0000
     23 C           2.3806    4.2380   18.0488 C.3     1  UNL1        0.0000
     24 C           0.9473    3.8334   18.2283 C.3     1  UNL1        0.0000
     25 C           0.6099    2.4315   18.6419 C.3     1  UNL1        0.0001
     26 C           7.4792   -4.9854   23.5882 C.3     1  UNL1        0.0992
     27 C           7.6895   -4.8110   25.0631 C.ar    1  UNL1       -0.0059
     28 C           6.9130   -5.6485   26.0356 C.ar    1  UNL1        0.0002
     29 C           7.1233   -5.4741   27.5106 C.ar    1  UNL1        0.0372
     30 C           8.1101   -4.4623   28.0130 C.ar    1  UNL1        0.1453
     31 C           8.8865   -3.6248   27.0405 C.ar    1  UNL1        0.0372
     32 C           8.6763   -3.7992   25.5656 C.ar    1  UNL1        0.0002
     33 O           8.3203   -4.2879   29.4879 O.3     1  UNL1       -0.4535
     34 C           7.2657   -3.6236   30.3224 C.ar    1  UNL1        0.1453
     35 C           6.9076   -4.1865   31.6659 C.ar    1  UNL1        0.0375
     36 C           5.8530   -3.5222   32.5004 C.ar    1  UNL1        0.0043
     37 C           5.1565   -2.2950   31.9916 C.ar    1  UNL1        0.0142
     38 C           5.5147   -1.7320   30.6481 C.ar    1  UNL1        0.0043
     39 C           6.5693   -2.3963   29.8135 C.ar    1  UNL1        0.0375
     40 C           4.1019   -1.6307   32.8262 C.2     1  UNL1        0.0729
     41 O           3.2357   -0.5617   32.2287 O.co2   1  UNL1       -0.5446
     42 O           3.9135   -2.0353   34.2582 O.co2   1  UNL1       -0.5446
@<TRIPOS>UNITY_ATOM_ATTR
41 1
charge -1
@<TRIPOS>BOND
     1    17    18    1
     2    18    16    1
     3    16    15    1
     4    15     1    1
     5     1     2   am
     6     2     3    2
     7     2     4    1
     8     4    19    1
     9    19    20    1
    10    20    21    1
    11    21    22    1
    12    22    23    1
    13    23    24    1
    14    24    25    1
    15     4     5    1
    16     5     6   am
    17     6     7    2
    18     6     8    1
    19     8     9    1
    20     9    10    1
    21    10    11    1
    22    11    26    1
    23    26    27    1
    24    27    28   ar
    25    28    29   ar
    26    29    30   ar
    27    30    33    1
    28    33    34    1
    29    34    35   ar
    30    35    36   ar
    31    36    37   ar
    32    37    40    1
    33    40    41   ar
    34    40    42   ar
    35    37    38   ar
    36    38    39   ar
    37    30    31   ar
    38    31    32   ar
    39    11    12    1
    40    12    13    1
    41     8     1    1
    42    32    27   ar
    43    25    20    1
    44    13     8    1
    45    39    34   ar
    46     5    14    1
