@<TRIPOS>MOLECULE
*****
 31 34 0 0 0
SMALL
GASTEIGER

@<TRIPOS>ATOM
      1 C          -8.6415  -20.6909   18.1802 C.3     1  UNL1        0.0420
      2 C          -8.5285  -19.8780   19.4358 C.3     1  UNL1        0.1913
      3 O          -7.1781  -19.5778   20.0158 O.3     1  UNL1       -0.3500
      4 C          -7.0650  -18.7649   21.2715 C.3     1  UNL1        0.1145
      5 C          -6.9520  -17.9521   22.5270 C.3     1  UNL1        0.0463
      6 C          -5.6017  -17.6520   23.1071 C.3     1  UNL1        0.0746
      7 N          -4.3644  -18.1647   22.4316 N.3     1  UNL1       -0.2722
      8 C          -4.4775  -18.9775   21.1760 C.3     1  UNL1        0.0746
      9 C          -5.8278  -19.2776   20.5960 C.3     1  UNL1        0.0463
     10 C          -8.3023  -18.2522   21.9469 C.3     1  UNL1        0.1268
     11 N          -9.6527  -18.5524   21.3668 N.am    1  UNL1       -0.2395
     12 C          -9.7657  -19.3653   20.1113 C.2     1  UNL1        0.2576
     13 O         -11.1161  -19.6655   19.5311 O.2     1  UNL1       -0.2719
     14 C         -10.8900  -18.0397   22.0423 C.ar    1  UNL1        0.1414
     15 N         -11.6477  -16.8901   21.4472 N.ar    1  UNL1       -0.2288
     16 C         -12.8850  -16.3774   22.1227 C.ar    1  UNL1        0.1003
     17 C         -13.3645  -17.0143   23.3933 C.ar    1  UNL1        0.0207
     18 C         -12.6068  -18.1640   23.9884 C.ar    1  UNL1        0.0083
     19 C         -11.3695  -18.6767   23.3129 C.ar    1  UNL1        0.1033
     20 C         -10.6117  -19.8263   23.9080 C.3     1  UNL1        0.4212
     21 F          -9.8540  -20.9759   24.5031 F       1  UNL1       -0.1657
     22 F         -10.1088  -18.9295   25.0001 F       1  UNL1       -0.1657
     23 F         -11.1147  -20.7231   22.8159 F       1  UNL1       -0.1657
     24 C          -3.0141  -17.8645   23.0117 C.3     1  UNL1        0.0768
     25 C          -2.0565  -16.9830   22.2660 C.3     1  UNL1        0.0437
     26 C          -1.7601  -17.2517   20.8203 C.ar    1  UNL1       -0.0208
     27 C          -0.4635  -17.8955   20.4276 C.ar    1  UNL1       -0.0042
     28 C          -0.1671  -18.1642   18.9820 C.ar    1  UNL1       -0.0003
     29 C          -1.1674  -17.7890   17.9290 C.ar    1  UNL1       -0.0000
     30 C          -2.4640  -17.1452   18.3217 C.ar    1  UNL1       -0.0003
     31 C          -2.7604  -16.8765   19.7673 C.ar    1  UNL1       -0.0042
@<TRIPOS>BOND
     1     1     2    1
     2     2     3    1
     3     3     4    1
     4     4     5    1
     5     5     6    1
     6     6     7    1
     7     7    24    1
     8    24    25    1
     9    25    26    1
    10    26    27   ar
    11    27    28   ar
    12    28    29   ar
    13    29    30   ar
    14    30    31   ar
    15     7     8    1
    16     8     9    1
    17     4    10    1
    18    10    11    1
    19    11    14    1
    20    14    15   ar
    21    15    16   ar
    22    16    17   ar
    23    17    18   ar
    24    18    19   ar
    25    19    20    1
    26    20    21    1
    27    20    22    1
    28    20    23    1
    29    11    12   am
    30    12    13    2
    31    12     2    1
    32     9     4    1
    33    19    14   ar
    34    31    26   ar
@<TRIPOS>MOLECULE
*****
 31 34 0 0 0
SMALL
GASTEIGER

@<TRIPOS>ATOM
      1 C         -11.2212  -16.5514   21.2423 C.3     1  UNL1        0.0420
      2 C          -9.9160  -16.9316   21.8763 C.3     1  UNL1        0.1913
      3 O          -9.0185  -17.9286   21.2051 O.3     1  UNL1       -0.3500
      4 C          -7.7133  -18.3088   21.8391 C.3     1  UNL1        0.1145
      5 C          -6.4081  -18.6890   22.4730 C.3     1  UNL1        0.0463
      6 C          -5.5106  -19.6860   21.8018 C.3     1  UNL1        0.0746
      7 N          -5.9183  -20.3028   20.4967 N.3     1  UNL1       -0.2722
      8 C          -7.2235  -19.9226   19.8628 C.3     1  UNL1        0.0746
      9 C          -8.1210  -18.9256   20.5340 C.3     1  UNL1        0.0463
     10 C          -7.3055  -17.6920   23.1442 C.3     1  UNL1        0.1268
     11 N          -8.2031  -16.6949   23.8153 N.am    1  UNL1       -0.2395
     12 C          -9.5083  -16.3148   23.1814 C.2     1  UNL1        0.2576
     13 O         -10.4058  -15.3177   23.8525 O.2     1  UNL1       -0.2719
     14 C          -7.7954  -16.0781   25.1204 C.ar    1  UNL1        0.1414
     15 N          -8.7893  -15.9613   26.2377 N.ar    1  UNL1       -0.2288
     16 C          -8.3816  -15.3444   27.5428 C.ar    1  UNL1        0.1003
     17 C          -6.9800  -14.8445   27.7306 C.ar    1  UNL1        0.0207
     18 C          -5.9859  -14.9613   26.6133 C.ar    1  UNL1        0.0083
     19 C          -6.3936  -15.5781   25.3082 C.ar    1  UNL1        0.1033
     20 C          -5.3997  -15.6949   24.1909 C.3     1  UNL1        0.4212
     21 F          -4.4057  -15.8118   23.0736 F       1  UNL1       -0.1657
     22 F          -6.1577  -14.6637   23.4087 F       1  UNL1       -0.1657
     23 F          -4.6416  -16.7262   24.9731 F       1  UNL1       -0.1657
     24 C          -5.0208  -21.2999   19.8256 C.3     1  UNL1        0.0768
     25 C          -3.6313  -20.9053   19.4213 C.3     1  UNL1        0.0437
     26 C          -3.0070  -19.6668   19.9930 C.ar    1  UNL1       -0.0208
     27 C          -2.9621  -18.4063   19.1812 C.ar    1  UNL1       -0.0042
     28 C          -2.3379  -17.1680   19.7529 C.ar    1  UNL1       -0.0003
     29 C          -1.7585  -17.1902   21.1363 C.ar    1  UNL1       -0.0000
     30 C          -1.8034  -18.4507   21.9481 C.ar    1  UNL1       -0.0003
     31 C          -2.4276  -19.6890   21.3764 C.ar    1  UNL1       -0.0042
@<TRIPOS>BOND
     1     1     2    1
     2     2     3    1
     3     3     4    1
     4     4     5    1
     5     5     6    1
     6     6     7    1
     7     7    24    1
     8    24    25    1
     9    25    26    1
    10    26    27   ar
    11    27    28   ar
    12    28    29   ar
    13    29    30   ar
    14    30    31   ar
    15     7     8    1
    16     8     9    1
    17     4    10    1
    18    10    11    1
    19    11    14    1
    20    14    15   ar
    21    15    16   ar
    22    16    17   ar
    23    17    18   ar
    24    18    19   ar
    25    19    20    1
    26    20    21    1
    27    20    22    1
    28    20    23    1
    29    11    12   am
    30    12    13    2
    31    12     2    1
    32     9     4    1
    33    19    14   ar
    34    31    26   ar
@<TRIPOS>MOLECULE
*****
 31 34 0 0 0
SMALL
GASTEIGER

@<TRIPOS>ATOM
      1 C          -0.5806    2.9388   23.4725 C.3     1  UNL1        0.0420
      2 C           0.3212    2.2622   24.4620 C.3     1  UNL1        0.1913
      3 O           1.2945    1.2191   23.9987 O.3     1  UNL1       -0.3500
      4 C           2.1963    0.5425   24.9881 C.3     1  UNL1        0.1145
      5 C           3.0981   -0.1341   25.9776 C.3     1  UNL1        0.0463
      6 C           4.0713   -1.1771   25.5143 C.3     1  UNL1        0.0746
      7 N           4.1428   -1.5436   24.0615 N.3     1  UNL1       -0.2722
      8 C           3.2411   -0.8671   23.0720 C.3     1  UNL1        0.0746
      9 C           2.2678    0.1760   23.5354 C.3     1  UNL1        0.0463
     10 C           2.1248    0.9090   26.4409 C.3     1  UNL1        0.1268
     11 N           1.1515    1.9521   26.9042 N.am    1  UNL1       -0.2395
     12 C           0.2497    2.6287   25.9148 C.2     1  UNL1        0.2576
     13 O          -0.7236    3.6718   26.3781 O.2     1  UNL1       -0.2719
     14 C           1.0799    2.3187   28.3570 C.ar    1  UNL1        0.1414
     15 N           1.8292    3.5139   28.8667 N.ar    1  UNL1       -0.2288
     16 C           1.7577    3.8805   30.3195 C.ar    1  UNL1        0.1003
     17 C           0.9369    3.0517   31.2625 C.ar    1  UNL1        0.0207
     18 C           0.1876    1.8563   30.7528 C.ar    1  UNL1        0.0083
     19 C           0.2591    1.4898   29.3001 C.ar    1  UNL1        0.1033
     20 C          -0.4901    0.2945   28.7904 C.3     1  UNL1        0.4212
     21 F          -1.2394   -0.9008   28.2807 F       1  UNL1       -0.1657
     22 F          -1.6278    1.1822   28.3810 F       1  UNL1       -0.1657
     23 F           0.6475   -0.5932   29.1997 F       1  UNL1       -0.1657
     24 C           5.1162   -2.5868   23.5982 C.3     1  UNL1        0.0768
     25 C           4.6711   -3.6584   22.6476 C.3     1  UNL1        0.0437
     26 C           4.8986   -3.4954   21.1739 C.ar    1  UNL1       -0.0208
     27 C           4.1626   -4.3676   20.2005 C.ar    1  UNL1       -0.0042
     28 C           4.3901   -4.2046   18.7268 C.ar    1  UNL1       -0.0003
     29 C           5.3536   -3.1695   18.2266 C.ar    1  UNL1       -0.0000
     30 C           6.0896   -2.2974   19.2001 C.ar    1  UNL1       -0.0003
     31 C           5.8621   -2.4603   20.6737 C.ar    1  UNL1       -0.0042
@<TRIPOS>BOND
     1     1     2    1
     2     2     3    1
     3     3     4    1
     4     4     5    1
     5     5     6    1
     6     6     7    1
     7     7    24    1
     8    24    25    1
     9    25    26    1
    10    26    27   ar
    11    27    28   ar
    12    28    29   ar
    13    29    30   ar
    14    30    31   ar
    15     7     8    1
    16     8     9    1
    17     4    10    1
    18    10    11    1
    19    11    14    1
    20    14    15   ar
    21    15    16   ar
    22    16    17   ar
    23    17    18   ar
    24    18    19   ar
    25    19    20    1
    26    20    21    1
    27    20    22    1
    28    20    23    1
    29    11    12   am
    30    12    13    2
    31    12     2    1
    32     9     4    1
    33    19    14   ar
    34    31    26   ar
@<TRIPOS>MOLECULE
*****
 31 34 0 0 0
SMALL
GASTEIGER

@<TRIPOS>ATOM
      1 C           8.0348    2.4857   39.1172 C.3     1  UNL1        0.0420
      2 C           6.8897    1.8925   38.3510 C.3     1  UNL1        0.1913
      3 O           7.1480    1.1397   37.0796 O.3     1  UNL1       -0.3500
      4 C           6.0029    0.5465   36.3134 C.3     1  UNL1        0.1145
      5 C           4.8578   -0.0466   35.5473 C.3     1  UNL1        0.0463
      6 C           5.1161   -0.7994   34.2758 C.3     1  UNL1        0.0746
      7 N           6.5193   -0.9590   33.7705 N.3     1  UNL1       -0.2722
      8 C           7.6644   -0.3658   34.5366 C.3     1  UNL1        0.0746
      9 C           7.4062    0.3869   35.8081 C.3     1  UNL1        0.0463
     10 C           4.5996    0.7061   36.8187 C.3     1  UNL1        0.1268
     11 N           4.3414    1.4589   38.0902 N.am    1  UNL1       -0.2395
     12 C           5.4865    2.0521   38.8564 C.2     1  UNL1        0.2576
     13 O           5.2283    2.8049   40.1279 O.2     1  UNL1       -0.2719
     14 C           2.9381    1.6185   38.5956 C.ar    1  UNL1        0.1414
     15 N           2.3455    0.5821   39.5035 N.ar    1  UNL1       -0.2288
     16 C           0.9422    0.7417   40.0088 C.ar    1  UNL1        0.1003
     17 C           0.1316    1.9378   39.6062 C.ar    1  UNL1        0.0207
     18 C           0.7242    2.9743   38.6982 C.ar    1  UNL1        0.0083
     19 C           2.1275    2.8147   38.1929 C.ar    1  UNL1        0.1033
     20 C           2.7201    3.8512   37.2849 C.3     1  UNL1        0.4212
     21 F           3.3127    4.8877   36.3769 F       1  UNL1       -0.1657
     22 F           3.1680    4.6410   38.4789 F       1  UNL1       -0.1657
     23 F           2.2722    3.0614   36.0910 F       1  UNL1       -0.1657
     24 C           6.7775   -1.7118   32.4990 C.3     1  UNL1        0.0768
     25 C           6.1661   -3.0657   32.2916 C.3     1  UNL1        0.0437
     26 C           6.6286   -3.9318   31.1576 C.ar    1  UNL1       -0.0208
     27 C           7.1834   -5.2975   31.4349 C.ar    1  UNL1       -0.0042
     28 C           7.6459   -6.1636   30.3009 C.ar    1  UNL1       -0.0003
     29 C           7.5536   -5.6640   28.8896 C.ar    1  UNL1       -0.0000
     30 C           6.9988   -4.2983   28.6123 C.ar    1  UNL1       -0.0003
     31 C           6.5363   -3.4322   29.7463 C.ar    1  UNL1       -0.0042
@<TRIPOS>BOND
     1     1     2    1
     2     2     3    1
     3     3     4    1
     4     4     5    1
     5     5     6    1
     6     6     7    1
     7     7    24    1
     8    24    25    1
     9    25    26    1
    10    26    27   ar
    11    27    28   ar
    12    28    29   ar
    13    29    30   ar
    14    30    31   ar
    15     7     8    1
    16     8     9    1
    17     4    10    1
    18    10    11    1
    19    11    14    1
    20    14    15   ar
    21    15    16   ar
    22    16    17   ar
    23    17    18   ar
    24    18    19   ar
    25    19    20    1
    26    20    21    1
    27    20    22    1
    28    20    23    1
    29    11    12   am
    30    12    13    2
    31    12     2    1
    32     9     4    1
    33    19    14   ar
    34    31    26   ar
@<TRIPOS>MOLECULE
*****
 31 34 0 0 0
SMALL
GASTEIGER

@<TRIPOS>ATOM
      1 C           8.6876   -4.3402   22.1007 C.3     1  UNL1        0.0420
      2 C           7.5338   -3.3818   22.0845 C.3     1  UNL1        0.1913
      3 O           6.8356   -3.0269   23.3637 O.3     1  UNL1       -0.3500
      4 C           5.6818   -2.0685   23.3475 C.3     1  UNL1        0.1145
      5 C           4.5280   -1.1101   23.3313 C.3     1  UNL1        0.0463
      6 C           3.8298   -0.7552   24.6105 C.3     1  UNL1        0.0746
      7 N           4.2854   -1.3587   25.9060 N.3     1  UNL1       -0.2722
      8 C           5.4391   -2.3171   25.9222 C.3     1  UNL1        0.0746
      9 C           6.1373   -2.6720   24.6430 C.3     1  UNL1        0.0463
     10 C           5.2262   -1.4650   22.0520 C.3     1  UNL1        0.1268
     11 N           5.9245   -1.8200   20.7727 N.am    1  UNL1       -0.2395
     12 C           7.0783   -2.7784   20.7890 C.2     1  UNL1        0.2576
     13 O           7.7765   -3.1333   19.5097 O.2     1  UNL1       -0.2719
     14 C           5.4689   -1.2165   19.4772 C.ar    1  UNL1        0.1414
     15 N           6.0573    0.0803   19.0060 N.ar    1  UNL1       -0.2288
     16 C           5.6017    0.6837   17.7105 C.ar    1  UNL1        0.1003
     17 C           4.5578   -0.0096   16.8863 C.ar    1  UNL1        0.0207
     18 C           3.9694   -1.3065   17.3575 C.ar    1  UNL1        0.0083
     19 C           4.4249   -1.9099   18.6530 C.ar    1  UNL1        0.1033
     20 C           3.8366   -3.2067   19.1242 C.3     1  UNL1        0.4212
     21 F           3.2482   -4.5035   19.5954 F       1  UNL1       -0.1657
     22 F           2.7831   -2.4537   19.8811 F       1  UNL1       -0.1657
     23 F           4.8901   -3.9598   18.3673 F       1  UNL1       -0.1657
     24 C           3.5871   -1.0037   27.1853 C.3     1  UNL1        0.0768
     25 C           3.0078    0.3677   27.3680 C.3     1  UNL1        0.0437
     26 C           1.5495    0.5306   27.6792 C.ar    1  UNL1       -0.0208
     27 C           0.9162   -0.2959   28.7589 C.ar    1  UNL1       -0.0042
     28 C          -0.5421   -0.1330   29.0701 C.ar    1  UNL1       -0.0003
     29 C          -1.3670    0.8564   28.3016 C.ar    1  UNL1       -0.0000
     30 C          -0.7337    1.6830   27.2220 C.ar    1  UNL1       -0.0003
     31 C           0.7246    1.5201   26.9108 C.ar    1  UNL1       -0.0042
@<TRIPOS>BOND
     1     1     2    1
     2     2     3    1
     3     3     4    1
     4     4     5    1
     5     5     6    1
     6     6     7    1
     7     7    24    1
     8    24    25    1
     9    25    26    1
    10    26    27   ar
    11    27    28   ar
    12    28    29   ar
    13    29    30   ar
    14    30    31   ar
    15     7     8    1
    16     8     9    1
    17     4    10    1
    18    10    11    1
    19    11    14    1
    20    14    15   ar
    21    15    16   ar
    22    16    17   ar
    23    17    18   ar
    24    18    19   ar
    25    19    20    1
    26    20    21    1
    27    20    22    1
    28    20    23    1
    29    11    12   am
    30    12    13    2
    31    12     2    1
    32     9     4    1
    33    19    14   ar
    34    31    26   ar
@<TRIPOS>MOLECULE
*****
 31 34 0 0 0
SMALL
GASTEIGER

@<TRIPOS>ATOM
      1 C           0.7222    4.5186   32.1914 C.3     1  UNL1        0.0420
      2 C           1.2087    3.3635   31.3673 C.3     1  UNL1        0.1913
      3 O           1.9775    2.2507   32.0157 O.3     1  UNL1       -0.3500
      4 C           2.4640    1.0956   31.1916 C.3     1  UNL1        0.1145
      5 C           2.9504   -0.0594   30.3675 C.3     1  UNL1        0.0463
      6 C           3.7193   -1.1722   31.0159 C.3     1  UNL1        0.0746
      7 N           4.0016   -1.1300   32.4885 N.3     1  UNL1       -0.2722
      8 C           3.5152    0.0250   33.3126 C.3     1  UNL1        0.0746
      9 C           2.7464    1.1378   32.6642 C.3     1  UNL1        0.0463
     10 C           2.1816    1.0534   29.7190 C.3     1  UNL1        0.1268
     11 N           1.4128    2.1663   29.0706 N.am    1  UNL1       -0.2395
     12 C           0.9263    3.3213   29.8947 C.2     1  UNL1        0.2576
     13 O           0.1574    4.4342   29.2463 O.2     1  UNL1       -0.2719
     14 C           1.1304    2.1241   27.5980 C.ar    1  UNL1        0.1414
     15 N           2.0958    2.7431   26.6312 N.ar    1  UNL1       -0.2288
     16 C           1.8134    2.7009   25.1586 C.ar    1  UNL1        0.1003
     17 C           0.5656    2.0396   24.6528 C.ar    1  UNL1        0.0207
     18 C          -0.3998    1.4206   25.6197 C.ar    1  UNL1        0.0083
     19 C          -0.1175    1.4628   27.0923 C.ar    1  UNL1        0.1033
     20 C          -1.0828    0.8438   28.0591 C.3     1  UNL1        0.4212
     21 F          -2.0482    0.2247   29.0259 F       1  UNL1       -0.1657
     22 F          -1.9786    2.0400   27.9305 F       1  UNL1       -0.1657
     23 F          -0.1870   -0.3525   28.1877 F       1  UNL1       -0.1657
     24 C           4.7705   -2.2429   33.1369 C.3     1  UNL1        0.0768
     25 C           6.1969   -2.4952   32.7475 C.3     1  UNL1        0.0437
     26 C           6.5138   -3.4638   31.6468 C.ar    1  UNL1       -0.0208
     27 C           6.8207   -4.8954   31.9728 C.ar    1  UNL1       -0.0042
     28 C           7.1375   -5.8639   30.8721 C.ar    1  UNL1       -0.0003
     29 C           7.1475   -5.4007   29.4454 C.ar    1  UNL1       -0.0000
     30 C           6.8406   -3.9691   29.1194 C.ar    1  UNL1       -0.0003
     31 C           6.5238   -3.0007   30.2201 C.ar    1  UNL1       -0.0042
@<TRIPOS>BOND
     1     1     2    1
     2     2     3    1
     3     3     4    1
     4     4     5    1
     5     5     6    1
     6     6     7    1
     7     7    24    1
     8    24    25    1
     9    25    26    1
    10    26    27   ar
    11    27    28   ar
    12    28    29   ar
    13    29    30   ar
    14    30    31   ar
    15     7     8    1
    16     8     9    1
    17     4    10    1
    18    10    11    1
    19    11    14    1
    20    14    15   ar
    21    15    16   ar
    22    16    17   ar
    23    17    18   ar
    24    18    19   ar
    25    19    20    1
    26    20    21    1
    27    20    22    1
    28    20    23    1
    29    11    12   am
    30    12    13    2
    31    12     2    1
    32     9     4    1
    33    19    14   ar
    34    31    26   ar
@<TRIPOS>MOLECULE
*****
 31 34 0 0 0
SMALL
GASTEIGER

@<TRIPOS>ATOM
      1 C           9.5360   -2.7917   19.0828 C.3     1  UNL1        0.0420
      2 C           8.5016   -3.0100   20.1469 C.3     1  UNL1        0.1913
      3 O           8.7898   -3.9307   21.2955 O.3     1  UNL1       -0.3500
      4 C           7.7554   -4.1490   22.3596 C.3     1  UNL1        0.1145
      5 C           6.7210   -4.3672   23.4237 C.3     1  UNL1        0.0463
      6 C           7.0093   -5.2880   24.5722 C.3     1  UNL1        0.0746
      7 N           8.3319   -5.9904   24.6567 N.3     1  UNL1       -0.2722
      8 C           9.3663   -5.7722   23.5926 C.3     1  UNL1        0.0746
      9 C           9.0781   -4.8515   22.4440 C.3     1  UNL1        0.0463
     10 C           6.4328   -3.4465   22.2752 C.3     1  UNL1        0.1268
     11 N           6.1445   -2.5257   21.1266 N.am    1  UNL1       -0.2395
     12 C           7.1789   -2.3075   20.0625 C.2     1  UNL1        0.2576
     13 O           6.8907   -1.3867   18.9139 O.2     1  UNL1       -0.2719
     14 C           4.8219   -1.8233   21.0422 C.ar    1  UNL1        0.1414
     15 N           4.5827   -0.5762   21.8406 N.ar    1  UNL1       -0.2288
     16 C           3.2600    0.1263   21.7562 C.ar    1  UNL1        0.1003
     17 C           2.1766   -0.4183   20.8734 C.ar    1  UNL1        0.0207
     18 C           2.4157   -1.6655   20.0749 C.ar    1  UNL1        0.0083
     19 C           3.7384   -2.3680   20.1593 C.ar    1  UNL1        0.1033
     20 C           3.9776   -3.6150   19.3609 C.3     1  UNL1        0.4212
     21 F           4.2168   -4.8621   18.5625 F       1  UNL1       -0.1657
     22 F           4.2786   -2.7822   18.1502 F       1  UNL1       -0.1657
     23 F           3.6766   -4.4479   20.5715 F       1  UNL1       -0.1657
     24 C           8.6202   -6.9112   25.8052 C.3     1  UNL1        0.0768
     25 C           9.3898   -6.4118   26.9919 C.3     1  UNL1        0.0437
     26 C           8.6906   -6.1915   28.3007 C.ar    1  UNL1       -0.0208
     27 C           7.3019   -5.6251   28.3231 C.ar    1  UNL1       -0.0042
     28 C           6.6028   -5.4049   29.6318 C.ar    1  UNL1       -0.0003
     29 C           7.2925   -5.7510   30.9181 C.ar    1  UNL1       -0.0000
     30 C           8.6813   -6.3174   30.8957 C.ar    1  UNL1       -0.0003
     31 C           9.3803   -6.5376   29.5870 C.ar    1  UNL1       -0.0042
@<TRIPOS>BOND
     1     1     2    1
     2     2     3    1
     3     3     4    1
     4     4     5    1
     5     5     6    1
     6     6     7    1
     7     7    24    1
     8    24    25    1
     9    25    26    1
    10    26    27   ar
    11    27    28   ar
    12    28    29   ar
    13    29    30   ar
    14    30    31   ar
    15     7     8    1
    16     8     9    1
    17     4    10    1
    18    10    11    1
    19    11    14    1
    20    14    15   ar
    21    15    16   ar
    22    16    17   ar
    23    17    18   ar
    24    18    19   ar
    25    19    20    1
    26    20    21    1
    27    20    22    1
    28    20    23    1
    29    11    12   am
    30    12    13    2
    31    12     2    1
    32     9     4    1
    33    19    14   ar
    34    31    26   ar
@<TRIPOS>MOLECULE
*****
 31 34 0 0 0
SMALL
GASTEIGER

@<TRIPOS>ATOM
      1 C           5.3804   -2.4328   27.6655 C.3     1  UNL1        0.0420
      2 C           4.4690   -1.3339   27.2051 C.3     1  UNL1        0.1913
      3 O           4.0835   -1.2358   25.7588 O.3     1  UNL1       -0.3500
      4 C           3.1721   -0.1369   25.2984 C.3     1  UNL1        0.1145
      5 C           2.2608    0.9619   24.8381 C.3     1  UNL1        0.0463
      6 C           1.8752    1.0600   23.3919 C.3     1  UNL1        0.0746
      7 N           2.4010    0.0593   22.4059 N.3     1  UNL1       -0.2722
      8 C           3.3123   -1.0396   22.8663 C.3     1  UNL1        0.0746
      9 C           3.6979   -1.1377   24.3125 C.3     1  UNL1        0.0463
     10 C           2.6463    0.8638   26.2844 C.3     1  UNL1        0.1268
     11 N           3.0319    0.7657   27.7307 N.am    1  UNL1       -0.2395
     12 C           3.9433   -0.3332   28.1910 C.2     1  UNL1        0.2576
     13 O           4.3289   -0.4313   29.6373 O.2     1  UNL1       -0.2719
     14 C           2.5061    1.7664   28.7166 C.ar    1  UNL1        0.1414
     15 N           3.3369    2.9578   29.0914 N.ar    1  UNL1       -0.2288
     16 C           2.8111    3.9586   30.0773 C.ar    1  UNL1        0.1003
     17 C           1.4546    3.7679   30.6885 C.ar    1  UNL1        0.0207
     18 C           0.6238    2.5765   30.3137 C.ar    1  UNL1        0.0083
     19 C           1.1496    1.5758   29.3278 C.ar    1  UNL1        0.1033
     20 C           0.3189    0.3844   28.9530 C.3     1  UNL1        0.4212
     21 F          -0.5118   -0.8070   28.5782 F       1  UNL1       -0.1657
     22 F          -0.4840    1.2386   28.0172 F       1  UNL1       -0.1657
     23 F           1.1217   -0.4698   29.8888 F       1  UNL1       -0.1657
     24 C           2.0154    0.1575   20.9596 C.3     1  UNL1        0.0768
     25 C           1.8865   -1.0867   20.1317 C.3     1  UNL1        0.0437
     26 C           3.0932   -1.6647   19.4535 C.ar    1  UNL1       -0.0208
     27 C           3.4384   -3.1121   19.6425 C.ar    1  UNL1       -0.0042
     28 C           4.6450   -3.6900   18.9643 C.ar    1  UNL1       -0.0003
     29 C           5.5065   -2.8205   18.0971 C.ar    1  UNL1       -0.0000
     30 C           5.1612   -1.3731   17.9082 C.ar    1  UNL1       -0.0003
     31 C           3.9546   -0.7952   18.5864 C.ar    1  UNL1       -0.0042
@<TRIPOS>BOND
     1     1     2    1
     2     2     3    1
     3     3     4    1
     4     4     5    1
     5     5     6    1
     6     6     7    1
     7     7    24    1
     8    24    25    1
     9    25    26    1
    10    26    27   ar
    11    27    28   ar
    12    28    29   ar
    13    29    30   ar
    14    30    31   ar
    15     7     8    1
    16     8     9    1
    17     4    10    1
    18    10    11    1
    19    11    14    1
    20    14    15   ar
    21    15    16   ar
    22    16    17   ar
    23    17    18   ar
    24    18    19   ar
    25    19    20    1
    26    20    21    1
    27    20    22    1
    28    20    23    1
    29    11    12   am
    30    12    13    2
    31    12     2    1
    32     9     4    1
    33    19    14   ar
    34    31    26   ar
@<TRIPOS>MOLECULE
*****
 31 34 0 0 0
SMALL
GASTEIGER

@<TRIPOS>ATOM
      1 C           1.7105    5.2374   18.0830 C.3     1  UNL1        0.0420
      2 C           1.1592    4.0613   18.8334 C.3     1  UNL1        0.1913
      3 O           1.8668    2.7398   18.7813 O.3     1  UNL1       -0.3500
      4 C           1.3155    1.5637   19.5317 C.3     1  UNL1        0.1145
      5 C           0.7642    0.3878   20.2820 C.3     1  UNL1        0.0463
      6 C           1.4718   -0.9338   20.2300 C.3     1  UNL1        0.0746
      7 N           2.7307   -1.0793   19.4275 N.3     1  UNL1       -0.2722
      8 C           3.2820    0.0966   18.6772 C.3     1  UNL1        0.0746
      9 C           2.5744    1.4182   18.7293 C.3     1  UNL1        0.0463
     10 C           0.0565    1.7093   20.3341 C.3     1  UNL1        0.1268
     11 N          -0.6511    3.0309   20.3861 N.am    1  UNL1       -0.2395
     12 C          -0.0998    4.2069   19.6358 C.2     1  UNL1        0.2576
     13 O          -0.8074    5.5285   19.6879 O.2     1  UNL1       -0.2719
     14 C          -1.9100    3.1765   21.1886 C.ar    1  UNL1        0.1414
     15 N          -3.2423    2.9304   20.5449 N.ar    1  UNL1       -0.2288
     16 C          -4.5013    3.0760   21.3473 C.ar    1  UNL1        0.1003
     17 C          -4.4279    3.4676   22.7934 C.ar    1  UNL1        0.0207
     18 C          -3.0955    3.7137   23.4372 C.ar    1  UNL1        0.0083
     19 C          -1.8366    3.5681   22.6347 C.ar    1  UNL1        0.1033
     20 C          -0.5043    3.8142   23.2784 C.3     1  UNL1        0.4212
     21 F           0.8280    4.0602   23.9221 F       1  UNL1       -0.1657
     22 F          -0.5612    5.2497   22.8474 F       1  UNL1       -0.1657
     23 F          -0.4474    2.3786   23.7094 F       1  UNL1       -0.1657
     24 C           3.4383   -2.4010   19.3755 C.3     1  UNL1        0.0768
     25 C           4.6177   -2.5850   18.4672 C.3     1  UNL1        0.0437
     26 C           5.9811   -2.8208   19.0466 C.ar    1  UNL1       -0.0208
     27 C           6.1474   -3.7331   20.2256 C.ar    1  UNL1       -0.0042
     28 C           7.5107   -3.9690   20.8049 C.ar    1  UNL1       -0.0003
     29 C           8.7077   -3.2925   20.2054 C.ar    1  UNL1       -0.0000
     30 C           8.5414   -2.3802   19.0264 C.ar    1  UNL1       -0.0003
     31 C           7.1781   -2.1444   18.4470 C.ar    1  UNL1       -0.0042
@<TRIPOS>BOND
     1     1     2    1
     2     2     3    1
     3     3     4    1
     4     4     5    1
     5     5     6    1
     6     6     7    1
     7     7    24    1
     8    24    25    1
     9    25    26    1
    10    26    27   ar
    11    27    28   ar
    12    28    29   ar
    13    29    30   ar
    14    30    31   ar
    15     7     8    1
    16     8     9    1
    17     4    10    1
    18    10    11    1
    19    11    14    1
    20    14    15   ar
    21    15    16   ar
    22    16    17   ar
    23    17    18   ar
    24    18    19   ar
    25    19    20    1
    26    20    21    1
    27    20    22    1
    28    20    23    1
    29    11    12   am
    30    12    13    2
    31    12     2    1
    32     9     4    1
    33    19    14   ar
    34    31    26   ar
