@<TRIPOS>MOLECULE
*****
 34 38 0 0 0
SMALL
GASTEIGER

@<TRIPOS>ATOM
      1 C          -5.4495  -17.6391   22.5279 C.ar    1  UNL1        0.0697
      2 C          -5.1264  -16.6358   23.5952 C.ar    1  UNL1        0.1051
      3 N          -3.6985  -16.2125   23.4164 N.ar    1  UNL1       -0.1681
      4 N          -3.1391  -16.9542   22.2387 N.ar    1  UNL1       -0.2378
      5 C          -4.2213  -17.8358   21.6895 C.ar    1  UNL1        0.1283
      6 N          -3.9485  -18.7039   20.4971 N.pl3   1  UNL1       -0.3181
      7 C          -2.5936  -18.6903   19.8538 C.3     1  UNL1        0.0926
      8 C          -1.5114  -17.8086   20.4029 C.3     1  UNL1        0.0733
      9 C          -1.7842  -16.9406   21.5954 C.3     1  UNL1        0.1330
     10 H          -4.6588  -19.2826   20.1367 H       1  UNL1        0.1482
     11 N          -9.2897  -18.2201   21.7126 N.ar    1  UNL1       -0.1948
     12 N          -7.9701  -17.5340   21.9073 N.ar    1  UNL1       -0.1624
     13 C          -6.7691  -18.3252   22.3332 C.ar    1  UNL1        0.1057
     14 C          -6.8876  -19.8026   22.5643 C.ar    1  UNL1        0.0259
     15 C          -8.2072  -20.4887   22.3695 C.ar    1  UNL1        0.0641
     16 C          -9.4083  -19.6974   21.9437 C.ar    1  UNL1        0.2805
     17 O         -10.7279  -20.3835   21.7489 O.2     1  UNL1       -0.2652
     18 C         -11.4220  -17.5382   23.7098 C.3     1  UNL1        0.0326
     19 C         -11.5569  -17.0879   22.2853 C.ar    1  UNL1       -0.0041
     20 C         -12.7580  -16.2966   21.8594 C.ar    1  UNL1       -0.0028
     21 C         -12.8930  -15.8463   20.4350 C.ar    1  UNL1       -0.0002
     22 C         -11.8269  -16.1873   19.4365 C.ar    1  UNL1        0.0015
     23 C         -10.6258  -16.9785   19.8623 C.ar    1  UNL1        0.0189
     24 C         -10.4908  -17.4289   21.2868 C.ar    1  UNL1        0.0820
     25 C          -6.0662  -16.1425   24.6551 C.ar    1  UNL1        0.0196
     26 C          -5.5578  -15.8675   26.0392 C.ar    1  UNL1        0.0039
     27 C          -6.4976  -15.3741   27.0992 C.ar    1  UNL1        0.0297
     28 C          -7.9457  -15.1558   26.7749 C.ar    1  UNL1        0.1401
     29 F          -8.8855  -14.6624   27.8349 F       1  UNL1       -0.2042
     30 C          -8.4541  -15.4308   25.3908 C.ar    1  UNL1        0.0297
     31 C          -7.5143  -15.9241   24.3309 C.ar    1  UNL1        0.0039
     32 C          -0.1564  -17.7951   19.7595 C.3     1  UNL1        0.1408
     33 O           1.0671  -18.0722   20.5818 O.3     1  UNL1       -0.3819
     34 H           1.1884  -17.3614   21.2306 H       1  UNL1        0.2104
@<TRIPOS>BOND
     1    18    19    1
     2    19    20   ar
     3    20    21   ar
     4    21    22   ar
     5    22    23   ar
     6    23    24   ar
     7    24    11    1
     8    11    12   ar
     9    12    13   ar
    10    13     1    1
    11     1     2   ar
    12     2    25    1
    13    25    26   ar
    14    26    27   ar
    15    27    28   ar
    16    28    29    1
    17    28    30   ar
    18    30    31   ar
    19     2     3   ar
    20     3     4   ar
    21     4     5   ar
    22     5     6    1
    23     6     7    1
    24     7     8    1
    25     8    32    1
    26    32    33    1
    27     8     9    1
    28    13    14   ar
    29    14    15   ar
    30    15    16   ar
    31    16    17    2
    32    24    19   ar
    33    16    11   ar
    34     5     1   ar
    35    31    25   ar
    36     9     4    1
    37     6    10    1
    38    33    34    1
@<TRIPOS>MOLECULE
*****
 34 38 0 0 0
SMALL
GASTEIGER

@<TRIPOS>ATOM
      1 C           6.2802   -2.9397   26.1273 C.ar    1  UNL1        0.0697
      2 C           6.4972   -4.0394   25.1306 C.ar    1  UNL1        0.1051
      3 N           6.8774   -5.2795   25.8841 N.ar    1  UNL1       -0.1681
      4 N           6.8952   -4.9461   27.3465 N.ar    1  UNL1       -0.2378
      5 C           6.5261   -3.5000   27.4968 C.ar    1  UNL1        0.1283
      6 N           6.4616   -2.8803   28.8612 N.pl3   1  UNL1       -0.3181
      7 C           6.7663   -3.7067   30.0754 C.3     1  UNL1        0.0926
      8 C           7.1354   -5.1528   29.9251 C.3     1  UNL1        0.0733
      9 C           7.1998   -5.7725   28.5607 C.3     1  UNL1        0.1330
     10 H           6.2194   -1.9312   28.9599 H       1  UNL1        0.1482
     11 N           4.0525    0.2975   25.5718 N.ar    1  UNL1       -0.1948
     12 N           4.4464   -1.1147   25.8889 N.ar    1  UNL1       -0.1624
     13 C           5.8863   -1.5275   25.8102 C.ar    1  UNL1        0.1057
     14 C           6.9324   -0.5279   25.4142 C.ar    1  UNL1        0.0259
     15 C           6.5385    0.8843   25.0971 C.ar    1  UNL1        0.0641
     16 C           5.0986    1.2970   25.1759 C.ar    1  UNL1        0.2805
     17 O           4.7047    2.7092   24.8588 O.2     1  UNL1       -0.2652
     18 C           2.3514    0.2861   23.1007 C.3     1  UNL1        0.0326
     19 C           1.7620    0.7045   24.4151 C.ar    1  UNL1       -0.0041
     20 C           0.3221    1.1172   24.4939 C.ar    1  UNL1       -0.0028
     21 C          -0.2674    1.5356   25.8083 C.ar    1  UNL1       -0.0002
     22 C           0.5832    1.5413   27.0438 C.ar    1  UNL1        0.0015
     23 C           2.0231    1.1286   26.9650 C.ar    1  UNL1        0.0189
     24 C           2.6126    0.7102   25.6506 C.ar    1  UNL1        0.0820
     25 C           6.3586   -3.9201   23.6418 C.ar    1  UNL1        0.0196
     26 C           7.5477   -4.1502   22.7569 C.ar    1  UNL1        0.0039
     27 C           7.4090   -4.0309   21.2681 C.ar    1  UNL1        0.0297
     28 C           6.0812   -3.6814   20.6642 C.ar    1  UNL1        0.1401
     29 F           5.9425   -3.5621   19.1754 F       1  UNL1       -0.2042
     30 C           4.8921   -3.4514   21.5490 C.ar    1  UNL1        0.0297
     31 C           5.0308   -3.5707   23.0378 C.ar    1  UNL1        0.0039
     32 C           7.4400   -5.9792   31.1394 C.3     1  UNL1        0.1408
     33 O           6.4204   -6.1118   32.2314 O.3     1  UNL1       -0.3819
     34 H           6.2835   -5.2488   32.6526 H       1  UNL1        0.2104
@<TRIPOS>BOND
     1    18    19    1
     2    19    20   ar
     3    20    21   ar
     4    21    22   ar
     5    22    23   ar
     6    23    24   ar
     7    24    11    1
     8    11    12   ar
     9    12    13   ar
    10    13     1    1
    11     1     2   ar
    12     2    25    1
    13    25    26   ar
    14    26    27   ar
    15    27    28   ar
    16    28    29    1
    17    28    30   ar
    18    30    31   ar
    19     2     3   ar
    20     3     4   ar
    21     4     5   ar
    22     5     6    1
    23     6     7    1
    24     7     8    1
    25     8    32    1
    26    32    33    1
    27     8     9    1
    28    13    14   ar
    29    14    15   ar
    30    15    16   ar
    31    16    17    2
    32    24    19   ar
    33    16    11   ar
    34     5     1   ar
    35    31    25   ar
    36     9     4    1
    37     6    10    1
    38    33    34    1
@<TRIPOS>MOLECULE
*****
 34 38 0 0 0
SMALL
GASTEIGER

@<TRIPOS>ATOM
      1 C           1.1121    1.5660   22.0122 C.ar    1  UNL1        0.0697
      2 C           1.7040    0.9044   23.2213 C.ar    1  UNL1        0.1051
      3 N           2.6627   -0.1489   22.7506 N.ar    1  UNL1       -0.1681
      4 N           2.6632   -0.1383   21.2506 N.ar    1  UNL1       -0.2378
      5 C           1.7049    0.9216   20.7943 C.ar    1  UNL1        0.1283
      6 N           1.4959    1.1631   19.3287 N.pl3   1  UNL1       -0.3181
      7 C           2.2452    0.3446   18.3195 C.3     1  UNL1        0.0926
      8 C           3.2035   -0.7153   18.7758 C.3     1  UNL1        0.0733
      9 C           3.4126   -0.9567   20.2414 C.3     1  UNL1        0.1330
     10 H           0.8669    1.8587   19.0292 H       1  UNL1        0.1482
     11 N          -2.1021    3.7194   21.1280 N.ar    1  UNL1       -0.1948
     12 N          -1.0942    2.6085   21.1205 N.ar    1  UNL1       -0.1624
     13 C           0.1043    2.6769   22.0197 C.ar    1  UNL1        0.1057
     14 C           0.2950    3.8565   22.9267 C.ar    1  UNL1        0.0259
     15 C          -0.7128    4.9675   22.9342 C.ar    1  UNL1        0.0641
     16 C          -1.9114    4.8989   22.0348 C.ar    1  UNL1        0.2805
     17 O          -2.9192    6.0099   22.0423 O.2     1  UNL1       -0.2652
     18 C          -4.7835    2.9855   22.2555 C.3     1  UNL1        0.0326
     19 C          -4.6413    3.2840   20.7924 C.ar    1  UNL1       -0.0041
     20 C          -5.8398    3.2155   19.8930 C.ar    1  UNL1       -0.0028
     21 C          -5.6977    3.5139   18.4299 C.ar    1  UNL1       -0.0002
     22 C          -4.3570    3.8808   17.8662 C.ar    1  UNL1        0.0015
     23 C          -3.1584    3.9493   18.7655 C.ar    1  UNL1        0.0189
     24 C          -3.3006    3.6509   20.2287 C.ar    1  UNL1        0.0820
     25 C           1.3921    1.2375   24.6502 C.ar    1  UNL1        0.0196
     26 C           2.4684    1.7716   25.5480 C.ar    1  UNL1        0.0039
     27 C           2.1565    2.1048   26.9769 C.ar    1  UNL1        0.0297
     28 C           0.7682    1.9038   27.5079 C.ar    1  UNL1        0.1401
     29 F           0.4562    2.2370   28.9368 F       1  UNL1       -0.2042
     30 C          -0.3082    1.3697   26.6101 C.ar    1  UNL1        0.0297
     31 C           0.0037    1.0366   25.1813 C.ar    1  UNL1        0.0039
     32 C           3.9529   -1.5338   17.7665 C.3     1  UNL1        0.1408
     33 O           3.8408   -1.2101   16.3061 O.3     1  UNL1       -0.3819
     34 H           2.9329   -1.3751   16.0072 H       1  UNL1        0.2104
@<TRIPOS>BOND
     1    18    19    1
     2    19    20   ar
     3    20    21   ar
     4    21    22   ar
     5    22    23   ar
     6    23    24   ar
     7    24    11    1
     8    11    12   ar
     9    12    13   ar
    10    13     1    1
    11     1     2   ar
    12     2    25    1
    13    25    26   ar
    14    26    27   ar
    15    27    28   ar
    16    28    29    1
    17    28    30   ar
    18    30    31   ar
    19     2     3   ar
    20     3     4   ar
    21     4     5   ar
    22     5     6    1
    23     6     7    1
    24     7     8    1
    25     8    32    1
    26    32    33    1
    27     8     9    1
    28    13    14   ar
    29    14    15   ar
    30    15    16   ar
    31    16    17    2
    32    24    19   ar
    33    16    11   ar
    34     5     1   ar
    35    31    25   ar
    36     9     4    1
    37     6    10    1
    38    33    34    1
@<TRIPOS>MOLECULE
*****
 34 38 0 0 0
SMALL
GASTEIGER

@<TRIPOS>ATOM
      1 C           3.2314   -0.5401   23.6354 C.ar    1  UNL1        0.0697
      2 C           2.1837    0.4975   23.3604 C.ar    1  UNL1        0.1051
      3 N           1.6562    0.9840   24.6776 N.ar    1  UNL1       -0.1681
      4 N           2.3779    0.2471   25.7667 N.ar    1  UNL1       -0.2378
      5 C           3.3514   -0.6949   25.1226 C.ar    1  UNL1        0.1283
      6 N           4.2214   -1.5718   25.9734 N.pl3   1  UNL1       -0.3181
      7 C           4.1179   -1.5068   27.4684 C.3     1  UNL1        0.0926
      8 C           3.1443   -0.5648   28.1125 C.3     1  UNL1        0.0733
      9 C           2.2743    0.3121   27.2617 C.3     1  UNL1        0.1330
     10 H           4.8604   -2.1901   25.5507 H       1  UNL1        0.1482
     11 N           5.3918   -1.3147   20.3977 N.ar    1  UNL1       -0.1948
     12 N           4.6026   -0.5637   21.4288 N.ar    1  UNL1       -0.1624
     13 C           4.0205   -1.2911   22.6043 C.ar    1  UNL1        0.1057
     14 C           4.2276   -2.7698   22.7487 C.ar    1  UNL1        0.0259
     15 C           5.0168   -3.5208   21.7176 C.ar    1  UNL1        0.0641
     16 C           5.5989   -2.7933   20.5421 C.ar    1  UNL1        0.2805
     17 O           6.3880   -3.5443   19.5110 O.2     1  UNL1       -0.2652
     18 C           3.7111   -0.8083   17.9647 C.3     1  UNL1        0.0326
     19 C           5.1336   -0.3339   18.0057 C.ar    1  UNL1       -0.0041
     20 C           5.7157    0.3936   16.8302 C.ar    1  UNL1       -0.0028
     21 C           7.1381    0.8681   16.8712 C.ar    1  UNL1       -0.0002
     22 C           7.9783    0.6149   18.0876 C.ar    1  UNL1        0.0015
     23 C           7.3963   -0.1127   19.2631 C.ar    1  UNL1        0.0189
     24 C           5.9738   -0.5871   19.2222 C.ar    1  UNL1        0.0820
     25 C           1.7411    0.9663   22.0060 C.ar    1  UNL1        0.0196
     26 C           1.0098    0.0301   21.0903 C.ar    1  UNL1        0.0039
     27 C           0.5673    0.4989   19.7359 C.ar    1  UNL1        0.0297
     28 C           0.8561    1.9039   19.2972 C.ar    1  UNL1        0.1401
     29 F           0.4135    2.3727   17.9428 F       1  UNL1       -0.2042
     30 C           1.5874    2.8401   20.2129 C.ar    1  UNL1        0.0297
     31 C           2.0299    2.3713   21.5673 C.ar    1  UNL1        0.0039
     32 C           3.0408   -0.4999   29.6076 C.3     1  UNL1        0.1408
     33 O           1.7414   -0.8218   30.2841 O.3     1  UNL1       -0.3819
     34 H           1.0790   -0.1542   30.0464 H       1  UNL1        0.2104
@<TRIPOS>BOND
     1    18    19    1
     2    19    20   ar
     3    20    21   ar
     4    21    22   ar
     5    22    23   ar
     6    23    24   ar
     7    24    11    1
     8    11    12   ar
     9    12    13   ar
    10    13     1    1
    11     1     2   ar
    12     2    25    1
    13    25    26   ar
    14    26    27   ar
    15    27    28   ar
    16    28    29    1
    17    28    30   ar
    18    30    31   ar
    19     2     3   ar
    20     3     4   ar
    21     4     5   ar
    22     5     6    1
    23     6     7    1
    24     7     8    1
    25     8    32    1
    26    32    33    1
    27     8     9    1
    28    13    14   ar
    29    14    15   ar
    30    15    16   ar
    31    16    17    2
    32    24    19   ar
    33    16    11   ar
    34     5     1   ar
    35    31    25   ar
    36     9     4    1
    37     6    10    1
    38    33    34    1
@<TRIPOS>MOLECULE
*****
 34 38 0 0 0
SMALL
GASTEIGER

@<TRIPOS>ATOM
      1 C           6.1293   -2.5802   29.7300 C.ar    1  UNL1        0.0697
      2 C           6.2467   -3.0654   31.1444 C.ar    1  UNL1        0.1051
      3 N           6.7310   -4.4847   31.1088 N.ar    1  UNL1       -0.1681
      4 N           6.9128   -4.8766   29.6724 N.ar    1  UNL1       -0.2378
      5 C           6.5409   -3.6995   28.8202 C.ar    1  UNL1        0.1283
      6 N           6.6252   -3.7990   27.3259 N.pl3   1  UNL1       -0.3181
      7 C           7.0813   -5.0755   26.6838 C.3     1  UNL1        0.0926
      8 C           7.4532   -6.2526   27.5360 C.3     1  UNL1        0.0733
      9 C           7.3689   -6.1531   29.0303 C.3     1  UNL1        0.1330
     10 H           6.3811   -3.0264   26.7665 H       1  UNL1        0.1482
     11 N           3.7658    0.4462   28.7274 N.ar    1  UNL1       -0.1948
     12 N           4.2159   -0.9188   29.1567 N.ar    1  UNL1       -0.1624
     13 C           5.6792   -1.2152   29.3006 C.ar    1  UNL1        0.1057
     14 C           6.6925   -0.1467   29.0151 C.ar    1  UNL1        0.0259
     15 C           6.2424    1.2183   28.5858 C.ar    1  UNL1        0.0641
     16 C           4.7790    1.5147   28.4419 C.ar    1  UNL1        0.2805
     17 O           4.3289    2.8797   28.0125 O.2     1  UNL1       -0.2652
     18 C           2.1106    1.0449   31.1568 C.3     1  UNL1        0.0326
     19 C           1.4748    1.0420   29.7981 C.ar    1  UNL1       -0.0041
     20 C           0.0115    1.3384   29.6543 C.ar    1  UNL1       -0.0028
     21 C          -0.6244    1.3354   28.2957 C.ar    1  UNL1       -0.0002
     22 C           0.2033    1.0361   27.0810 C.ar    1  UNL1        0.0015
     23 C           1.6666    0.7396   27.2249 C.ar    1  UNL1        0.0189
     24 C           2.3024    0.7426   28.5835 C.ar    1  UNL1        0.0820
     25 C           5.9347   -2.2710   32.3779 C.ar    1  UNL1        0.0196
     26 C           6.9590   -1.3335   32.9453 C.ar    1  UNL1        0.0039
     27 C           6.6470   -0.5391   34.1787 C.ar    1  UNL1        0.0297
     28 C           5.3107   -0.6820   34.8449 C.ar    1  UNL1        0.1401
     29 F           4.9987    0.1124   36.0783 F       1  UNL1       -0.2042
     30 C           4.2864   -1.6195   34.2775 C.ar    1  UNL1        0.0297
     31 C           4.5984   -2.4139   33.0440 C.ar    1  UNL1        0.0039
     32 C           7.9093   -7.5292   26.8938 C.3     1  UNL1        0.1408
     33 O           6.9034   -8.5629   26.4823 O.3     1  UNL1       -0.3819
     34 H           6.4696   -8.9240   27.2712 H       1  UNL1        0.2104
@<TRIPOS>BOND
     1    18    19    1
     2    19    20   ar
     3    20    21   ar
     4    21    22   ar
     5    22    23   ar
     6    23    24   ar
     7    24    11    1
     8    11    12   ar
     9    12    13   ar
    10    13     1    1
    11     1     2   ar
    12     2    25    1
    13    25    26   ar
    14    26    27   ar
    15    27    28   ar
    16    28    29    1
    17    28    30   ar
    18    30    31   ar
    19     2     3   ar
    20     3     4   ar
    21     4     5   ar
    22     5     6    1
    23     6     7    1
    24     7     8    1
    25     8    32    1
    26    32    33    1
    27     8     9    1
    28    13    14   ar
    29    14    15   ar
    30    15    16   ar
    31    16    17    2
    32    24    19   ar
    33    16    11   ar
    34     5     1   ar
    35    31    25   ar
    36     9     4    1
    37     6    10    1
    38    33    34    1
@<TRIPOS>MOLECULE
*****
 34 38 0 0 0
SMALL
GASTEIGER

@<TRIPOS>ATOM
      1 C           6.1295   -3.6875   23.6275 C.ar    1  UNL1        0.0697
      2 C           6.8545   -3.9441   22.3396 C.ar    1  UNL1        0.1051
      3 N           7.7615   -5.1211   22.5450 N.ar    1  UNL1       -0.1681
      4 N           7.5971   -5.5918   23.9597 N.ar    1  UNL1       -0.2378
      5 C           6.5884   -4.7058   24.6287 C.ar    1  UNL1        0.1283
      6 N           6.2182   -4.9407   26.0632 N.pl3   1  UNL1       -0.3181
      7 C           6.8566   -6.0616   26.8286 C.3     1  UNL1        0.0926
      8 C           7.8653   -6.9476   26.1596 C.3     1  UNL1        0.0733
      9 C           8.2355   -6.7127   24.7251 C.3     1  UNL1        0.1330
     10 H           5.5562   -4.3592   26.5023 H       1  UNL1        0.1482
     11 N           4.0013   -0.8922   25.4732 N.ar    1  UNL1       -0.1948
     12 N           5.0085   -1.9767   25.2294 N.ar    1  UNL1       -0.1624
     13 C           5.1224   -2.6030   23.8713 C.ar    1  UNL1        0.1057
     14 C           4.2290   -2.1447   22.7568 C.ar    1  UNL1        0.0259
     15 C           3.2219   -1.0601   23.0006 C.ar    1  UNL1        0.0641
     16 C           3.1080   -0.4339   24.3588 C.ar    1  UNL1        0.2805
     17 O           2.1009    0.6507   24.6026 O.2     1  UNL1       -0.2652
     18 C           5.5402    1.6036   26.1081 C.3     1  UNL1        0.0326
     19 C           4.6569    0.9820   27.1489 C.ar    1  UNL1       -0.0041
     20 C           4.5430    1.6082   28.5072 C.ar    1  UNL1       -0.0028
     21 C           3.6597    0.9866   29.5480 C.ar    1  UNL1       -0.0002
     22 C           2.8903   -0.2612   29.2306 C.ar    1  UNL1        0.0015
     23 C           3.0042   -0.8875   27.8723 C.ar    1  UNL1        0.0189
     24 C           3.8875   -0.2659   26.8315 C.ar    1  UNL1        0.0820
     25 C           6.6997   -3.1613   21.0695 C.ar    1  UNL1        0.0196
     26 C           7.3441   -1.8134   20.9360 C.ar    1  UNL1        0.0039
     27 C           7.1892   -1.0306   19.6658 C.ar    1  UNL1        0.0297
     28 C           6.3900   -1.5957   18.5292 C.ar    1  UNL1        0.1401
     29 F           6.2352   -0.8129   17.2591 F       1  UNL1       -0.2042
     30 C           5.7457   -2.9436   18.6628 C.ar    1  UNL1        0.0297
     31 C           5.9005   -3.7264   19.9329 C.ar    1  UNL1        0.0039
     32 C           8.5037   -8.0686   26.9251 C.3     1  UNL1        0.1408
     33 O           7.6895   -9.2637   27.3237 O.3     1  UNL1       -0.3819
     34 H           7.0125   -8.9947   27.9642 H       1  UNL1        0.2104
@<TRIPOS>BOND
     1    18    19    1
     2    19    20   ar
     3    20    21   ar
     4    21    22   ar
     5    22    23   ar
     6    23    24   ar
     7    24    11    1
     8    11    12   ar
     9    12    13   ar
    10    13     1    1
    11     1     2   ar
    12     2    25    1
    13    25    26   ar
    14    26    27   ar
    15    27    28   ar
    16    28    29    1
    17    28    30   ar
    18    30    31   ar
    19     2     3   ar
    20     3     4   ar
    21     4     5   ar
    22     5     6    1
    23     6     7    1
    24     7     8    1
    25     8    32    1
    26    32    33    1
    27     8     9    1
    28    13    14   ar
    29    14    15   ar
    30    15    16   ar
    31    16    17    2
    32    24    19   ar
    33    16    11   ar
    34     5     1   ar
    35    31    25   ar
    36     9     4    1
    37     6    10    1
    38    33    34    1
@<TRIPOS>MOLECULE
*****
 34 38 0 0 0
SMALL
GASTEIGER

@<TRIPOS>ATOM
      1 C           4.6512    0.1024   33.0334 C.ar    1  UNL1        0.0697
      2 C           5.5865   -0.8455   33.7238 C.ar    1  UNL1        0.1051
      3 N           5.4761   -0.6116   35.2014 N.ar    1  UNL1       -0.1681
      4 N           4.4726    0.4807   35.4241 N.ar    1  UNL1       -0.2378
      5 C           3.9627    0.9220   34.0842 C.ar    1  UNL1        0.1283
      6 N           2.9375    2.0132   33.9941 N.pl3   1  UNL1       -0.3181
      7 C           2.4221    2.6631   35.2438 C.3     1  UNL1        0.0926
      8 C           2.9319    2.2218   36.5837 C.3     1  UNL1        0.0733
      9 C           3.9572    1.1306   36.6739 C.3     1  UNL1        0.1330
     10 H           2.6029    2.3028   33.1147 H       1  UNL1        0.1482
     11 N           2.8601    0.5900   29.5257 N.ar    1  UNL1       -0.1948
     12 N           3.0701    0.4809   31.0069 N.ar    1  UNL1       -0.1624
     13 C           4.4412    0.2114   31.5522 C.ar    1  UNL1        0.1057
     14 C           5.6024    0.0510   30.6162 C.ar    1  UNL1        0.0259
     15 C           5.3924    0.1601   29.1350 C.ar    1  UNL1        0.0641
     16 C           4.0212    0.4296   28.5897 C.ar    1  UNL1        0.2805
     17 O           3.8112    0.5387   27.1085 O.2     1  UNL1       -0.2652
     18 C           2.1351    3.3445   28.5836 C.3     1  UNL1        0.0326
     19 C           1.1264    2.2367   28.5094 C.ar    1  UNL1       -0.0041
     20 C          -0.2447    2.5062   27.9641 C.ar    1  UNL1       -0.0028
     21 C          -1.2534    1.3985   27.8899 C.ar    1  UNL1       -0.0002
     22 C          -0.8909    0.0213   28.3609 C.ar    1  UNL1        0.0015
     23 C           0.4803   -0.2482   28.9061 C.ar    1  UNL1        0.0189
     24 C           1.4890    0.8595   28.9804 C.ar    1  UNL1        0.0820
     25 C           6.4761   -1.8507   33.0543 C.ar    1  UNL1        0.0196
     26 C           5.8935   -3.1184   32.5034 C.ar    1  UNL1        0.0039
     27 C           6.7831   -4.1236   31.8338 C.ar    1  UNL1        0.0297
     28 C           8.2551   -3.8612   31.7153 C.ar    1  UNL1        0.1401
     29 F           9.1446   -4.8664   31.0457 F       1  UNL1       -0.2042
     30 C           8.8376   -2.5935   32.2662 C.ar    1  UNL1        0.0297
     31 C           7.9481   -1.5883   32.9357 C.ar    1  UNL1        0.0039
     32 C           2.4164    2.8717   37.8335 C.3     1  UNL1        0.1408
     33 O           0.9609    3.2130   37.9559 O.3     1  UNL1       -0.3819
     34 H           0.7346    3.9006   37.3102 H       1  UNL1        0.2104
@<TRIPOS>BOND
     1    18    19    1
     2    19    20   ar
     3    20    21   ar
     4    21    22   ar
     5    22    23   ar
     6    23    24   ar
     7    24    11    1
     8    11    12   ar
     9    12    13   ar
    10    13     1    1
    11     1     2   ar
    12     2    25    1
    13    25    26   ar
    14    26    27   ar
    15    27    28   ar
    16    28    29    1
    17    28    30   ar
    18    30    31   ar
    19     2     3   ar
    20     3     4   ar
    21     4     5   ar
    22     5     6    1
    23     6     7    1
    24     7     8    1
    25     8    32    1
    26    32    33    1
    27     8     9    1
    28    13    14   ar
    29    14    15   ar
    30    15    16   ar
    31    16    17    2
    32    24    19   ar
    33    16    11   ar
    34     5     1   ar
    35    31    25   ar
    36     9     4    1
    37     6    10    1
    38    33    34    1
@<TRIPOS>MOLECULE
*****
 34 38 0 0 0
SMALL
GASTEIGER

@<TRIPOS>ATOM
      1 C           3.5590    0.4401   30.2823 C.ar    1  UNL1        0.0697
      2 C           2.8879    0.6041   31.6137 C.ar    1  UNL1        0.1051
      3 N           1.4855    1.0778   31.3706 N.ar    1  UNL1       -0.1681
      4 N           1.2900    1.2064   29.8890 N.ar    1  UNL1       -0.2378
      5 C           2.5715    0.8123   29.2163 C.ar    1  UNL1        0.1283
      6 N           2.6736    0.8433   27.7202 N.pl3   1  UNL1       -0.3181
      7 C           1.4942    1.2684   26.8966 C.3     1  UNL1        0.0926
      8 C           0.2127    1.6625   27.5692 C.3     1  UNL1        0.0733
      9 C           0.1106    1.6316   29.0654 C.3     1  UNL1        0.1330
     10 H           3.5147    0.5846   27.2787 H       1  UNL1        0.1482
     11 N           6.6718   -1.9261   29.6030 N.ar    1  UNL1       -0.1948
     12 N           5.2609   -1.4699   29.8288 N.ar    1  UNL1       -0.1624
     13 C           4.9700   -0.0161   30.0564 C.ar    1  UNL1        0.1057
     14 C           6.0902    0.9815   30.0582 C.ar    1  UNL1        0.0259
     15 C           7.5012    0.5253   29.8323 C.ar    1  UNL1        0.0641
     16 C           7.7920   -0.9285   29.6047 C.ar    1  UNL1        0.2805
     17 O           9.2030   -1.3847   29.3789 O.2     1  UNL1       -0.2652
     18 C           6.7395   -3.8239   31.9255 C.3     1  UNL1        0.0326
     19 C           6.9965   -4.3288   30.5365 C.ar    1  UNL1       -0.0041
     20 C           7.2873   -5.7826   30.3089 C.ar    1  UNL1       -0.0028
     21 C           7.5443   -6.2876   28.9201 C.ar    1  UNL1       -0.0002
     22 C           7.5105   -5.3387   27.7589 C.ar    1  UNL1        0.0015
     23 C           7.2197   -3.8849   27.9865 C.ar    1  UNL1        0.0189
     24 C           6.9627   -3.3799   29.3754 C.ar    1  UNL1        0.0820
     25 C           3.5099    0.3408   32.9530 C.ar    1  UNL1        0.0196
     26 C           3.6060    1.4436   33.9652 C.ar    1  UNL1        0.0039
     27 C           4.2280    1.1803   35.3045 C.ar    1  UNL1        0.0297
     28 C           4.7538   -0.1859   35.6317 C.ar    1  UNL1        0.1401
     29 F           5.3758   -0.4492   36.9710 F       1  UNL1       -0.2042
     30 C           4.6576   -1.2887   34.6195 C.ar    1  UNL1        0.0297
     31 C           4.0356   -1.0253   33.2802 C.ar    1  UNL1        0.0039
     32 C          -0.9667    2.0877   26.7456 C.3     1  UNL1        0.1408
     33 O          -0.8757    2.0860   25.2484 O.3     1  UNL1       -0.3819
     34 H          -0.2301    2.7513   24.9630 H       1  UNL1        0.2104
@<TRIPOS>BOND
     1    18    19    1
     2    19    20   ar
     3    20    21   ar
     4    21    22   ar
     5    22    23   ar
     6    23    24   ar
     7    24    11    1
     8    11    12   ar
     9    12    13   ar
    10    13     1    1
    11     1     2   ar
    12     2    25    1
    13    25    26   ar
    14    26    27   ar
    15    27    28   ar
    16    28    29    1
    17    28    30   ar
    18    30    31   ar
    19     2     3   ar
    20     3     4   ar
    21     4     5   ar
    22     5     6    1
    23     6     7    1
    24     7     8    1
    25     8    32    1
    26    32    33    1
    27     8     9    1
    28    13    14   ar
    29    14    15   ar
    30    15    16   ar
    31    16    17    2
    32    24    19   ar
    33    16    11   ar
    34     5     1   ar
    35    31    25   ar
    36     9     4    1
    37     6    10    1
    38    33    34    1
@<TRIPOS>MOLECULE
*****
 34 38 0 0 0
SMALL
GASTEIGER

@<TRIPOS>ATOM
      1 C           5.8071   -2.3392   23.4147 C.ar    1  UNL1        0.0697
      2 C           5.8252   -3.1264   22.1380 C.ar    1  UNL1        0.1051
      3 N           6.4267   -4.4691   22.4300 N.ar    1  UNL1       -0.1681
      4 N           6.7804   -4.5118   23.8871 N.ar    1  UNL1       -0.2378
      5 C           6.3974   -3.1953   24.4957 C.ar    1  UNL1        0.1283
      6 N           6.6357   -2.9463   25.9555 N.pl3   1  UNL1       -0.3181
      7 C           7.2570   -4.0137   26.8068 C.3     1  UNL1        0.0926
      8 C           7.6399   -5.3301   26.1982 C.3     1  UNL1        0.0733
      9 C           7.4016   -5.5792   24.7383 C.3     1  UNL1        0.1330
     10 H           6.3844   -2.0823   26.3549 H       1  UNL1        0.1482
     11 N           3.5195    0.7042   24.5350 N.ar    1  UNL1       -0.1948
     12 N           4.0370   -0.6938   24.3685 N.ar    1  UNL1       -0.1624
     13 C           5.2896   -0.9412   23.5812 C.ar    1  UNL1        0.1057
     14 C           6.0247    0.2097   22.9603 C.ar    1  UNL1        0.0259
     15 C           5.5071    1.6077   23.1268 C.ar    1  UNL1        0.0641
     16 C           4.2545    1.8549   23.9141 C.ar    1  UNL1        0.2805
     17 O           3.7370    3.2529   24.0806 O.2     1  UNL1       -0.2652
     18 C           0.9080    1.1024   23.1131 C.3     1  UNL1        0.0326
     19 C           0.9612    1.1505   24.6114 C.ar    1  UNL1       -0.0041
     20 C          -0.2914    1.3978   25.3987 C.ar    1  UNL1       -0.0028
     21 C          -0.2383    1.4459   26.8970 C.ar    1  UNL1       -0.0002
     22 C           1.0674    1.2468   27.6079 C.ar    1  UNL1        0.0015
     23 C           2.3200    0.9996   26.8206 C.ar    1  UNL1        0.0189
     24 C           2.2669    0.9514   25.3223 C.ar    1  UNL1        0.0820
     25 C           5.3289   -2.6539   20.8037 C.ar    1  UNL1        0.0196
     26 C           6.2578   -2.6220   19.6264 C.ar    1  UNL1        0.0039
     27 C           5.7615   -2.1494   18.2921 C.ar    1  UNL1        0.0297
     28 C           4.3363   -1.7089   18.1350 C.ar    1  UNL1        0.1401
     29 F           3.8401   -1.2364   16.8007 F       1  UNL1       -0.2042
     30 C           3.4074   -1.7409   19.3123 C.ar    1  UNL1        0.0297
     31 C           3.9037   -2.2134   20.6466 C.ar    1  UNL1        0.0039
     32 C           8.2612   -6.3976   27.0495 C.3     1  UNL1        0.1408
     33 O           7.4859   -6.9973   28.1849 O.3     1  UNL1       -0.3819
     34 H           7.3286   -6.3207   28.8620 H       1  UNL1        0.2104
@<TRIPOS>BOND
     1    18    19    1
     2    19    20   ar
     3    20    21   ar
     4    21    22   ar
     5    22    23   ar
     6    23    24   ar
     7    24    11    1
     8    11    12   ar
     9    12    13   ar
    10    13     1    1
    11     1     2   ar
    12     2    25    1
    13    25    26   ar
    14    26    27   ar
    15    27    28   ar
    16    28    29    1
    17    28    30   ar
    18    30    31   ar
    19     2     3   ar
    20     3     4   ar
    21     4     5   ar
    22     5     6    1
    23     6     7    1
    24     7     8    1
    25     8    32    1
    26    32    33    1
    27     8     9    1
    28    13    14   ar
    29    14    15   ar
    30    15    16   ar
    31    16    17    2
    32    24    19   ar
    33    16    11   ar
    34     5     1   ar
    35    31    25   ar
    36     9     4    1
    37     6    10    1
    38    33    34    1
