@<TRIPOS>MOLECULE
*****
 29 31 0 0 0
SMALL
GASTEIGER

@<TRIPOS>ATOM
      1 C           2.7080   -0.3203   20.0404 C.ar    1  UNL1        0.0191
      2 C           1.2790   -0.6994   20.2941 C.ar    1  UNL1        0.0063
      3 C           0.2023    0.3424   20.2200 C.ar    1  UNL1        0.0581
      4 C           0.5545    1.7631   19.8922 C.ar    1  UNL1        0.2297
      5 N           1.9835    2.1421   19.6385 N.ar    1  UNL1       -0.2098
      6 C           3.0602    1.1003   19.7126 C.ar    1  UNL1        0.1020
      7 C           3.7985   -2.4974   19.1344 C.2     1  UNL1       -0.0069
      8 C           3.7847   -1.3620   20.1145 C.2     1  UNL1       -0.0014
      9 C           4.8752   -3.5392   19.2085 C.3     1  UNL1        0.0939
     10 C           4.5744   -4.9573   18.8230 C.3     1  UNL1        0.0262
     11 C           8.5737   -2.1003   19.1849 C.3     1  UNL1        0.0946
     12 C           7.1963   -2.4767   18.7253 C.2     1  UNL1        0.2232
     13 O           6.7627   -2.1669   17.3232 O.2     1  UNL1       -0.2751
     14 N           6.2525   -3.1628   19.6680 N.am    1  UNL1       -0.3022
     15 H           6.5371   -3.3661   20.5883 H       1  UNL1        0.1497
     16 O          -0.5222    2.8049   19.8180 O.3     1  UNL1       -0.4352
     17 C          -1.3269    3.1399   21.0388 C.ar    1  UNL1        0.1591
     18 C          -0.6834    3.1079   22.3933 C.ar    1  UNL1        0.0390
     19 C          -1.4882    3.4429   23.6142 C.ar    1  UNL1        0.0112
     20 C          -2.9364    3.8099   23.4803 C.ar    1  UNL1        0.0492
     21 S          -3.9746    4.1854   24.4957 S.2     1  UNL1       -0.0708
     22 C          -5.2598    4.4495   23.7686 C.ar    1  UNL1        0.0878
     23 N          -5.0158    4.2371   22.3039 N.ar    1  UNL1       -0.2418
     24 C          -3.5799    3.8418   22.1257 C.ar    1  UNL1        0.1009
     25 C          -2.7751    3.5068   20.9050 C.ar    1  UNL1        0.1102
     26 CL         -3.4186    3.5388   19.5504 Cl      1  UNL1       -0.0775
     27 C          -6.5605    4.8548   24.3961 C.3     1  UNL1        0.0466
     28 C          -7.8573    4.4931   23.7345 C.3     1  UNL1        0.0069
     29 C          -6.5646    5.6217   25.6852 C.3     1  UNL1        0.0069
@<TRIPOS>BOND
     1    11    12    1
     2    12    13    2
     3    12    14   am
     4    14     9    1
     5     9    10    1
     6     9     7    1
     7     7     8    2
     8     8     1    1
     9     1     2   ar
    10     2     3   ar
    11     3     4   ar
    12     4    16    1
    13    16    17    1
    14    17    18   ar
    15    18    19   ar
    16    19    20   ar
    17    20    21   ar
    18    21    22   ar
    19    22    27    1
    20    27    28    1
    21    27    29    1
    22    22    23   ar
    23    23    24   ar
    24    24    25   ar
    25    25    26    1
    26     4     5   ar
    27     5     6   ar
    28     6     1   ar
    29    25    17   ar
    30    24    20   ar
    31    14    15    1
@<TRIPOS>MOLECULE
*****
 29 31 0 0 0
SMALL
GASTEIGER

@<TRIPOS>ATOM
      1 C         -11.7018   -0.3956   17.4515 C.ar    1  UNL1        0.0191
      2 C         -12.5451   -0.8436   18.6083 C.ar    1  UNL1        0.0063
      3 C         -12.3529   -2.2125   19.1907 C.ar    1  UNL1        0.0581
      4 C         -11.3175   -3.1334   18.6164 C.ar    1  UNL1        0.2297
      5 N         -10.4742   -2.6854   17.4596 N.ar    1  UNL1       -0.2098
      6 C         -10.6664   -1.3164   16.8771 C.ar    1  UNL1        0.1020
      7 C         -13.1800    1.7112   17.0963 C.2     1  UNL1       -0.0069
      8 C         -11.8940    0.9733   16.8690 C.2     1  UNL1       -0.0014
      9 C         -13.3722    3.0801   16.5139 C.3     1  UNL1        0.0939
     10 C         -14.7144    3.4871   15.9821 C.3     1  UNL1        0.0262
     11 C         -11.0663    6.2128   17.3005 C.3     1  UNL1        0.0946
     12 C         -12.2163    5.2510   17.3511 C.2     1  UNL1        0.2232
     13 O         -13.3602    5.4983   18.2893 O.2     1  UNL1       -0.2751
     14 N         -12.2222    4.0419   16.4634 N.am    1  UNL1       -0.3022
     15 H         -11.4714    3.8796   15.8476 H       1  UNL1        0.1497
     16 O         -11.1252   -4.5023   19.1988 O.3     1  UNL1       -0.4352
     17 C         -11.9876   -5.6405   18.7396 C.ar    1  UNL1        0.1591
     18 C         -11.5304   -6.5216   17.6151 C.ar    1  UNL1        0.0390
     19 C         -12.3928   -7.6599   17.1559 C.ar    1  UNL1        0.0112
     20 C         -13.7124   -7.9169   17.8213 C.ar    1  UNL1        0.0492
     21 S         -14.7691   -8.9553   17.5870 S.2     1  UNL1       -0.0708
     22 C         -15.8794   -8.7159   18.5667 C.ar    1  UNL1        0.0878
     23 N         -15.5089   -7.5296   19.4065 N.ar    1  UNL1       -0.2418
     24 C         -14.1695   -7.0357   18.9458 C.ar    1  UNL1        0.1009
     25 C         -13.3072   -5.8976   19.4050 C.ar    1  UNL1        0.1102
     26 CL        -13.7643   -5.0164   20.5295 Cl      1  UNL1       -0.0775
     27 C         -17.1392   -9.5215   18.6858 C.3     1  UNL1        0.0466
     28 C         -18.4638   -8.8284   18.8085 C.3     1  UNL1        0.0069
     29 C         -17.0743  -11.0200   18.6822 C.3     1  UNL1        0.0069
@<TRIPOS>BOND
     1    11    12    1
     2    12    13    2
     3    12    14   am
     4    14     9    1
     5     9    10    1
     6     9     7    1
     7     7     8    2
     8     8     1    1
     9     1     2   ar
    10     2     3   ar
    11     3     4   ar
    12     4    16    1
    13    16    17    1
    14    17    18   ar
    15    18    19   ar
    16    19    20   ar
    17    20    21   ar
    18    21    22   ar
    19    22    27    1
    20    27    28    1
    21    27    29    1
    22    22    23   ar
    23    23    24   ar
    24    24    25   ar
    25    25    26    1
    26     4     5   ar
    27     5     6   ar
    28     6     1   ar
    29    25    17   ar
    30    24    20   ar
    31    14    15    1
@<TRIPOS>MOLECULE
*****
 29 31 0 0 0
SMALL
GASTEIGER

@<TRIPOS>ATOM
      1 C           1.6009   -0.3240   19.7686 C.ar    1  UNL1        0.0191
      2 C           1.7597    0.6133   18.6083 C.ar    1  UNL1        0.0063
      3 C           0.9390    1.8669   18.5391 C.ar    1  UNL1        0.0581
      4 C          -0.0406    2.1833   19.6302 C.ar    1  UNL1        0.2297
      5 N          -0.1994    1.2459   20.7904 N.ar    1  UNL1       -0.2098
      6 C           0.6214   -0.0078   20.8596 C.ar    1  UNL1        0.1020
      7 C           3.8046   -1.6016   19.2573 C.2     1  UNL1       -0.0069
      8 C           2.4216   -1.5776   19.8378 C.2     1  UNL1       -0.0014
      9 C           4.6253   -2.8552   19.3265 C.3     1  UNL1        0.0939
     10 C           3.9991   -4.1802   19.0066 C.3     1  UNL1        0.0262
     11 C           8.5530   -2.3415   19.0827 C.3     1  UNL1        0.0946
     12 C           7.1061   -2.4129   18.6937 C.2     1  UNL1        0.2232
     13 O           6.6930   -2.1135   17.2832 O.2     1  UNL1       -0.2751
     14 N           6.0723   -2.7838   19.7154 N.am    1  UNL1       -0.3022
     15 H           6.3434   -2.9803   20.6412 H       1  UNL1        0.1497
     16 O          -0.8614    3.4369   19.5610 O.3     1  UNL1       -0.4352
     17 C          -2.0646    3.5951   20.4427 C.ar    1  UNL1        0.1591
     18 C          -3.4279    3.2518   19.9200 C.ar    1  UNL1        0.0390
     19 C          -4.6311    3.4100   20.8017 C.ar    1  UNL1        0.0112
     20 C          -4.4708    3.9116   22.2062 C.ar    1  UNL1        0.0492
     21 S          -5.4648    4.1678   23.3000 S.2     1  UNL1       -0.0708
     22 C          -4.7157    4.6694   24.4988 C.ar    1  UNL1        0.0878
     23 N          -3.2588    4.7233   24.1459 N.ar    1  UNL1       -0.2418
     24 C          -3.1074    4.2549   22.7290 C.ar    1  UNL1        0.1009
     25 C          -1.9043    4.0967   21.8473 C.ar    1  UNL1        0.1102
     26 CL         -0.5409    4.4400   22.3701 Cl      1  UNL1       -0.0775
     27 C          -5.3178    5.0504   25.8188 C.3     1  UNL1        0.0466
     28 C          -6.6310    5.7739   25.8633 C.3     1  UNL1        0.0069
     29 C          -4.6067    4.7078   27.0943 C.3     1  UNL1        0.0069
@<TRIPOS>BOND
     1    11    12    1
     2    12    13    2
     3    12    14   am
     4    14     9    1
     5     9    10    1
     6     9     7    1
     7     7     8    2
     8     8     1    1
     9     1     2   ar
    10     2     3   ar
    11     3     4   ar
    12     4    16    1
    13    16    17    1
    14    17    18   ar
    15    18    19   ar
    16    19    20   ar
    17    20    21   ar
    18    21    22   ar
    19    22    27    1
    20    27    28    1
    21    27    29    1
    22    22    23   ar
    23    23    24   ar
    24    24    25   ar
    25    25    26    1
    26     4     5   ar
    27     5     6   ar
    28     6     1   ar
    29    25    17   ar
    30    24    20   ar
    31    14    15    1
@<TRIPOS>MOLECULE
*****
 29 31 0 0 0
SMALL
GASTEIGER

@<TRIPOS>ATOM
      1 C           5.4533   -0.3453   34.2061 C.ar    1  UNL1        0.0191
      2 C           4.4227   -1.3919   33.9015 C.ar    1  UNL1        0.0063
      3 C           4.7963   -2.5996   33.0940 C.ar    1  UNL1        0.0581
      4 C           6.2003   -2.7608   32.5911 C.ar    1  UNL1        0.2297
      5 N           7.2307   -1.7142   32.8957 N.ar    1  UNL1       -0.2098
      6 C           6.8572   -0.5065   33.7033 C.ar    1  UNL1        0.1020
      7 C           3.9089    0.8060   35.9494 C.2     1  UNL1       -0.0069
      8 C           5.0798    0.8623   35.0136 C.2     1  UNL1       -0.0014
      9 C           3.5353    2.0136   36.7568 C.3     1  UNL1        0.0939
     10 C           4.5028    3.1515   36.8957 C.3     1  UNL1        0.0262
     11 C           0.6755    1.6008   39.4772 C.3     1  UNL1        0.0946
     12 C           2.0164    1.5310   38.8087 C.2     1  UNL1        0.2232
     13 O           3.1793    0.9089   39.5233 O.2     1  UNL1       -0.2751
     14 N           2.1944    2.0834   37.4254 N.am    1  UNL1       -0.3022
     15 H           1.4311    2.4917   36.9564 H       1  UNL1        0.1497
     16 O           6.5738   -3.9684   31.7837 O.3     1  UNL1       -0.4352
     17 C           6.6383   -3.8797   30.2876 C.ar    1  UNL1        0.1591
     18 C           6.1521   -2.6453   29.5879 C.ar    1  UNL1        0.0390
     19 C           6.2166   -2.5565   28.0918 C.ar    1  UNL1        0.0112
     20 C           6.7673   -3.7023   27.2957 C.ar    1  UNL1        0.0492
     21 S           6.9548   -3.9012   25.8208 S.2     1  UNL1       -0.0708
     22 C           7.5569   -5.2587   25.6091 C.ar    1  UNL1        0.0878
     23 N           7.7415   -5.8987   26.9531 N.ar    1  UNL1       -0.2418
     24 C           7.2535   -4.9368   27.9955 C.ar    1  UNL1        0.1009
     25 C           7.1889   -5.0255   29.4914 C.ar    1  UNL1        0.1102
     26 CL          7.6751   -6.2599   30.1913 Cl      1  UNL1       -0.0775
     27 C           7.9121   -5.8690   24.2857 C.3     1  UNL1        0.0466
     28 C           7.9201   -5.0226   23.0474 C.3     1  UNL1        0.0069
     29 C           8.2592   -7.3258   24.2006 C.3     1  UNL1        0.0069
@<TRIPOS>BOND
     1    11    12    1
     2    12    13    2
     3    12    14   am
     4    14     9    1
     5     9    10    1
     6     9     7    1
     7     7     8    2
     8     8     1    1
     9     1     2   ar
    10     2     3   ar
    11     3     4   ar
    12     4    16    1
    13    16    17    1
    14    17    18   ar
    15    18    19   ar
    16    19    20   ar
    17    20    21   ar
    18    21    22   ar
    19    22    27    1
    20    27    28    1
    21    27    29    1
    22    22    23   ar
    23    23    24   ar
    24    24    25   ar
    25    25    26    1
    26     4     5   ar
    27     5     6   ar
    28     6     1   ar
    29    25    17   ar
    30    24    20   ar
    31    14    15    1
@<TRIPOS>MOLECULE
*****
 29 31 0 0 0
SMALL
GASTEIGER

@<TRIPOS>ATOM
      1 C         -16.6673    3.7599   22.7209 C.ar    1  UNL1        0.0191
      2 C         -15.9771    4.1613   21.4510 C.ar    1  UNL1        0.0063
      3 C         -15.8853    3.1931   20.3091 C.ar    1  UNL1        0.0581
      4 C         -16.4836    1.8235   20.4369 C.ar    1  UNL1        0.2297
      5 N         -17.1738    1.4222   21.7068 N.ar    1  UNL1       -0.2098
      6 C         -17.2656    2.3905   22.8488 C.ar    1  UNL1        0.1020
      7 C         -15.7767    4.6496   24.9936 C.2     1  UNL1       -0.0069
      8 C         -16.7591    4.7282   23.8629 C.2     1  UNL1       -0.0014
      9 C         -15.8685    5.6178   26.1356 C.3     1  UNL1        0.0939
     10 C         -15.0446    6.8713   26.1241 C.3     1  UNL1        0.0262
     11 C         -19.0727    5.6508   28.4770 C.3     1  UNL1        0.0946
     12 C         -18.1570    5.9360   27.3236 C.2     1  UNL1        0.2232
     13 O         -18.6142    6.8246   26.2050 O.2     1  UNL1       -0.2751
     14 N         -16.7841    5.3326   27.2890 N.am    1  UNL1       -0.3022
     15 H         -16.4841    4.7493   28.0232 H       1  UNL1        0.1497
     16 O         -16.3918    0.8553   19.2949 O.3     1  UNL1       -0.4352
     17 C         -15.1234    0.0894   19.0613 C.ar    1  UNL1        0.1591
     18 C         -13.9201    0.7852   18.4976 C.ar    1  UNL1        0.0390
     19 C         -12.6517    0.0192   18.2639 C.ar    1  UNL1        0.0112
     20 C         -12.5867   -1.4425   18.5939 C.ar    1  UNL1        0.0492
     21 S         -11.4827   -2.4507   18.4726 S.2     1  UNL1       -0.0708
     22 C         -12.0037   -3.7697   18.9614 C.ar    1  UNL1        0.0878
     23 N         -13.4298   -3.5766   19.3848 N.ar    1  UNL1       -0.2418
     24 C         -13.7901   -2.1384   19.1577 C.ar    1  UNL1        0.1009
     25 C         -15.0584   -1.3724   19.3913 C.ar    1  UNL1        0.1102
     26 CL        -16.2617   -2.0682   19.9550 Cl      1  UNL1       -0.0775
     27 C         -11.2339   -5.0559   19.0171 C.3     1  UNL1        0.0466
     28 C          -9.7356   -5.0309   19.0825 C.3     1  UNL1        0.0069
     29 C         -11.9625   -6.3670   19.0073 C.3     1  UNL1        0.0069
@<TRIPOS>BOND
     1    11    12    1
     2    12    13    2
     3    12    14   am
     4    14     9    1
     5     9    10    1
     6     9     7    1
     7     7     8    2
     8     8     1    1
     9     1     2   ar
    10     2     3   ar
    11     3     4   ar
    12     4    16    1
    13    16    17    1
    14    17    18   ar
    15    18    19   ar
    16    19    20   ar
    17    20    21   ar
    18    21    22   ar
    19    22    27    1
    20    27    28    1
    21    27    29    1
    22    22    23   ar
    23    23    24   ar
    24    24    25   ar
    25    25    26    1
    26     4     5   ar
    27     5     6   ar
    28     6     1   ar
    29    25    17   ar
    30    24    20   ar
    31    14    15    1
@<TRIPOS>MOLECULE
*****
 29 31 0 0 0
SMALL
GASTEIGER

@<TRIPOS>ATOM
      1 C         -16.6499    2.8049   21.2502 C.ar    1  UNL1        0.0191
      2 C         -15.8463    2.7720   19.9839 C.ar    1  UNL1        0.0063
      3 C         -15.8488    1.5417   19.1259 C.ar    1  UNL1        0.0581
      4 C         -16.6548    0.3442   19.5339 C.ar    1  UNL1        0.2297
      5 N         -17.4583    0.3771   20.8001 N.ar    1  UNL1       -0.2098
      6 C         -17.4558    1.6075   21.6582 C.ar    1  UNL1        0.1020
      7 C         -16.1406    3.9652   23.5182 C.2     1  UNL1       -0.0069
      8 C         -16.6474    4.0352   22.1082 C.2     1  UNL1       -0.0014
      9 C         -16.1381    5.1955   24.3763 C.3     1  UNL1        0.0939
     10 C         -15.8045    6.5286   23.7749 C.3     1  UNL1        0.0262
     11 C         -15.7084    5.0762   28.3198 C.3     1  UNL1        0.0946
     12 C         -15.3772    5.1790   26.8604 C.2     1  UNL1        0.2232
     13 O         -13.9541    5.3679   26.4258 O.2     1  UNL1       -0.2751
     14 N         -16.4693    5.0928   25.8357 N.am    1  UNL1       -0.3022
     15 H         -17.4034    4.9688   26.1210 H       1  UNL1        0.1497
     16 O         -16.6572   -0.8861   18.6759 O.3     1  UNL1       -0.4352
     17 C         -15.6537   -1.9737   18.9214 C.ar    1  UNL1        0.1591
     18 C         -15.9525   -3.0604   19.9110 C.ar    1  UNL1        0.0390
     19 C         -14.9489   -4.1480   20.1565 C.ar    1  UNL1        0.0112
     20 C         -13.6466   -4.1486   19.4123 C.ar    1  UNL1        0.0492
     21 S         -12.4728   -5.0820   19.4443 S.2     1  UNL1       -0.0708
     22 C         -11.4485   -4.5719   18.4743 C.ar    1  UNL1        0.0878
     23 N         -11.9893   -3.3234   17.8429 N.ar    1  UNL1       -0.2418
     24 C         -13.3478   -3.0617   18.4226 C.ar    1  UNL1        0.1009
     25 C         -14.3513   -1.9743   18.1772 C.ar    1  UNL1        0.1102
     26 CL        -14.0525   -0.8874   17.1875 Cl      1  UNL1       -0.0775
     27 C         -10.1172   -5.2001   18.1863 C.3     1  UNL1        0.0466
     28 C          -9.2695   -4.6799   17.0635 C.3     1  UNL1        0.0069
     29 C          -9.6335   -6.3486   19.0212 C.3     1  UNL1        0.0069
@<TRIPOS>BOND
     1    11    12    1
     2    12    13    2
     3    12    14   am
     4    14     9    1
     5     9    10    1
     6     9     7    1
     7     7     8    2
     8     8     1    1
     9     1     2   ar
    10     2     3   ar
    11     3     4   ar
    12     4    16    1
    13    16    17    1
    14    17    18   ar
    15    18    19   ar
    16    19    20   ar
    17    20    21   ar
    18    21    22   ar
    19    22    27    1
    20    27    28    1
    21    27    29    1
    22    22    23   ar
    23    23    24   ar
    24    24    25   ar
    25    25    26    1
    26     4     5   ar
    27     5     6   ar
    28     6     1   ar
    29    25    17   ar
    30    24    20   ar
    31    14    15    1
@<TRIPOS>MOLECULE
*****
 29 31 0 0 0
SMALL
GASTEIGER

@<TRIPOS>ATOM
      1 C         -14.6678   -0.4734   18.9374 C.ar    1  UNL1        0.0191
      2 C         -15.8911   -0.4020   19.8026 C.ar    1  UNL1        0.0063
      3 C         -16.4499    0.9312   20.2028 C.ar    1  UNL1        0.0581
      4 C         -15.7854    2.1932   19.7380 C.ar    1  UNL1        0.2297
      5 N         -14.5621    2.1218   18.8729 N.ar    1  UNL1       -0.2098
      6 C         -14.0033    0.7884   18.4726 C.ar    1  UNL1        0.1020
      7 C         -13.0108   -2.4326   19.3447 C.2     1  UNL1       -0.0069
      8 C         -14.1090   -1.8066   18.5371 C.2     1  UNL1       -0.0014
      9 C         -12.4521   -3.7658   18.9444 C.3     1  UNL1        0.0939
     10 C         -12.8136   -4.9952   19.7242 C.3     1  UNL1        0.0262
     11 C          -9.1611   -4.2951   16.7906 C.3     1  UNL1        0.0946
     12 C         -10.0813   -4.1912   17.9706 C.2     1  UNL1        0.2232
     13 O          -9.5509   -4.4087   19.3568 O.2     1  UNL1       -0.2751
     14 N         -11.5319   -3.8698   17.7644 N.am    1  UNL1       -0.3022
     15 H         -11.8800   -3.7270   16.8546 H       1  UNL1        0.1497
     16 O         -16.3441    3.5264   20.1383 O.3     1  UNL1       -0.4352
     17 C         -16.0999    4.0578   21.5196 C.ar    1  UNL1        0.1591
     18 C         -14.7150    4.4556   21.9362 C.ar    1  UNL1        0.0390
     19 C         -14.4707    4.9870   23.3176 C.ar    1  UNL1        0.0112
     20 C         -15.6116    5.1205   24.2823 C.ar    1  UNL1        0.0492
     21 S         -15.6759    5.6085   25.6992 S.2     1  UNL1       -0.0708
     22 C         -17.1007    5.5123   26.1582 C.ar    1  UNL1        0.0878
     23 N         -17.9169    4.9648   25.0251 N.ar    1  UNL1       -0.2418
     24 C         -16.9966    4.7227   23.8656 C.ar    1  UNL1        0.1009
     25 C         -17.2407    4.1913   22.4843 C.ar    1  UNL1        0.1102
     26 CL        -18.6257    3.7935   22.0677 Cl      1  UNL1       -0.0775
     27 C         -17.6184    5.8962   27.5127 C.3     1  UNL1        0.0466
     28 C         -19.0089    6.4398   27.6578 C.3     1  UNL1        0.0069
     29 C         -16.7457    5.7364   28.7222 C.3     1  UNL1        0.0069
@<TRIPOS>BOND
     1    11    12    1
     2    12    13    2
     3    12    14   am
     4    14     9    1
     5     9    10    1
     6     9     7    1
     7     7     8    2
     8     8     1    1
     9     1     2   ar
    10     2     3   ar
    11     3     4   ar
    12     4    16    1
    13    16    17    1
    14    17    18   ar
    15    18    19   ar
    16    19    20   ar
    17    20    21   ar
    18    21    22   ar
    19    22    27    1
    20    27    28    1
    21    27    29    1
    22    22    23   ar
    23    23    24   ar
    24    24    25   ar
    25    25    26    1
    26     4     5   ar
    27     5     6   ar
    28     6     1   ar
    29    25    17   ar
    30    24    20   ar
    31    14    15    1
@<TRIPOS>MOLECULE
*****
 29 31 0 0 0
SMALL
GASTEIGER

@<TRIPOS>ATOM
      1 C           5.6167   -3.5261   23.1341 C.ar    1  UNL1        0.0191
      2 C           6.8392   -4.3900   23.2308 C.ar    1  UNL1        0.0063
      3 C           7.7316   -4.2948   24.4327 C.ar    1  UNL1        0.0581
      4 C           7.4017   -3.3358   25.5379 C.ar    1  UNL1        0.2297
      5 N           6.1792   -2.4719   25.4412 N.ar    1  UNL1       -0.2098
      6 C           5.2867   -2.5671   24.2392 C.ar    1  UNL1        0.1020
      7 C           5.3211   -3.7892   20.5664 C.2     1  UNL1       -0.0069
      8 C           4.7243   -3.6213   21.9323 C.2     1  UNL1       -0.0014
      9 C           4.4286   -3.8844   19.3646 C.3     1  UNL1        0.0939
     10 C           3.3480   -4.9236   19.3133 C.3     1  UNL1        0.0262
     11 C           4.1206   -0.6619   17.0689 C.3     1  UNL1        0.0946
     12 C           3.9324   -1.6057   18.2194 C.2     1  UNL1        0.2232
     13 O           3.0599   -1.2148   19.3752 O.2     1  UNL1       -0.2751
     14 N           4.6168   -2.9406   18.2140 N.am    1  UNL1       -0.3022
     15 H           5.1895   -3.1971   17.4554 H       1  UNL1        0.1497
     16 O           8.2941   -3.2406   26.7397 O.3     1  UNL1       -0.4352
     17 C           7.6991   -3.2311   28.1168 C.ar    1  UNL1        0.1591
     18 C           7.3880   -4.5252   28.8083 C.ar    1  UNL1        0.0390
     19 C           6.7931   -4.5158   30.1853 C.ar    1  UNL1        0.0112
     20 C           6.5093   -3.2121   30.8706 C.ar    1  UNL1        0.0492
     21 S           5.9306   -2.8909   32.2167 S.2     1  UNL1       -0.0708
     22 C           5.8841   -1.3983   32.3571 C.ar    1  UNL1        0.0878
     23 N           6.4340   -0.7968   31.0978 N.ar    1  UNL1       -0.2418
     24 C           6.8204   -1.9179   30.1790 C.ar    1  UNL1        0.1009
     25 C           7.4153   -1.9274   28.8021 C.ar    1  UNL1        0.1102
     26 CL          7.7264   -0.6332   28.1105 Cl      1  UNL1       -0.0775
     27 C           5.3768   -0.6400   33.5478 C.3     1  UNL1        0.0466
     28 C           3.9664   -0.1297   33.5667 C.3     1  UNL1        0.0069
     29 C           6.2798   -0.3921   34.7195 C.3     1  UNL1        0.0069
@<TRIPOS>BOND
     1    11    12    1
     2    12    13    2
     3    12    14   am
     4    14     9    1
     5     9    10    1
     6     9     7    1
     7     7     8    2
     8     8     1    1
     9     1     2   ar
    10     2     3   ar
    11     3     4   ar
    12     4    16    1
    13    16    17    1
    14    17    18   ar
    15    18    19   ar
    16    19    20   ar
    17    20    21   ar
    18    21    22   ar
    19    22    27    1
    20    27    28    1
    21    27    29    1
    22    22    23   ar
    23    23    24   ar
    24    24    25   ar
    25    25    26    1
    26     4     5   ar
    27     5     6   ar
    28     6     1   ar
    29    25    17   ar
    30    24    20   ar
    31    14    15    1
@<TRIPOS>MOLECULE
*****
 29 31 0 0 0
SMALL
GASTEIGER

@<TRIPOS>ATOM
      1 C           2.2858    1.9638   18.6007 C.ar    1  UNL1        0.0191
      2 C           3.7771    2.1058   18.5218 C.ar    1  UNL1        0.0063
      3 C           4.6242    0.9253   18.1495 C.ar    1  UNL1        0.0581
      4 C           3.9802   -0.3973   17.8561 C.ar    1  UNL1        0.2297
      5 N           2.4890   -0.5393   17.9350 N.ar    1  UNL1       -0.2098
      6 C           1.6418    0.6413   18.3073 C.ar    1  UNL1        0.1020
      7 C          -0.0392    3.1173   18.7179 C.2     1  UNL1       -0.0069
      8 C           1.4387    3.1444   18.9730 C.2     1  UNL1       -0.0014
      9 C          -0.8863    4.2979   19.0902 C.3     1  UNL1        0.0939
     10 C          -0.2661    5.4799   19.7746 C.3     1  UNL1        0.0262
     11 C          -4.7764    3.5597   19.3582 C.3     1  UNL1        0.0946
     12 C          -3.3092    3.5612   19.6703 C.2     1  UNL1        0.2232
     13 O          -2.7979    2.8273   20.8744 O.2     1  UNL1       -0.2751
     14 N          -2.3535    4.2965   18.7781 N.am    1  UNL1       -0.3022
     15 H          -2.6891    4.7781   17.9878 H       1  UNL1        0.1497
     16 O           4.8273   -1.5779   17.4838 O.3     1  UNL1       -0.4352
     17 C           5.8097   -2.1368   18.4700 C.ar    1  UNL1        0.1591
     18 C           7.2795   -1.9094   18.2755 C.ar    1  UNL1        0.0390
     19 C           8.2619   -2.4683   19.2617 C.ar    1  UNL1        0.0112
     20 C           7.7744   -3.2547   20.4424 C.ar    1  UNL1        0.0492
     21 S           8.5004   -3.9231   21.5720 S.2     1  UNL1       -0.0708
     22 C           7.4792   -4.5636   22.4647 C.ar    1  UNL1        0.0878
     23 N           6.1221   -4.2911   21.8867 N.ar    1  UNL1       -0.2418
     24 C           6.3046   -3.4821   20.6368 C.ar    1  UNL1        0.1009
     25 C           5.3222   -2.9232   19.6506 C.ar    1  UNL1        0.1102
     26 CL          3.8523   -3.1506   19.8451 Cl      1  UNL1       -0.0775
     27 C           7.7649   -5.3403   23.7157 C.3     1  UNL1        0.0466
     28 C           7.3312   -4.8033   25.0475 C.3     1  UNL1        0.0069
     29 C           8.4842   -6.6541   23.6351 C.3     1  UNL1        0.0069
@<TRIPOS>BOND
     1    11    12    1
     2    12    13    2
     3    12    14   am
     4    14     9    1
     5     9    10    1
     6     9     7    1
     7     7     8    2
     8     8     1    1
     9     1     2   ar
    10     2     3   ar
    11     3     4   ar
    12     4    16    1
    13    16    17    1
    14    17    18   ar
    15    18    19   ar
    16    19    20   ar
    17    20    21   ar
    18    21    22   ar
    19    22    27    1
    20    27    28    1
    21    27    29    1
    22    22    23   ar
    23    23    24   ar
    24    24    25   ar
    25    25    26    1
    26     4     5   ar
    27     5     6   ar
    28     6     1   ar
    29    25    17   ar
    30    24    20   ar
    31    14    15    1
