@<TRIPOS>MOLECULE
*****
 28 32 0 0 0
SMALL
GASTEIGER

@<TRIPOS>ATOM
      1 C          -5.2331  -15.9769   24.2782 C.ar    1  UNL1        0.1391
      2 C          -5.2920  -15.5311   25.7094 C.ar    1  UNL1        0.0369
      3 C          -6.6124  -15.4536   26.4169 C.ar    1  UNL1        0.0032
      4 C          -7.8737  -15.8217   25.6934 C.ar    1  UNL1        0.0017
      5 C          -7.8148  -16.2674   24.2624 C.ar    1  UNL1        0.0222
      6 C          -6.4944  -16.3450   23.5548 C.ar    1  UNL1        0.0385
      7 C          -9.0761  -16.6356   23.5390 C.ar    1  UNL1        0.1010
      8 N         -10.4307  -16.0323   23.7655 N.ar    1  UNL1       -0.2205
      9 C         -11.3961  -16.6955   22.8285 C.ar    1  UNL1        0.1795
     10 S         -12.8300  -16.7325   22.3894 S.2     1  UNL1       -0.0480
     11 C         -12.9583  -17.7686   21.3123 C.ar    1  UNL1        0.0573
     12 C         -11.6037  -18.3719   21.0857 C.ar    1  UNL1        0.0890
     13 N         -10.6383  -17.7087   22.0227 N.ar    1  UNL1       -0.2818
     14 C          -9.2045  -17.6716   22.4618 C.ar    1  UNL1        0.1011
     15 C          -8.0939  -18.5214   21.9190 C.ar    1  UNL1        0.1022
     16 C          -7.7073  -19.7889   22.6220 C.ar    1  UNL1        0.0414
     17 C          -6.5967  -20.6387   22.0792 C.ar    1  UNL1        0.1023
     18 N          -5.8729  -20.2210   20.8335 N.ar    1  UNL1       -0.2224
     19 C          -6.2596  -18.9536   20.1307 C.ar    1  UNL1        0.1989
     20 N          -7.3701  -18.1038   20.6734 N.ar    1  UNL1       -0.2224
     21 O          -3.9127  -16.0544   23.5707 O.3     1  UNL1       -0.4706
     22 C          -3.2700  -17.3875   23.3261 C.3     1  UNL1        0.2320
     23 C          -0.9106  -18.0908   19.5594 C.ar    1  UNL1       -0.0000
     24 C          -1.7350  -19.1982   20.1457 C.ar    1  UNL1       -0.0002
     25 C          -2.5215  -18.9638   21.4014 C.ar    1  UNL1       -0.0007
     26 C          -2.4836  -17.6219   22.0706 C.ar    1  UNL1        0.0212
     27 C          -1.6592  -16.5144   21.4842 C.ar    1  UNL1       -0.0007
     28 C          -0.8727  -16.7488   20.2287 C.ar    1  UNL1       -0.0002
@<TRIPOS>BOND
     1    23    24   ar
     2    24    25   ar
     3    25    26   ar
     4    26    22    1
     5    22    21    1
     6    21     1    1
     7     1     2   ar
     8     2     3   ar
     9     3     4   ar
    10     4     5   ar
    11     5     7    1
    12     7     8   ar
    13     8     9   ar
    14     9    10   ar
    15    10    11   ar
    16    11    12   ar
    17    12    13   ar
    18    13    14   ar
    19    14    15    1
    20    15    16   ar
    21    16    17   ar
    22    17    18   ar
    23    18    19   ar
    24    19    20   ar
    25     5     6   ar
    26    26    27   ar
    27    27    28   ar
    28    28    23   ar
    29     6     1   ar
    30    14     7   ar
    31    20    15   ar
    32    13     9   ar
@<TRIPOS>MOLECULE
*****
 28 32 0 0 0
SMALL
GASTEIGER

@<TRIPOS>ATOM
      1 C          -6.8901  -19.8535   20.0153 C.ar    1  UNL1        0.1391
      2 C          -8.1977  -19.8078   19.2816 C.ar    1  UNL1        0.0369
      3 C          -9.3130  -18.9429   19.7897 C.ar    1  UNL1        0.0032
      4 C          -9.1206  -18.1237   21.0315 C.ar    1  UNL1        0.0017
      5 C          -7.8131  -18.1694   21.7652 C.ar    1  UNL1        0.0222
      6 C          -6.6978  -19.0344   21.2570 C.ar    1  UNL1        0.0385
      7 C          -7.6207  -17.3503   23.0068 C.ar    1  UNL1        0.1010
      8 N          -6.3172  -16.8049   23.5103 N.ar    1  UNL1       -0.2205
      9 C          -6.5890  -16.0502   24.7778 C.ar    1  UNL1        0.1795
     10 S          -5.9513  -15.2467   25.8722 S.2     1  UNL1       -0.0480
     11 C          -7.0288  -14.8290   26.8285 C.ar    1  UNL1        0.0573
     12 C          -8.3324  -15.3742   26.3251 C.ar    1  UNL1        0.0890
     13 N          -8.0606  -16.1290   25.0576 N.ar    1  UNL1       -0.2818
     14 C          -8.6982  -16.9325   23.9632 C.ar    1  UNL1        0.1011
     15 C         -10.1572  -17.2606   23.8457 C.ar    1  UNL1        0.1022
     16 C         -10.7178  -18.4532   24.5622 C.ar    1  UNL1        0.0414
     17 C         -12.1768  -18.7813   24.4447 C.ar    1  UNL1        0.1023
     18 N         -13.0751  -17.9167   23.6107 N.ar    1  UNL1       -0.2224
     19 C         -12.5145  -16.7242   22.8942 C.ar    1  UNL1        0.1989
     20 N         -11.0555  -16.3961   23.0117 N.ar    1  UNL1       -0.2224
     21 O          -5.7749  -20.7185   19.5071 O.3     1  UNL1       -0.4706
     22 C          -4.5304  -20.8954   20.3257 C.3     1  UNL1        0.2320
     23 C          -1.4330  -17.6333   20.4445 C.ar    1  UNL1       -0.0000
     24 C          -1.7158  -18.4441   21.6743 C.ar    1  UNL1       -0.0002
     25 C          -2.7483  -19.5315   21.6348 C.ar    1  UNL1       -0.0007
     26 C          -3.4979  -19.8080   20.3653 C.ar    1  UNL1        0.0212
     27 C          -3.2151  -18.9972   19.1354 C.ar    1  UNL1       -0.0007
     28 C          -2.1827  -17.9098   19.1750 C.ar    1  UNL1       -0.0002
@<TRIPOS>BOND
     1    23    24   ar
     2    24    25   ar
     3    25    26   ar
     4    26    22    1
     5    22    21    1
     6    21     1    1
     7     1     2   ar
     8     2     3   ar
     9     3     4   ar
    10     4     5   ar
    11     5     7    1
    12     7     8   ar
    13     8     9   ar
    14     9    10   ar
    15    10    11   ar
    16    11    12   ar
    17    12    13   ar
    18    13    14   ar
    19    14    15    1
    20    15    16   ar
    21    16    17   ar
    22    17    18   ar
    23    18    19   ar
    24    19    20   ar
    25     5     6   ar
    26    26    27   ar
    27    27    28   ar
    28    28    23   ar
    29     6     1   ar
    30    14     7   ar
    31    20    15   ar
    32    13     9   ar
@<TRIPOS>MOLECULE
*****
 28 32 0 0 0
SMALL
GASTEIGER

@<TRIPOS>ATOM
      1 C          -9.2475  -20.0975   22.7866 C.ar    1  UNL1        0.1391
      2 C         -10.1149  -20.0052   21.5662 C.ar    1  UNL1        0.0369
      3 C          -9.5121  -19.6327   20.2441 C.ar    1  UNL1        0.0032
      4 C          -8.0420  -19.3524   20.1425 C.ar    1  UNL1        0.0017
      5 C          -7.1747  -19.4447   21.3628 C.ar    1  UNL1        0.0222
      6 C          -7.7776  -19.8172   22.6849 C.ar    1  UNL1        0.0385
      7 C          -5.7047  -19.1644   21.2611 C.ar    1  UNL1        0.1010
      8 N          -4.7203  -19.9157   20.4146 N.ar    1  UNL1       -0.2205
      9 C          -3.3682  -19.2992   20.6184 C.ar    1  UNL1        0.1795
     10 S          -1.9241  -19.3826   20.2211 S.2     1  UNL1       -0.0480
     11 C          -1.1803  -18.3017   20.9481 C.ar    1  UNL1        0.0573
     12 C          -2.1646  -17.5504   21.7946 C.ar    1  UNL1        0.0890
     13 N          -3.5168  -18.1669   21.5909 N.ar    1  UNL1       -0.2818
     14 C          -4.9608  -18.0835   21.9881 C.ar    1  UNL1        0.1011
     15 C          -5.5565  -17.0932   22.9444 C.ar    1  UNL1        0.1022
     16 C          -4.8246  -16.7325   24.2031 C.ar    1  UNL1        0.0414
     17 C          -5.4202  -15.7422   25.1594 C.ar    1  UNL1        0.1023
     18 N          -6.7477  -15.1126   24.8570 N.ar    1  UNL1       -0.2224
     19 C          -7.4795  -15.4733   23.5984 C.ar    1  UNL1        0.1989
     20 N          -6.8839  -16.4636   22.6420 N.ar    1  UNL1       -0.2224
     21 O          -9.8504  -20.4700   24.1087 O.3     1  UNL1       -0.4706
     22 C         -10.7105  -19.4858   24.8447 C.3     1  UNL1        0.2320
     23 C         -12.5697  -16.0321   22.6392 C.ar    1  UNL1       -0.0000
     24 C         -13.4138  -17.2027   23.0477 C.ar    1  UNL1       -0.0002
     25 C         -12.7941  -18.3540   23.7829 C.ar    1  UNL1       -0.0007
     26 C         -11.3302  -18.3346   24.1095 C.ar    1  UNL1        0.0212
     27 C         -10.4860  -17.1639   23.7010 C.ar    1  UNL1       -0.0007
     28 C         -11.1058  -16.0126   22.9658 C.ar    1  UNL1       -0.0002
@<TRIPOS>BOND
     1    23    24   ar
     2    24    25   ar
     3    25    26   ar
     4    26    22    1
     5    22    21    1
     6    21     1    1
     7     1     2   ar
     8     2     3   ar
     9     3     4   ar
    10     4     5   ar
    11     5     7    1
    12     7     8   ar
    13     8     9   ar
    14     9    10   ar
    15    10    11   ar
    16    11    12   ar
    17    12    13   ar
    18    13    14   ar
    19    14    15    1
    20    15    16   ar
    21    16    17   ar
    22    17    18   ar
    23    18    19   ar
    24    19    20   ar
    25     5     6   ar
    26    26    27   ar
    27    27    28   ar
    28    28    23   ar
    29     6     1   ar
    30    14     7   ar
    31    20    15   ar
    32    13     9   ar
@<TRIPOS>MOLECULE
*****
 28 32 0 0 0
SMALL
GASTEIGER

@<TRIPOS>ATOM
      1 C          -9.6549  -17.7187   23.6699 C.ar    1  UNL1        0.1391
      2 C         -10.2791  -19.0277   24.0532 C.ar    1  UNL1        0.0369
      3 C          -9.5701  -20.3142   23.7494 C.ar    1  UNL1        0.0032
      4 C          -8.2368  -20.2916   23.0623 C.ar    1  UNL1        0.0017
      5 C          -7.6127  -18.9826   22.6790 C.ar    1  UNL1        0.0222
      6 C          -8.3218  -17.6961   22.9828 C.ar    1  UNL1        0.0385
      7 C          -6.2795  -18.9601   21.9920 C.ar    1  UNL1        0.1010
      8 N          -5.0076  -18.3972   22.5535 N.ar    1  UNL1       -0.2205
      9 C          -3.9261  -18.5857   21.5313 C.ar    1  UNL1        0.1795
     10 S          -2.4717  -18.3543   21.2467 S.2     1  UNL1       -0.0480
     11 C          -2.1764  -18.8907   19.8774 C.ar    1  UNL1        0.0573
     12 C          -3.4482  -19.4537   19.3157 C.ar    1  UNL1        0.0890
     13 N          -4.5297  -19.2651   20.3380 N.ar    1  UNL1       -0.2818
     14 C          -5.9841  -19.4966   20.6226 C.ar    1  UNL1        0.1011
     15 C          -6.9701  -20.1497   19.7000 C.ar    1  UNL1        0.1022
     16 C          -6.7515  -21.5632   19.2477 C.ar    1  UNL1        0.0414
     17 C          -7.7375  -22.2163   18.3251 C.ar    1  UNL1        0.1023
     18 N          -8.9420  -21.4560   17.8547 N.ar    1  UNL1       -0.2224
     19 C          -9.1605  -20.0427   18.3070 C.ar    1  UNL1        0.1989
     20 N          -8.1746  -19.3895   19.2296 N.ar    1  UNL1       -0.2224
     21 O         -10.3640  -16.4322   23.9736 O.3     1  UNL1       -0.4706
     22 C          -9.5770  -15.2157   24.3621 C.3     1  UNL1        0.2320
     23 C          -5.8091  -15.6522   26.7833 C.ar    1  UNL1       -0.0000
     24 C          -7.1387  -15.9670   27.4019 C.ar    1  UNL1       -0.0002
     25 C          -8.3948  -15.8216   26.5949 C.ar    1  UNL1       -0.0007
     26 C          -8.3210  -15.3612   25.1692 C.ar    1  UNL1        0.0212
     27 C          -6.9913  -15.0463   24.5504 C.ar    1  UNL1       -0.0007
     28 C          -5.7354  -15.1918   25.3575 C.ar    1  UNL1       -0.0002
@<TRIPOS>BOND
     1    23    24   ar
     2    24    25   ar
     3    25    26   ar
     4    26    22    1
     5    22    21    1
     6    21     1    1
     7     1     2   ar
     8     2     3   ar
     9     3     4   ar
    10     4     5   ar
    11     5     7    1
    12     7     8   ar
    13     8     9   ar
    14     9    10   ar
    15    10    11   ar
    16    11    12   ar
    17    12    13   ar
    18    13    14   ar
    19    14    15    1
    20    15    16   ar
    21    16    17   ar
    22    17    18   ar
    23    18    19   ar
    24    19    20   ar
    25     5     6   ar
    26    26    27   ar
    27    27    28   ar
    28    28    23   ar
    29     6     1   ar
    30    14     7   ar
    31    20    15   ar
    32    13     9   ar
@<TRIPOS>MOLECULE
*****
 28 32 0 0 0
SMALL
GASTEIGER

@<TRIPOS>ATOM
      1 C          -9.6625  -19.6310   20.6902 C.ar    1  UNL1        0.1391
      2 C         -10.2650  -20.1066   21.9790 C.ar    1  UNL1        0.0369
      3 C          -9.3955  -20.3061   23.1848 C.ar    1  UNL1        0.0032
      4 C          -7.9234  -20.0300   23.1019 C.ar    1  UNL1        0.0017
      5 C          -7.3209  -19.5543   21.8132 C.ar    1  UNL1        0.0222
      6 C          -8.1906  -19.3548   20.6073 C.ar    1  UNL1        0.0385
      7 C          -5.8490  -19.2782   21.7303 C.ar    1  UNL1        0.1010
      8 N          -4.8311  -20.1258   21.0262 N.ar    1  UNL1       -0.2205
      9 C          -3.4894  -19.4774   21.1977 C.ar    1  UNL1        0.1795
     10 S          -2.0312  -19.6005   20.8685 S.2     1  UNL1       -0.0480
     11 C          -1.3185  -18.4284   21.4752 C.ar    1  UNL1        0.0573
     12 C          -2.3363  -17.5808   22.1793 C.ar    1  UNL1        0.0890
     13 N          -3.6780  -18.2291   22.0078 N.ar    1  UNL1       -0.2818
     14 C          -5.1362  -18.1060   22.3370 C.ar    1  UNL1        0.1011
     15 C          -5.7704  -17.0042   23.1331 C.ar    1  UNL1        0.1022
     16 C          -5.0649  -16.4435   24.3323 C.ar    1  UNL1        0.0414
     17 C          -5.6992  -15.3417   25.1284 C.ar    1  UNL1        0.1023
     18 N          -7.0388  -14.8005   24.7252 N.ar    1  UNL1       -0.2224
     19 C          -7.7442  -15.3611   23.5260 C.ar    1  UNL1        0.1989
     20 N          -7.1100  -16.4630   22.7300 N.ar    1  UNL1       -0.2224
     21 O         -10.5322  -19.4315   19.4843 O.3     1  UNL1       -0.4706
     22 C         -11.4607  -18.2554   19.4156 C.3     1  UNL1        0.2320
     23 C         -12.3410  -15.8642   23.1247 C.ar    1  UNL1       -0.0000
     24 C         -11.1800  -15.4926   22.2508 C.ar    1  UNL1       -0.0002
     25 C         -10.8865  -16.2897   21.0144 C.ar    1  UNL1       -0.0007
     26 C         -11.7542  -17.4584   20.6520 C.ar    1  UNL1        0.0212
     27 C         -12.9153  -17.8301   21.5259 C.ar    1  UNL1       -0.0007
     28 C         -13.2087  -17.0330   22.7622 C.ar    1  UNL1       -0.0002
@<TRIPOS>BOND
     1    23    24   ar
     2    24    25   ar
     3    25    26   ar
     4    26    22    1
     5    22    21    1
     6    21     1    1
     7     1     2   ar
     8     2     3   ar
     9     3     4   ar
    10     4     5   ar
    11     5     7    1
    12     7     8   ar
    13     8     9   ar
    14     9    10   ar
    15    10    11   ar
    16    11    12   ar
    17    12    13   ar
    18    13    14   ar
    19    14    15    1
    20    15    16   ar
    21    16    17   ar
    22    17    18   ar
    23    18    19   ar
    24    19    20   ar
    25     5     6   ar
    26    26    27   ar
    27    27    28   ar
    28    28    23   ar
    29     6     1   ar
    30    14     7   ar
    31    20    15   ar
    32    13     9   ar
@<TRIPOS>MOLECULE
*****
 28 32 0 0 0
SMALL
GASTEIGER

@<TRIPOS>ATOM
      1 C         -11.4815   -6.8918   17.6767 C.ar    1  UNL1        0.1391
      2 C         -10.3055   -7.2013   18.5550 C.ar    1  UNL1        0.0369
      3 C          -9.5271   -6.0856   19.1869 C.ar    1  UNL1        0.0032
      4 C          -9.9248   -4.6604   18.9406 C.ar    1  UNL1        0.0017
      5 C         -11.1007   -4.3508   18.0623 C.ar    1  UNL1        0.0222
      6 C         -11.8791   -5.4666   17.4304 C.ar    1  UNL1        0.0385
      7 C         -11.4983   -2.9257   17.8160 C.ar    1  UNL1        0.1010
      8 N         -10.6771   -1.8916   17.1044 N.ar    1  UNL1       -0.2205
      9 C         -11.4582   -0.6111   17.0866 C.ar    1  UNL1        0.1795
     10 S         -11.4334    0.8193   16.6359 S.2     1  UNL1       -0.0480
     11 C         -12.7220    1.4607   17.0579 C.ar    1  UNL1        0.0573
     12 C         -13.5432    0.4266   17.7694 C.ar    1  UNL1        0.0890
     13 N         -12.7621   -0.8538   17.7872 N.ar    1  UNL1       -0.2818
     14 C         -12.7870   -2.2843   18.2380 C.ar    1  UNL1        0.1011
     15 C         -13.9042   -2.9555   18.9804 C.ar    1  UNL1        0.1022
     16 C         -13.6523   -3.5566   20.3315 C.ar    1  UNL1        0.0414
     17 C         -14.7695   -4.2278   21.0739 C.ar    1  UNL1        0.1023
     18 N         -16.1388   -4.2979   20.4653 N.ar    1  UNL1       -0.2224
     19 C         -16.3907   -3.6969   19.1143 C.ar    1  UNL1        0.1989
     20 N         -15.2734   -3.0256   18.3719 N.ar    1  UNL1       -0.2224
     21 O         -12.2599   -8.0076   17.0448 O.3     1  UNL1       -0.4706
     22 C         -13.7132   -7.8204   16.7244 C.3     1  UNL1        0.2320
     23 C         -16.8537   -9.1457   19.6622 C.ar    1  UNL1       -0.0000
     24 C         -16.3657   -7.7274   19.6749 C.ar    1  UNL1       -0.0002
     25 C         -15.3189   -7.2856   18.6956 C.ar    1  UNL1       -0.0007
     26 C         -14.7601   -8.2622   17.7037 C.ar    1  UNL1        0.0212
     27 C         -15.2481   -9.6806   17.6909 C.ar    1  UNL1       -0.0007
     28 C         -16.2949  -10.1223   18.6702 C.ar    1  UNL1       -0.0002
@<TRIPOS>BOND
     1    23    24   ar
     2    24    25   ar
     3    25    26   ar
     4    26    22    1
     5    22    21    1
     6    21     1    1
     7     1     2   ar
     8     2     3   ar
     9     3     4   ar
    10     4     5   ar
    11     5     7    1
    12     7     8   ar
    13     8     9   ar
    14     9    10   ar
    15    10    11   ar
    16    11    12   ar
    17    12    13   ar
    18    13    14   ar
    19    14    15    1
    20    15    16   ar
    21    16    17   ar
    22    17    18   ar
    23    18    19   ar
    24    19    20   ar
    25     5     6   ar
    26    26    27   ar
    27    27    28   ar
    28    28    23   ar
    29     6     1   ar
    30    14     7   ar
    31    20    15   ar
    32    13     9   ar
@<TRIPOS>MOLECULE
*****
 28 32 0 0 0
SMALL
GASTEIGER

@<TRIPOS>ATOM
      1 C          -8.8764  -18.4589   22.0698 C.ar    1  UNL1        0.1391
      2 C          -9.1044  -19.8229   22.6510 C.ar    1  UNL1        0.0369
      3 C          -7.9610  -20.7858   22.7755 C.ar    1  UNL1        0.0032
      4 C          -6.5896  -20.3846   22.3187 C.ar    1  UNL1        0.0017
      5 C          -6.3617  -19.0207   21.7375 C.ar    1  UNL1        0.0222
      6 C          -7.5052  -18.0579   21.6131 C.ar    1  UNL1        0.0385
      7 C          -4.9904  -18.6197   21.2808 C.ar    1  UNL1        0.1010
      8 N          -4.3745  -18.9416   19.9515 N.ar    1  UNL1       -0.2205
      9 C          -2.9976  -18.3471   19.9223 C.ar    1  UNL1        0.1795
     10 S          -1.7661  -18.1787   19.0827 S.2     1  UNL1       -0.0480
     11 C          -0.7699  -17.3853   19.8752 C.ar    1  UNL1        0.0573
     12 C          -1.3857  -17.0634   21.2045 C.ar    1  UNL1        0.0890
     13 N          -2.7625  -17.6578   21.2337 N.ar    1  UNL1       -0.2818
     14 C          -3.9941  -17.8263   22.0733 C.ar    1  UNL1        0.1011
     15 C          -4.1942  -17.2946   23.4616 C.ar    1  UNL1        0.1022
     16 C          -4.9741  -16.0313   23.6757 C.ar    1  UNL1        0.0414
     17 C          -5.1743  -15.4997   25.0640 C.ar    1  UNL1        0.1023
     18 N          -4.5945  -16.2314   26.2381 N.ar    1  UNL1       -0.2224
     19 C          -3.8146  -17.4946   26.0240 C.ar    1  UNL1        0.1989
     20 N          -3.6145  -18.0263   24.6357 N.ar    1  UNL1       -0.2224
     21 O         -10.0199  -17.4960   21.9453 O.3     1  UNL1       -0.4706
     22 C         -10.1232  -16.3293   22.8823 C.3     1  UNL1        0.2320
     23 C          -8.5071  -16.6562   27.0693 C.ar    1  UNL1       -0.0000
     24 C          -9.2613  -17.8032   26.4649 C.ar    1  UNL1       -0.0002
     25 C          -9.8000  -17.6943   25.0691 C.ar    1  UNL1       -0.0007
     26 C          -9.5845  -16.4382   24.2780 C.ar    1  UNL1        0.0212
     27 C          -8.8303  -15.2911   24.8825 C.ar    1  UNL1       -0.0007
     28 C          -8.2916  -15.4001   26.2781 C.ar    1  UNL1       -0.0002
@<TRIPOS>BOND
     1    23    24   ar
     2    24    25   ar
     3    25    26   ar
     4    26    22    1
     5    22    21    1
     6    21     1    1
     7     1     2   ar
     8     2     3   ar
     9     3     4   ar
    10     4     5   ar
    11     5     7    1
    12     7     8   ar
    13     8     9   ar
    14     9    10   ar
    15    10    11   ar
    16    11    12   ar
    17    12    13   ar
    18    13    14   ar
    19    14    15    1
    20    15    16   ar
    21    16    17   ar
    22    17    18   ar
    23    18    19   ar
    24    19    20   ar
    25     5     6   ar
    26    26    27   ar
    27    27    28   ar
    28    28    23   ar
    29     6     1   ar
    30    14     7   ar
    31    20    15   ar
    32    13     9   ar
@<TRIPOS>MOLECULE
*****
 28 32 0 0 0
SMALL
GASTEIGER

@<TRIPOS>ATOM
      1 C         -14.5786   -7.4417   17.1685 C.ar    1  UNL1        0.1391
      2 C         -14.6249   -8.7159   17.9587 C.ar    1  UNL1        0.0369
      3 C         -15.5580   -8.8407   19.1266 C.ar    1  UNL1        0.0032
      4 C         -16.4447   -7.6912   19.5041 C.ar    1  UNL1        0.0017
      5 C         -16.3984   -6.4171   18.7139 C.ar    1  UNL1        0.0222
      6 C         -15.4653   -6.2924   17.5460 C.ar    1  UNL1        0.0385
      7 C         -17.2851   -5.2678   19.0915 C.ar    1  UNL1        0.1010
      8 N         -18.7771   -5.3166   19.2389 N.ar    1  UNL1       -0.2205
      9 C         -19.2497   -3.9467   19.6265 C.ar    1  UNL1        0.1795
     10 S         -20.4638   -3.1303   19.9572 S.2     1  UNL1       -0.0480
     11 C         -20.0143   -1.7303   20.2537 C.ar    1  UNL1        0.0573
     12 C         -18.5223   -1.6815   20.1063 C.ar    1  UNL1        0.0890
     13 N         -18.0498   -3.0513   19.7187 N.ar    1  UNL1       -0.2818
     14 C         -16.8356   -3.8677   19.3880 C.ar    1  UNL1        0.1011
     15 C         -15.4205   -3.3713   19.3590 C.ar    1  UNL1        0.1022
     16 C         -14.4995   -3.6635   20.5064 C.ar    1  UNL1        0.0414
     17 C         -13.0843   -3.1670   20.4773 C.ar    1  UNL1        0.1023
     18 N         -12.5901   -2.3784   19.3009 N.ar    1  UNL1       -0.2224
     19 C         -13.5111   -2.0863   18.1535 C.ar    1  UNL1        0.1989
     20 N         -14.9263   -2.5827   18.1826 N.ar    1  UNL1       -0.2224
     21 O         -13.6455   -7.3170   16.0006 O.3     1  UNL1       -0.4706
     22 C         -12.2148   -7.7472   16.1345 C.3     1  UNL1        0.2320
     23 C          -9.5623   -5.8120   19.2118 C.ar    1  UNL1       -0.0000
     24 C         -10.5368   -4.9802   18.4320 C.ar    1  UNL1       -0.0002
     25 C         -11.4211   -5.6252   17.4062 C.ar    1  UNL1       -0.0007
     26 C         -11.3306   -7.1021   17.1603 C.ar    1  UNL1        0.0212
     27 C         -10.3561   -7.9341   17.9401 C.ar    1  UNL1       -0.0007
     28 C          -9.4719   -7.2891   18.9659 C.ar    1  UNL1       -0.0002
@<TRIPOS>BOND
     1    23    24   ar
     2    24    25   ar
     3    25    26   ar
     4    26    22    1
     5    22    21    1
     6    21     1    1
     7     1     2   ar
     8     2     3   ar
     9     3     4   ar
    10     4     5   ar
    11     5     7    1
    12     7     8   ar
    13     8     9   ar
    14     9    10   ar
    15    10    11   ar
    16    11    12   ar
    17    12    13   ar
    18    13    14   ar
    19    14    15    1
    20    15    16   ar
    21    16    17   ar
    22    17    18   ar
    23    18    19   ar
    24    19    20   ar
    25     5     6   ar
    26    26    27   ar
    27    27    28   ar
    28    28    23   ar
    29     6     1   ar
    30    14     7   ar
    31    20    15   ar
    32    13     9   ar
@<TRIPOS>MOLECULE
*****
 28 32 0 0 0
SMALL
GASTEIGER

@<TRIPOS>ATOM
      1 C           6.4447   -2.8411   19.0612 C.ar    1  UNL1        0.1391
      2 C           7.7127   -2.1608   18.6373 C.ar    1  UNL1        0.0369
      3 C           8.9416   -2.2657   19.4910 C.ar    1  UNL1        0.0032
      4 C           8.9025   -3.0509   20.7685 C.ar    1  UNL1        0.0017
      5 C           7.6346   -3.7311   21.1924 C.ar    1  UNL1        0.0222
      6 C           6.4057   -3.6261   20.3387 C.ar    1  UNL1        0.0385
      7 C           7.5956   -4.5162   22.4698 C.ar    1  UNL1        0.1010
      8 N           8.2199   -5.8609   22.6978 N.ar    1  UNL1       -0.2205
      9 C           7.9356   -6.2703   24.1125 C.ar    1  UNL1        0.1795
     10 S           8.1457   -7.3543   25.1277 S.2     1  UNL1       -0.0480
     11 C           7.4755   -6.9325   26.4017 C.ar    1  UNL1        0.0573
     12 C           6.8513   -5.5877   26.1739 C.ar    1  UNL1        0.0890
     13 N           7.1356   -5.1784   24.7591 N.ar    1  UNL1       -0.2818
     14 C           6.9255   -4.0944   23.7439 C.ar    1  UNL1        0.1011
     15 C           6.1767   -2.8134   23.9640 C.ar    1  UNL1        0.1022
     16 C           4.7410   -2.7022   23.5439 C.ar    1  UNL1        0.0414
     17 C           3.9922   -1.4212   23.7640 C.ar    1  UNL1        0.1023
     18 N           4.6791   -0.2514   24.4042 N.ar    1  UNL1       -0.2224
     19 C           6.1148   -0.3627   24.8243 C.ar    1  UNL1        0.1989
     20 N           6.8635   -1.6437   24.6042 N.ar    1  UNL1       -0.2224
     21 O           5.2158   -2.7361   18.2075 O.3     1  UNL1       -0.4706
     22 C           4.6669   -1.3879   17.8456 C.3     1  UNL1        0.2320
     23 C           0.9516    0.1460   19.8688 C.ar    1  UNL1       -0.0000
     24 C           1.7598   -0.9427   20.5102 C.ar    1  UNL1       -0.0002
     25 C           2.9983   -1.4540   19.8358 C.ar    1  UNL1       -0.0007
     26 C           3.4285   -0.8766   18.5200 C.ar    1  UNL1        0.0212
     27 C           2.6203    0.2122   17.8785 C.ar    1  UNL1       -0.0007
     28 C           1.3819    0.7234   18.5529 C.ar    1  UNL1       -0.0002
@<TRIPOS>BOND
     1    23    24   ar
     2    24    25   ar
     3    25    26   ar
     4    26    22    1
     5    22    21    1
     6    21     1    1
     7     1     2   ar
     8     2     3   ar
     9     3     4   ar
    10     4     5   ar
    11     5     7    1
    12     7     8   ar
    13     8     9   ar
    14     9    10   ar
    15    10    11   ar
    16    11    12   ar
    17    12    13   ar
    18    13    14   ar
    19    14    15    1
    20    15    16   ar
    21    16    17   ar
    22    17    18   ar
    23    18    19   ar
    24    19    20   ar
    25     5     6   ar
    26    26    27   ar
    27    27    28   ar
    28    28    23   ar
    29     6     1   ar
    30    14     7   ar
    31    20    15   ar
    32    13     9   ar
