@<TRIPOS>MOLECULE
*****
 33 36 0 0 0
SMALL
GASTEIGER

@<TRIPOS>ATOM
      1 C           0.7168    2.3790   22.5855 C.3     1  UNL1        0.0892
      2 C          -0.1330    3.4413   21.9535 C.3     1  UNL1        0.0383
      3 C          -0.9955    4.0424   23.0234 C.3     1  UNL1        0.0742
      4 N          -0.6788    3.3517   24.3167 N.3     1  UNL1       -0.2675
      5 C           0.3795    2.3237   24.0461 C.3     1  UNL1        0.0922
      6 O          -0.1940    0.2090   20.7249 O.2     1  UNL1       -0.2701
      7 C           1.2713    0.4376   20.9505 C.2     1  UNL1        0.2459
      8 N           1.7267    1.5226   21.8808 N.am    1  UNL1       -0.3011
      9 H           2.6884    1.6725   22.0288 H       1  UNL1        0.1497
     10 C           2.2811   -0.4190   20.2457 C.ar    1  UNL1        0.0542
     11 C           2.9767   -1.5221   20.9867 C.ar    1  UNL1        0.0054
     12 C           3.9865   -2.3786   20.2818 C.ar    1  UNL1        0.0124
     13 C           4.3005   -2.1319   18.8360 C.ar    1  UNL1        0.0682
     14 CL          5.3103   -2.9884   18.1311 Cl      1  UNL1       -0.0814
     15 C           3.6049   -1.0287   18.0949 C.ar    1  UNL1        0.0683
     16 CL          3.9190   -0.7820   16.6491 Cl      1  UNL1       -0.0814
     17 C           2.5951   -0.1722   18.7998 C.ar    1  UNL1        0.0168
     18 C          -1.3096    3.6385   25.6470 C.3     1  UNL1        0.0992
     19 C          -0.7827    2.9760   26.8854 C.ar    1  UNL1       -0.0055
     20 C           0.2157    3.6875   27.7497 C.ar    1  UNL1        0.0002
     21 C           0.7425    3.0250   28.9880 C.ar    1  UNL1        0.0371
     22 C           0.2710    1.6511   29.3620 C.ar    1  UNL1        0.1444
     23 C          -0.7273    0.9396   28.4977 C.ar    1  UNL1        0.0682
     24 BR         -1.1988   -0.4344   28.8717 Br      1  UNL1       -0.0459
     25 C          -1.2542    1.6021   27.2594 C.ar    1  UNL1        0.0068
     26 O           0.7979    0.9886   30.6004 O.3     1  UNL1       -0.4786
     27 C           2.1912    0.4333   30.6190 C.3     1  UNL1        0.1687
     28 C           2.7347   -0.2695   29.4104 C.3     1  UNL1        0.0606
     29 C           4.1281   -0.8248   29.4291 C.3     1  UNL1        0.0723
     30 N           4.9779   -0.6772   30.6563 N.3     1  UNL1       -0.2973
     31 C           4.4344    0.0256   31.8649 C.3     1  UNL1        0.0723
     32 C           3.0411    0.5808   31.8463 C.3     1  UNL1        0.0606
     33 H           5.8173   -0.1712   30.3741 H       1  UNL1        0.1233
@<TRIPOS>BOND
     1     6     7    2
     2     7     8   am
     3     1     8    1
     4     1     2    1
     5     2     3    1
     6     3     4    1
     7     4    18    1
     8    18    19    1
     9    19    20   ar
    10    20    21   ar
    11    21    22   ar
    12    22    26    1
    13    26    27    1
    14    27    28    1
    15    28    29    1
    16    29    30    1
    17    30    31    1
    18    31    32    1
    19    22    23   ar
    20    23    24    1
    21    23    25   ar
    22     4     5    1
    23     7    10    1
    24    10    11   ar
    25    11    12   ar
    26    12    13   ar
    27    13    14    1
    28    13    15   ar
    29    15    16    1
    30    15    17   ar
    31     5     1    1
    32    17    10   ar
    33    25    19   ar
    34    32    27    1
    35     8     9    1
    36    30    33    1
@<TRIPOS>MOLECULE
*****
 33 36 0 0 0
SMALL
GASTEIGER

@<TRIPOS>ATOM
      1 C           0.7478    1.8737   23.0462 C.3     1  UNL1        0.0892
      2 C          -0.0330    3.0419   22.5209 C.3     1  UNL1        0.0383
      3 C          -0.9368    3.5254   23.6160 C.3     1  UNL1        0.0742
      4 N          -0.7146    2.6562   24.8181 N.3     1  UNL1       -0.2675
      5 C           0.3265    1.6354   24.4660 C.3     1  UNL1        0.0922
      6 O          -0.0938    0.1834   20.7149 O.2     1  UNL1       -0.2701
      7 C           1.3496    0.2377   21.1197 C.2     1  UNL1        0.2459
      8 N           1.7704    1.0828   22.2853 N.am    1  UNL1       -0.3011
      9 H           2.7177    1.1184   22.5510 H       1  UNL1        0.1497
     10 C           2.3720   -0.5532   20.3588 C.ar    1  UNL1        0.0542
     11 C           3.1762   -1.6088   21.0580 C.ar    1  UNL1        0.0054
     12 C           4.1987   -2.3997   20.2970 C.ar    1  UNL1        0.0124
     13 C           4.4168   -2.1350   18.8368 C.ar    1  UNL1        0.0682
     14 CL          5.4393   -2.9259   18.0757 Cl      1  UNL1       -0.0814
     15 C           3.6126   -1.0794   18.1374 C.ar    1  UNL1        0.0683
     16 CL          3.8308   -0.8147   16.6772 Cl      1  UNL1       -0.0814
     17 C           2.5902   -0.2885   18.8985 C.ar    1  UNL1        0.0168
     18 C          -1.4112    2.7851   26.1402 C.3     1  UNL1        0.0992
     19 C          -0.7274    2.3309   27.3957 C.ar    1  UNL1       -0.0055
     20 C          -0.9693    0.9476   27.9231 C.ar    1  UNL1        0.0002
     21 C          -0.2855    0.4935   29.1786 C.ar    1  UNL1        0.0371
     22 C           0.6401    1.4226   29.9066 C.ar    1  UNL1        0.1444
     23 C           0.8820    2.8058   29.3792 C.ar    1  UNL1        0.0682
     24 BR          1.8076    3.7349   30.1073 Br      1  UNL1       -0.0459
     25 C           0.1982    3.2599   28.1238 C.ar    1  UNL1        0.0068
     26 O           1.3239    0.9684   31.1621 O.3     1  UNL1       -0.4786
     27 C           2.6436    0.2598   31.0831 C.3     1  UNL1        0.1687
     28 C           3.2146   -0.1154   29.7478 C.3     1  UNL1        0.0606
     29 C           4.5344   -0.8240   29.6688 C.3     1  UNL1        0.0723
     30 N           5.2831   -1.1573   30.9251 N.3     1  UNL1       -0.2973
     31 C           4.7120   -0.7821   32.2604 C.3     1  UNL1        0.0723
     32 C           3.3923   -0.0735   32.3395 C.3     1  UNL1        0.0606
     33 H           6.1929   -0.7016   30.8554 H       1  UNL1        0.1233
@<TRIPOS>BOND
     1     6     7    2
     2     7     8   am
     3     1     8    1
     4     1     2    1
     5     2     3    1
     6     3     4    1
     7     4    18    1
     8    18    19    1
     9    19    20   ar
    10    20    21   ar
    11    21    22   ar
    12    22    26    1
    13    26    27    1
    14    27    28    1
    15    28    29    1
    16    29    30    1
    17    30    31    1
    18    31    32    1
    19    22    23   ar
    20    23    24    1
    21    23    25   ar
    22     4     5    1
    23     7    10    1
    24    10    11   ar
    25    11    12   ar
    26    12    13   ar
    27    13    14    1
    28    13    15   ar
    29    15    16    1
    30    15    17   ar
    31     5     1    1
    32    17    10   ar
    33    25    19   ar
    34    32    27    1
    35     8     9    1
    36    30    33    1
@<TRIPOS>MOLECULE
*****
 33 36 0 0 0
SMALL
GASTEIGER

@<TRIPOS>ATOM
      1 C           0.6594    2.2056   22.5050 C.3     1  UNL1        0.0892
      2 C          -0.4164    3.0214   21.8514 C.3     1  UNL1        0.0383
      3 C          -1.2235    3.6759   22.9331 C.3     1  UNL1        0.0742
      4 N          -0.6467    3.2645   24.2552 N.3     1  UNL1       -0.2675
      5 C           0.5170    2.3558   23.9907 C.3     1  UNL1        0.0922
      6 O          -0.1811   -0.0495   20.7138 O.2     1  UNL1       -0.2701
      7 C           1.2754    0.2562   20.9016 C.2     1  UNL1        0.2459
      8 N           1.6956    1.3838   21.7972 N.am    1  UNL1       -0.3011
      9 H           2.6515    1.5844   21.9205 H       1  UNL1        0.1497
     10 C           2.3115   -0.5656   20.1938 C.ar    1  UNL1        0.0542
     11 C           3.0046   -1.6827   20.9160 C.ar    1  UNL1        0.0054
     12 C           4.0408   -2.5045   20.2081 C.ar    1  UNL1        0.0124
     13 C           4.3837   -2.2092   18.7780 C.ar    1  UNL1        0.0682
     14 CL          5.4198   -3.0310   18.0701 Cl      1  UNL1       -0.0814
     15 C           3.6905   -1.0921   18.0557 C.ar    1  UNL1        0.0683
     16 CL          4.0335   -0.7968   16.6256 Cl      1  UNL1       -0.0814
     17 C           2.6544   -0.2703   18.7636 C.ar    1  UNL1        0.0168
     18 C          -1.1459    3.6876   25.6049 C.3     1  UNL1        0.0992
     19 C          -0.6132    3.0277   26.8423 C.ar    1  UNL1       -0.0055
     20 C           0.5410    3.6384   27.5803 C.ar    1  UNL1        0.0002
     21 C           1.0736    2.9786   28.8176 C.ar    1  UNL1        0.0371
     22 C           0.4519    1.7080   29.3169 C.ar    1  UNL1        0.1444
     23 C          -0.7023    1.0973   28.5788 C.ar    1  UNL1        0.0682
     24 BR         -1.3240   -0.1732   29.0781 Br      1  UNL1       -0.0459
     25 C          -1.2349    1.7572   27.3415 C.ar    1  UNL1        0.0068
     26 O           0.9846    1.0482   30.5542 O.3     1  UNL1       -0.4786
     27 C           1.3259    1.8757   31.7578 C.3     1  UNL1        0.1687
     28 C           2.4447    1.4553   32.6642 C.3     1  UNL1        0.0606
     29 C           2.7860    2.2829   33.8679 C.3     1  UNL1        0.0723
     30 N           2.0086    3.5308   34.1650 N.3     1  UNL1       -0.2973
     31 C           0.8899    3.9512   33.2585 C.3     1  UNL1        0.0723
     32 C           0.5485    3.1237   32.0550 C.3     1  UNL1        0.0606
     33 H           2.6795    4.2990   34.1805 H       1  UNL1        0.1233
@<TRIPOS>BOND
     1     6     7    2
     2     7     8   am
     3     1     8    1
     4     1     2    1
     5     2     3    1
     6     3     4    1
     7     4    18    1
     8    18    19    1
     9    19    20   ar
    10    20    21   ar
    11    21    22   ar
    12    22    26    1
    13    26    27    1
    14    27    28    1
    15    28    29    1
    16    29    30    1
    17    30    31    1
    18    31    32    1
    19    22    23   ar
    20    23    24    1
    21    23    25   ar
    22     4     5    1
    23     7    10    1
    24    10    11   ar
    25    11    12   ar
    26    12    13   ar
    27    13    14    1
    28    13    15   ar
    29    15    16    1
    30    15    17   ar
    31     5     1    1
    32    17    10   ar
    33    25    19   ar
    34    32    27    1
    35     8     9    1
    36    30    33    1
@<TRIPOS>MOLECULE
*****
 33 36 0 0 0
SMALL
GASTEIGER

@<TRIPOS>ATOM
      1 C           6.8142   -4.0373   26.0952 C.3     1  UNL1        0.0892
      2 C           7.1127   -5.4496   25.6871 C.3     1  UNL1        0.0383
      3 C           7.7043   -5.4185   24.3090 C.3     1  UNL1        0.0742
      4 N           7.7714   -3.9872   23.8655 N.3     1  UNL1       -0.2675
      5 C           7.2213   -3.1336   24.9694 C.3     1  UNL1        0.0922
      6 O           8.5517   -3.7519   28.5242 O.2     1  UNL1       -0.2701
      7 C           7.0827   -3.4621   28.6146 C.2     1  UNL1        0.2459
      8 N           6.2140   -3.6049   27.4001 N.am    1  UNL1       -0.3011
      9 H           5.2498   -3.4147   27.4594 H       1  UNL1        0.1497
     10 C           6.4825   -3.0297   29.9195 C.ar    1  UNL1        0.0542
     11 C           6.6836   -3.8631   31.1503 C.ar    1  UNL1        0.0054
     12 C           6.0834   -3.4305   32.4552 C.ar    1  UNL1        0.0124
     13 C           5.2822   -2.1646   32.5292 C.ar    1  UNL1        0.0682
     14 CL          4.6820   -1.7320   33.8341 Cl      1  UNL1       -0.0814
     15 C           5.0812   -1.3311   31.2984 C.ar    1  UNL1        0.0683
     16 CL          4.2800   -0.0651   31.3724 Cl      1  UNL1       -0.0814
     17 C           5.6813   -1.7636   29.9935 C.ar    1  UNL1        0.0168
     18 C           8.2964   -3.4957   22.5491 C.3     1  UNL1        0.0992
     19 C           7.3473   -2.9781   21.5092 C.ar    1  UNL1       -0.0055
     20 C           7.2499   -1.5039   21.2500 C.ar    1  UNL1        0.0002
     21 C           6.3009   -0.9864   20.2101 C.ar    1  UNL1        0.0371
     22 C           5.4492   -1.9431   19.4294 C.ar    1  UNL1        0.1444
     23 C           5.5466   -3.4172   19.6886 C.ar    1  UNL1        0.0682
     24 BR          4.6949   -4.3739   18.9079 Br      1  UNL1       -0.0459
     25 C           6.4956   -3.9348   20.7285 C.ar    1  UNL1        0.0068
     26 O           4.5001   -1.4255   18.3894 O.3     1  UNL1       -0.4786
     27 C           3.2029   -0.7969   18.8043 C.3     1  UNL1        0.1687
     28 C           2.6319    0.3394   18.0089 C.3     1  UNL1        0.0606
     29 C           1.3346    0.9680   18.4238 C.3     1  UNL1        0.0723
     30 N           0.6085    0.4603   19.6341 N.3     1  UNL1       -0.2973
     31 C           1.1795   -0.6760   20.4296 C.3     1  UNL1        0.0723
     32 C           2.4767   -1.3046   20.0147 C.3     1  UNL1        0.0606
     33 H          -0.3160    0.1648   19.3204 H       1  UNL1        0.1233
@<TRIPOS>BOND
     1     6     7    2
     2     7     8   am
     3     1     8    1
     4     1     2    1
     5     2     3    1
     6     3     4    1
     7     4    18    1
     8    18    19    1
     9    19    20   ar
    10    20    21   ar
    11    21    22   ar
    12    22    26    1
    13    26    27    1
    14    27    28    1
    15    28    29    1
    16    29    30    1
    17    30    31    1
    18    31    32    1
    19    22    23   ar
    20    23    24    1
    21    23    25   ar
    22     4     5    1
    23     7    10    1
    24    10    11   ar
    25    11    12   ar
    26    12    13   ar
    27    13    14    1
    28    13    15   ar
    29    15    16    1
    30    15    17   ar
    31     5     1    1
    32    17    10   ar
    33    25    19   ar
    34    32    27    1
    35     8     9    1
    36    30    33    1
@<TRIPOS>MOLECULE
*****
 33 36 0 0 0
SMALL
GASTEIGER

@<TRIPOS>ATOM
      1 C           7.2465   -5.1136   29.8799 C.3     1  UNL1        0.0892
      2 C           8.6435   -5.6532   29.7940 C.3     1  UNL1        0.0383
      3 C           8.8146   -6.2839   28.4438 C.3     1  UNL1        0.0742
      4 N           7.5233   -6.1341   27.6953 N.3     1  UNL1       -0.2675
      5 C           6.5542   -5.4109   28.5828 C.3     1  UNL1        0.0922
      6 O           7.7835   -2.1918   30.2982 O.2     1  UNL1       -0.2701
      7 C           6.9155   -2.9409   31.2655 C.2     1  UNL1        0.2459
      8 N           6.6470   -4.4018   31.0563 N.am    1  UNL1       -0.3011
      9 H           6.0774   -4.8934   31.6911 H       1  UNL1        0.1497
     10 C           6.3161   -2.2290   32.4419 C.ar    1  UNL1        0.0542
     11 C           4.9062   -2.5254   32.8592 C.ar    1  UNL1        0.0054
     12 C           4.3069   -1.8134   34.0356 C.ar    1  UNL1        0.0124
     13 C           5.1175   -0.8051   34.7947 C.ar    1  UNL1        0.0682
     14 CL          4.5182   -0.0932   35.9711 Cl      1  UNL1       -0.0814
     15 C           6.5275   -0.5087   34.3774 C.ar    1  UNL1        0.0683
     16 CL          7.3381    0.4996   35.1364 Cl      1  UNL1       -0.0814
     17 C           7.1268   -1.2207   33.2010 C.ar    1  UNL1        0.0168
     18 C           7.2493   -6.6219   26.3036 C.3     1  UNL1        0.0992
     19 C           7.3321   -5.6717   25.1458 C.ar    1  UNL1       -0.0055
     20 C           6.6196   -4.3531   25.2054 C.ar    1  UNL1        0.0002
     21 C           6.7024   -3.4030   24.0477 C.ar    1  UNL1        0.0371
     22 C           7.4976   -3.7714   22.8304 C.ar    1  UNL1        0.1444
     23 C           8.2101   -5.0900   22.7708 C.ar    1  UNL1        0.0682
     24 BR          9.0054   -5.4585   21.5535 Br      1  UNL1       -0.0459
     25 C           8.1274   -6.0402   23.9285 C.ar    1  UNL1        0.0068
     26 O           7.5804   -2.8212   21.6726 O.3     1  UNL1       -0.4786
     27 C           6.6481   -2.9754   20.5077 C.3     1  UNL1        0.1687
     28 C           6.9332   -2.2620   19.2194 C.3     1  UNL1        0.0606
     29 C           6.0009   -2.4162   18.0545 C.3     1  UNL1        0.0723
     30 N           4.7835   -3.2837   18.1779 N.3     1  UNL1       -0.2973
     31 C           4.4984   -3.9971   19.4662 C.3     1  UNL1        0.0723
     32 C           5.4306   -3.8429   20.6311 C.3     1  UNL1        0.0606
     33 H           4.8575   -3.9996   17.4551 H       1  UNL1        0.1233
@<TRIPOS>BOND
     1     6     7    2
     2     7     8   am
     3     1     8    1
     4     1     2    1
     5     2     3    1
     6     3     4    1
     7     4    18    1
     8    18    19    1
     9    19    20   ar
    10    20    21   ar
    11    21    22   ar
    12    22    26    1
    13    26    27    1
    14    27    28    1
    15    28    29    1
    16    29    30    1
    17    30    31    1
    18    31    32    1
    19    22    23   ar
    20    23    24    1
    21    23    25   ar
    22     4     5    1
    23     7    10    1
    24    10    11   ar
    25    11    12   ar
    26    12    13   ar
    27    13    14    1
    28    13    15   ar
    29    15    16    1
    30    15    17   ar
    31     5     1    1
    32    17    10   ar
    33    25    19   ar
    34    32    27    1
    35     8     9    1
    36    30    33    1
@<TRIPOS>MOLECULE
*****
 33 36 0 0 0
SMALL
GASTEIGER

@<TRIPOS>ATOM
      1 C           0.0138    2.4069   20.6260 C.3     1  UNL1        0.0892
      2 C           1.2452    3.2474   20.7915 C.3     1  UNL1        0.0383
      3 C           2.3239    2.6644   19.9275 C.3     1  UNL1        0.0742
      4 N           1.7592    1.4636   19.2280 N.3     1  UNL1       -0.2675
      5 C           0.3315    1.3045   19.6596 C.3     1  UNL1        0.0922
      6 O          -2.1569    3.9364   19.2298 O.2     1  UNL1       -0.2701
      7 C          -2.3893    3.3944   20.6091 C.2     1  UNL1        0.2459
      8 N          -1.3039    2.6297   21.3071 N.am    1  UNL1       -0.3011
      9 H          -1.4565    2.2740   22.2124 H       1  UNL1        0.1497
     10 C          -3.7070    3.6173   21.2902 C.ar    1  UNL1        0.0542
     11 C          -4.9177    3.9782   20.4816 C.ar    1  UNL1        0.0054
     12 C          -6.2354    4.2010   21.1628 C.ar    1  UNL1        0.0124
     13 C          -6.3423    4.0629   22.6526 C.ar    1  UNL1        0.0682
     14 CL         -7.6601    4.2858   23.3337 Cl      1  UNL1       -0.0814
     15 C          -5.1317    3.7020   23.4613 C.ar    1  UNL1        0.0683
     16 CL         -5.2386    3.5639   24.9510 Cl      1  UNL1       -0.0814
     17 C          -3.8139    3.4792   22.7801 C.ar    1  UNL1        0.0168
     18 C           2.4933    0.5776   18.2657 C.3     1  UNL1        0.0992
     19 C           3.3341   -0.5535   18.7795 C.ar    1  UNL1       -0.0055
     20 C           2.7865   -1.4812   19.8232 C.ar    1  UNL1        0.0002
     21 C           3.6272   -2.6121   20.3369 C.ar    1  UNL1        0.0371
     22 C           5.0157   -2.8154   19.8069 C.ar    1  UNL1        0.1444
     23 C           5.5633   -1.8877   18.7632 C.ar    1  UNL1        0.0682
     24 BR          6.9518   -2.0910   18.2331 Br      1  UNL1       -0.0459
     25 C           4.7225   -0.7567   18.2495 C.ar    1  UNL1        0.0068
     26 O           5.8565   -3.9465   20.3206 O.3     1  UNL1       -0.4786
     27 C           6.5124   -3.8426   21.6656 C.3     1  UNL1        0.1687
     28 C           8.0071   -3.7682   21.7674 C.3     1  UNL1        0.0606
     29 C           8.6630   -3.6644   23.1124 C.3     1  UNL1        0.0723
     30 N           7.8242   -3.6349   24.3556 N.3     1  UNL1       -0.2973
     31 C           6.3295   -3.7093   24.2538 C.3     1  UNL1        0.0723
     32 C           5.6736   -3.8132   22.9089 C.3     1  UNL1        0.0606
     33 H           8.0435   -2.7635   24.8381 H       1  UNL1        0.1233
@<TRIPOS>BOND
     1     6     7    2
     2     7     8   am
     3     1     8    1
     4     1     2    1
     5     2     3    1
     6     3     4    1
     7     4    18    1
     8    18    19    1
     9    19    20   ar
    10    20    21   ar
    11    21    22   ar
    12    22    26    1
    13    26    27    1
    14    27    28    1
    15    28    29    1
    16    29    30    1
    17    30    31    1
    18    31    32    1
    19    22    23   ar
    20    23    24    1
    21    23    25   ar
    22     4     5    1
    23     7    10    1
    24    10    11   ar
    25    11    12   ar
    26    12    13   ar
    27    13    14    1
    28    13    15   ar
    29    15    16    1
    30    15    17   ar
    31     5     1    1
    32    17    10   ar
    33    25    19   ar
    34    32    27    1
    35     8     9    1
    36    30    33    1
@<TRIPOS>MOLECULE
*****
 33 36 0 0 0
SMALL
GASTEIGER

@<TRIPOS>ATOM
      1 C           0.5366    1.8640   20.2817 C.3     1  UNL1        0.0892
      2 C           1.7625    2.6975   20.5115 C.3     1  UNL1        0.0383
      3 C           2.8934    2.0800   19.7436 C.3     1  UNL1        0.0742
      4 N           2.3665    0.8649   19.0392 N.3     1  UNL1       -0.2675
      5 C           0.9099    0.7315   19.3718 C.3     1  UNL1        0.0922
      6 O          -1.2296    3.9757   19.0892 O.2     1  UNL1       -0.2701
      7 C          -1.7068    3.1743   20.2641 C.2     1  UNL1        0.2459
      8 N          -0.8237    2.1185   20.8603 N.am    1  UNL1       -0.3011
      9 H          -1.1370    1.5926   21.6314 H       1  UNL1        0.1497
     10 C          -3.0672    3.4289   20.8426 C.ar    1  UNL1        0.0542
     11 C          -3.2423    3.5361   22.3284 C.ar    1  UNL1        0.0054
     12 C          -4.6027    3.7907   22.9068 C.ar    1  UNL1        0.0124
     13 C          -5.7879    3.9380   21.9994 C.ar    1  UNL1        0.0682
     14 CL         -7.1483    4.1925   22.5778 Cl      1  UNL1       -0.0814
     15 C          -5.6129    3.8307   20.5135 C.ar    1  UNL1        0.0683
     16 CL         -6.7981    3.9780   19.6060 Cl      1  UNL1       -0.0814
     17 C          -4.2525    3.5761   19.9351 C.ar    1  UNL1        0.0168
     18 C           3.1573   -0.0551   18.1572 C.3     1  UNL1        0.0992
     19 C           4.0161   -1.1236   18.7662 C.ar    1  UNL1       -0.0055
     20 C           5.3743   -0.7796   19.3018 C.ar    1  UNL1        0.0002
     21 C           6.2330   -1.8480   19.9108 C.ar    1  UNL1        0.0371
     22 C           5.7336   -3.2605   19.9841 C.ar    1  UNL1        0.1444
     23 C           4.3754   -3.6046   19.4485 C.ar    1  UNL1        0.0682
     24 BR          3.8760   -5.0171   19.5218 Br      1  UNL1       -0.0459
     25 C           3.5167   -2.5361   18.8395 C.ar    1  UNL1        0.0068
     26 O           6.5924   -4.3290   20.5931 O.3     1  UNL1       -0.4786
     27 C           7.0206   -4.2207   22.0266 C.3     1  UNL1        0.1687
     28 C           6.0093   -3.9106   23.0901 C.3     1  UNL1        0.0606
     29 C           6.4376   -3.8023   24.5236 C.3     1  UNL1        0.0723
     30 N           7.8771   -4.0041   24.8936 N.3     1  UNL1       -0.2973
     31 C           8.8884   -4.3143   23.8301 C.3     1  UNL1        0.0723
     32 C           8.4602   -4.4226   22.3967 C.3     1  UNL1        0.0606
     33 H           7.9044   -4.7759   25.5600 H       1  UNL1        0.1233
@<TRIPOS>BOND
     1     6     7    2
     2     7     8   am
     3     1     8    1
     4     1     2    1
     5     2     3    1
     6     3     4    1
     7     4    18    1
     8    18    19    1
     9    19    20   ar
    10    20    21   ar
    11    21    22   ar
    12    22    26    1
    13    26    27    1
    14    27    28    1
    15    28    29    1
    16    29    30    1
    17    30    31    1
    18    31    32    1
    19    22    23   ar
    20    23    24    1
    21    23    25   ar
    22     4     5    1
    23     7    10    1
    24    10    11   ar
    25    11    12   ar
    26    12    13   ar
    27    13    14    1
    28    13    15   ar
    29    15    16    1
    30    15    17   ar
    31     5     1    1
    32    17    10   ar
    33    25    19   ar
    34    32    27    1
    35     8     9    1
    36    30    33    1
@<TRIPOS>MOLECULE
*****
 33 36 0 0 0
SMALL
GASTEIGER

@<TRIPOS>ATOM
      1 C           1.4397    1.3101   27.6622 C.3     1  UNL1        0.0892
      2 C           0.0283    0.9762   27.2791 C.3     1  UNL1        0.0383
      3 C          -0.1531    1.3223   25.8309 C.3     1  UNL1        0.0742
      4 N           1.1462    1.8700   25.3190 N.3     1  UNL1       -0.2675
      5 C           2.1305    1.8624   26.4508 C.3     1  UNL1        0.0922
      6 O           2.8128   -1.2678   28.3473 O.2     1  UNL1       -0.2701
      7 C           2.7391   -0.1647   29.3612 C.2     1  UNL1        0.2459
      8 N           2.0525    1.1242   29.0186 N.am    1  UNL1       -0.3011
      9 H           2.0042    1.8481   29.6841 H       1  UNL1        0.1497
     10 C           3.3520   -0.3507   30.7176 C.ar    1  UNL1        0.0542
     11 C           2.8969    0.4963   31.8688 C.ar    1  UNL1        0.0054
     12 C           3.5099    0.3102   33.2251 C.ar    1  UNL1        0.0124
     13 C           4.5779   -0.7229   33.4302 C.ar    1  UNL1        0.0682
     14 CL          5.1908   -0.9089   34.7866 Cl      1  UNL1       -0.0814
     15 C           5.0330   -1.5700   32.2790 C.ar    1  UNL1        0.0683
     16 CL          6.1010   -2.6030   32.4841 Cl      1  UNL1       -0.0814
     17 C           4.4200   -1.3839   30.9226 C.ar    1  UNL1        0.0168
     18 C           1.4140    2.3423   23.9207 C.3     1  UNL1        0.0992
     19 C           1.7237    1.3492   22.8400 C.ar    1  UNL1       -0.0055
     20 C           2.5654    0.1459   23.1459 C.ar    1  UNL1        0.0002
     21 C           2.8750   -0.8471   22.0651 C.ar    1  UNL1        0.0371
     22 C           2.3429   -0.6369   20.6785 C.ar    1  UNL1        0.1444
     23 C           1.5012    0.5664   20.3726 C.ar    1  UNL1        0.0682
     24 BR          0.9692    0.7767   18.9860 Br      1  UNL1       -0.0459
     25 C           1.1916    1.5595   21.4534 C.ar    1  UNL1        0.0068
     26 O           2.6526   -1.6300   19.5978 O.3     1  UNL1       -0.4786
     27 C           3.9740   -1.5804   18.8899 C.3     1  UNL1        0.1687
     28 C           4.9481   -2.7112   19.0397 C.3     1  UNL1        0.0606
     29 C           6.2696   -2.6616   18.3318 C.3     1  UNL1        0.0723
     30 N           6.6171   -1.4811   17.4740 N.3     1  UNL1       -0.2973
     31 C           5.6430   -0.3503   17.3241 C.3     1  UNL1        0.0723
     32 C           4.3215   -0.3999   18.0320 C.3     1  UNL1        0.0606
     33 H           6.7969   -1.8410   16.5367 H       1  UNL1        0.1233
@<TRIPOS>BOND
     1     6     7    2
     2     7     8   am
     3     1     8    1
     4     1     2    1
     5     2     3    1
     6     3     4    1
     7     4    18    1
     8    18    19    1
     9    19    20   ar
    10    20    21   ar
    11    21    22   ar
    12    22    26    1
    13    26    27    1
    14    27    28    1
    15    28    29    1
    16    29    30    1
    17    30    31    1
    18    31    32    1
    19    22    23   ar
    20    23    24    1
    21    23    25   ar
    22     4     5    1
    23     7    10    1
    24    10    11   ar
    25    11    12   ar
    26    12    13   ar
    27    13    14    1
    28    13    15   ar
    29    15    16    1
    30    15    17   ar
    31     5     1    1
    32    17    10   ar
    33    25    19   ar
    34    32    27    1
    35     8     9    1
    36    30    33    1
@<TRIPOS>MOLECULE
*****
 33 36 0 0 0
SMALL
GASTEIGER

@<TRIPOS>ATOM
      1 C           1.9442   -0.1222   19.2650 C.3     1  UNL1        0.0892
      2 C           2.9374    0.2491   18.2040 C.3     1  UNL1        0.0383
      3 C           3.9082   -0.8854   18.0606 C.3     1  UNL1        0.0742
      4 N           3.5150   -1.9577   19.0329 N.3     1  UNL1       -0.2675
      5 C           2.3011   -1.4860   19.7773 C.3     1  UNL1        0.0922
      6 O           2.1499    1.3970   21.8438 O.2     1  UNL1       -0.2701
      7 C           0.8984    1.4818   21.0211 C.2     1  UNL1        0.2459
      8 N           0.7956    0.7222   19.7317 N.am    1  UNL1       -0.3011
      9 H          -0.0258    0.7779   19.1917 H       1  UNL1        0.1497
     10 C          -0.2501    2.3262   21.4879 C.ar    1  UNL1        0.0542
     11 C          -0.3273    2.7610   22.9213 C.ar    1  UNL1        0.0054
     12 C          -1.4759    3.6055   23.3880 C.ar    1  UNL1        0.0124
     13 C          -2.5471    4.0150   22.4212 C.ar    1  UNL1        0.0682
     14 CL         -3.6957    4.8595   22.8880 Cl      1  UNL1       -0.0814
     15 C          -2.4699    3.5802   20.9877 C.ar    1  UNL1        0.0683
     16 CL         -3.5411    3.9898   20.0209 Cl      1  UNL1       -0.0814
     17 C          -1.3214    2.7358   20.5210 C.ar    1  UNL1        0.0168
     18 C           4.2130   -3.2711   19.2269 C.3     1  UNL1        0.0992
     19 C           5.1089   -3.4765   20.4124 C.ar    1  UNL1       -0.0055
     20 C           4.5449   -3.4031   21.8003 C.ar    1  UNL1        0.0002
     21 C           5.4408   -3.6085   22.9857 C.ar    1  UNL1        0.0371
     22 C           6.9007   -3.8872   22.7831 C.ar    1  UNL1        0.1444
     23 C           7.4647   -3.9605   21.3951 C.ar    1  UNL1        0.0682
     24 BR          8.9246   -4.2392   21.1925 Br      1  UNL1       -0.0459
     25 C           6.5688   -3.7552   20.2098 C.ar    1  UNL1        0.0068
     26 O           7.7967   -4.0925   23.9685 O.3     1  UNL1       -0.4786
     27 C           7.5480   -5.2355   24.9075 C.3     1  UNL1        0.1687
     28 C           6.8497   -4.9952   26.2132 C.3     1  UNL1        0.0606
     29 C           6.6011   -6.1383   27.1522 C.3     1  UNL1        0.0723
     30 N           7.0506   -7.5216   26.7855 N.3     1  UNL1       -0.2973
     31 C           7.7489   -7.7618   25.4798 C.3     1  UNL1        0.0723
     32 C           7.9975   -6.6188   24.5408 C.3     1  UNL1        0.0606
     33 H           6.2187   -8.1118   26.7875 H       1  UNL1        0.1233
@<TRIPOS>BOND
     1     6     7    2
     2     7     8   am
     3     1     8    1
     4     1     2    1
     5     2     3    1
     6     3     4    1
     7     4    18    1
     8    18    19    1
     9    19    20   ar
    10    20    21   ar
    11    21    22   ar
    12    22    26    1
    13    26    27    1
    14    27    28    1
    15    28    29    1
    16    29    30    1
    17    30    31    1
    18    31    32    1
    19    22    23   ar
    20    23    24    1
    21    23    25   ar
    22     4     5    1
    23     7    10    1
    24    10    11   ar
    25    11    12   ar
    26    12    13   ar
    27    13    14    1
    28    13    15   ar
    29    15    16    1
    30    15    17   ar
    31     5     1    1
    32    17    10   ar
    33    25    19   ar
    34    32    27    1
    35     8     9    1
    36    30    33    1
