@<TRIPOS>MOLECULE
*****
 34 37 0 0 0
SMALL
GASTEIGER

@<TRIPOS>ATOM
      1 C          -3.3435  -18.9772   20.1215 C.ar    1  UNL1        0.2637
      2 N          -4.7000  -18.4517   20.4871 N.ar    1  UNL1       -0.1887
      3 C          -5.6651  -19.5997   20.4585 C.ar    1  UNL1        0.2035
      4 N          -4.9050  -20.8347   20.0751 N.ar    1  UNL1       -0.0559
      5 O          -3.4702  -20.4500   19.8668 O.2     1  UNL1       -0.3345
      6 C          -7.1325  -19.5256   20.7602 C.ar    1  UNL1        0.0435
      7 C          -8.1313  -19.5704   19.6420 C.ar    1  UNL1        0.0327
      8 C          -9.5988  -19.4963   19.9438 C.ar    1  UNL1        0.1400
      9 F         -10.5976  -19.5411   18.8255 F       1  UNL1       -0.2044
     10 C         -10.0674  -19.3775   21.3637 C.ar    1  UNL1        0.0562
     11 C          -9.0686  -19.3327   22.4819 C.ar    1  UNL1        0.1400
     12 F          -9.5373  -19.2138   23.9018 F       1  UNL1       -0.2044
     13 C          -7.6012  -19.4067   22.1802 C.ar    1  UNL1        0.0327
     14 C         -11.5349  -19.3034   21.6654 C.3     1  UNL1        0.1817
     15 S         -12.1433  -18.0090   22.1175 S.O2    1  UNL1       -0.0039
     16 C         -12.7516  -16.7145   22.5696 C.3     1  UNL1        0.1764
     17 O         -11.8954  -17.4186   20.7610 O.2     1  UNL1       -0.1726
     18 O         -12.3911  -18.5993   23.4740 O.2     1  UNL1       -0.1726
     19 C          -1.2871  -18.1687   18.7548 C.3     1  UNL1        0.0423
     20 C          -2.0818  -18.1714   20.0270 C.3     1  UNL1        0.1934
     21 O          -1.6149  -17.3684   21.2048 O.3     1  UNL1       -0.3493
     22 C          -2.5668  -17.0476   22.3188 C.3     1  UNL1        0.1159
     23 C          -3.4892  -15.8706   22.2015 C.3     1  UNL1        0.0320
     24 C          -4.4412  -15.5499   23.3155 C.3     1  UNL1        0.0297
     25 C          -4.4707  -16.4062   24.5467 C.3     1  UNL1        0.0933
     26 C          -5.3931  -15.2291   24.4295 C.3     1  UNL1        0.0329
     27 C          -6.3450  -14.9084   25.5434 C.3     1  UNL1        0.0716
     28 C          -6.3745  -15.7647   26.7747 C.3     1  UNL1        0.2908
     29 F          -6.7724  -16.2736   28.1284 F       1  UNL1       -0.2016
     30 F          -7.4351  -14.7644   27.1275 F       1  UNL1       -0.2016
     31 C          -5.4521  -16.9417   26.8919 C.3     1  UNL1        0.2082
     32 O          -4.5001  -17.2625   25.7779 O.3     1  UNL1       -0.3529
     33 C          -3.5482  -17.5832   24.6640 C.3     1  UNL1        0.0297
     34 C          -2.5963  -17.9039   23.5500 C.3     1  UNL1        0.0320
@<TRIPOS>BOND
     1    20    19    1
     2    20    21    1
     3    22    21    1
     4    22    23    1
     5    23    24    1
     6    25    24    1
     7    25    26    1
     8    26    27    1
     9    27    28    1
    10    28    29    1
    11    28    30    1
    12    28    31    1
    13    31    32    1
    14    25    33    1
    15    33    34    1
    16    20     1    1
    17     1     2   ar
    18     2     3   ar
    19     3     6    1
    20     6     7   ar
    21     7     8   ar
    22     8     9    1
    23     8    10   ar
    24    10    14    1
    25    14    15    1
    26    15    16    1
    27    15    17    2
    28    15    18    2
    29    10    11   ar
    30    11    12    1
    31    11    13   ar
    32     3     4   ar
    33     4     5   ar
    34    34    22    1
    35     5     1   ar
    36    32    25    1
    37    13     6   ar
@<TRIPOS>MOLECULE
*****
 34 37 0 0 0
SMALL
GASTEIGER

@<TRIPOS>ATOM
      1 C          -3.3422  -18.9523   20.1263 C.ar    1  UNL1        0.2637
      2 N          -4.6988  -18.4326   20.4995 N.ar    1  UNL1       -0.1887
      3 C          -5.6594  -19.5845   20.4753 C.ar    1  UNL1        0.2035
      4 N          -4.8963  -20.8162   20.0871 N.ar    1  UNL1       -0.0559
      5 O          -3.4642  -20.4255   19.8714 O.2     1  UNL1       -0.3345
      6 C          -7.1255  -19.5166   20.7849 C.ar    1  UNL1        0.0435
      7 C          -7.5867  -19.3920   22.2067 C.ar    1  UNL1        0.0327
      8 C          -9.0529  -19.3241   22.5163 C.ar    1  UNL1        0.1400
      9 F          -9.5142  -19.1995   23.9383 F       1  UNL1       -0.2044
     10 C         -10.0577  -19.3808   21.4042 C.ar    1  UNL1        0.0562
     11 C          -9.5965  -19.5053   19.9822 C.ar    1  UNL1        0.1400
     12 F         -10.6013  -19.5620   18.8701 F       1  UNL1       -0.2044
     13 C          -8.1303  -19.5732   19.6726 C.ar    1  UNL1        0.0327
     14 C         -11.5238  -19.3129   21.7138 C.3     1  UNL1        0.1817
     15 S         -12.1366  -18.0190   22.1617 S.O2    1  UNL1       -0.0039
     16 C         -12.7494  -16.7252   22.6096 C.3     1  UNL1        0.1764
     17 O         -12.3851  -18.6067   23.5193 O.2     1  UNL1       -0.1726
     18 O         -11.8882  -17.4314   20.8042 O.2     1  UNL1       -0.1726
     19 C          -1.2988  -18.1311   18.7478 C.3     1  UNL1        0.0423
     20 C          -2.0843  -18.1414   20.0256 C.3     1  UNL1        0.1934
     21 O          -1.6120  -17.3407   21.2028 O.3     1  UNL1       -0.3493
     22 C          -2.5655  -17.0005   22.3098 C.3     1  UNL1        0.1159
     23 C          -2.6353  -17.8670   23.5321 C.3     1  UNL1        0.0320
     24 C          -3.5888  -17.5269   24.6390 C.3     1  UNL1        0.0297
     25 C          -4.4724  -16.3202   24.5235 C.3     1  UNL1        0.0933
     26 C          -4.5423  -17.1867   25.7460 C.3     1  UNL1        0.0329
     27 C          -5.4957  -16.8466   26.8528 C.3     1  UNL1        0.0716
     28 C          -6.3793  -15.6399   26.7373 C.3     1  UNL1        0.2908
     29 F          -7.4116  -14.6100   27.0887 F       1  UNL1       -0.2016
     30 F          -6.8077  -16.1488   28.0817 F       1  UNL1       -0.2016
     31 C          -6.3094  -14.7735   25.5149 C.3     1  UNL1        0.2082
     32 O          -5.3559  -15.1136   24.4079 O.3     1  UNL1       -0.3529
     33 C          -4.4025  -15.4538   23.3011 C.3     1  UNL1        0.0297
     34 C          -3.4491  -15.7939   22.1942 C.3     1  UNL1        0.0320
@<TRIPOS>BOND
     1    20    19    1
     2    20    21    1
     3    22    21    1
     4    22    23    1
     5    23    24    1
     6    25    24    1
     7    25    26    1
     8    26    27    1
     9    27    28    1
    10    28    29    1
    11    28    30    1
    12    28    31    1
    13    31    32    1
    14    25    33    1
    15    33    34    1
    16    20     1    1
    17     1     2   ar
    18     2     3   ar
    19     3     6    1
    20     6     7   ar
    21     7     8   ar
    22     8     9    1
    23     8    10   ar
    24    10    14    1
    25    14    15    1
    26    15    16    1
    27    15    17    2
    28    15    18    2
    29    10    11   ar
    30    11    12    1
    31    11    13   ar
    32     3     4   ar
    33     4     5   ar
    34    34    22    1
    35     5     1   ar
    36    32    25    1
    37    13     6   ar
@<TRIPOS>MOLECULE
*****
 34 37 0 0 0
SMALL
GASTEIGER

@<TRIPOS>ATOM
      1 C          -6.8637  -15.6172   26.1339 C.ar    1  UNL1        0.2637
      2 N          -6.3911  -16.5884   25.0930 N.ar    1  UNL1       -0.1887
      3 C          -5.0982  -16.0744   24.5324 C.ar    1  UNL1        0.2035
      4 N          -4.7718  -14.7854   25.2268 N.ar    1  UNL1       -0.0559
      5 O          -5.8630  -14.5029   26.2166 O.2     1  UNL1       -0.3345
      6 C          -4.2761  -16.7335   23.4649 C.ar    1  UNL1        0.0435
      7 C          -3.1274  -15.9976   22.8413 C.ar    1  UNL1        0.0327
      8 C          -2.3053  -16.6567   21.7738 C.ar    1  UNL1        0.1400
      9 F          -1.1565  -15.9207   21.1502 F       1  UNL1       -0.2044
     10 C          -2.6319  -18.0517   21.3298 C.ar    1  UNL1        0.0562
     11 C          -3.7806  -18.7877   21.9533 C.ar    1  UNL1        0.1400
     12 F          -4.1072  -20.1827   21.5093 F       1  UNL1       -0.2044
     13 C          -4.6027  -18.1286   23.0208 C.ar    1  UNL1        0.0327
     14 C          -1.8097  -18.7108   20.2622 C.3     1  UNL1        0.1817
     15 S          -1.7737  -18.1320   18.8788 S.O2    1  UNL1       -0.0039
     16 C          -1.7378  -17.5533   17.4954 C.3     1  UNL1        0.1764
     17 O          -3.2733  -18.1274   18.8417 O.2     1  UNL1       -0.1726
     18 O          -0.2742  -18.1367   18.9158 O.2     1  UNL1       -0.1726
     19 C          -8.4285  -14.7179   28.0027 C.3     1  UNL1        0.0423
     20 C          -8.1171  -15.7390   26.9489 C.3     1  UNL1        0.1934
     21 O          -9.0589  -16.8817   26.7102 O.3     1  UNL1       -0.3493
     22 C          -9.4436  -17.2566   25.3097 C.3     1  UNL1        0.1159
     23 C          -9.4094  -18.6938   24.8817 C.3     1  UNL1        0.0320
     24 C          -9.7941  -19.0686   23.4812 C.3     1  UNL1        0.0297
     25 C         -10.2130  -18.0062   22.5086 C.3     1  UNL1        0.0933
     26 C         -10.1789  -19.4434   22.0806 C.3     1  UNL1        0.0329
     27 C         -10.5636  -19.8182   20.6801 C.3     1  UNL1        0.0716
     28 C         -10.9825  -18.7558   19.7076 C.3     1  UNL1        0.2908
     29 F         -11.4453  -18.1153   18.4327 F       1  UNL1       -0.2016
     30 F         -11.1090  -19.9706   18.8368 F       1  UNL1       -0.2016
     31 C         -11.0167  -17.3186   20.1355 C.3     1  UNL1        0.2082
     32 O         -10.6319  -16.9438   21.5361 O.3     1  UNL1       -0.3529
     33 C         -10.2472  -16.5690   22.9366 C.3     1  UNL1        0.0297
     34 C          -9.8625  -16.1942   24.3371 C.3     1  UNL1        0.0320
@<TRIPOS>BOND
     1    20    19    1
     2    20    21    1
     3    22    21    1
     4    22    23    1
     5    23    24    1
     6    25    24    1
     7    25    26    1
     8    26    27    1
     9    27    28    1
    10    28    29    1
    11    28    30    1
    12    28    31    1
    13    31    32    1
    14    25    33    1
    15    33    34    1
    16    20     1    1
    17     1     2   ar
    18     2     3   ar
    19     3     6    1
    20     6     7   ar
    21     7     8   ar
    22     8     9    1
    23     8    10   ar
    24    10    14    1
    25    14    15    1
    26    15    16    1
    27    15    17    2
    28    15    18    2
    29    10    11   ar
    30    11    12    1
    31    11    13   ar
    32     3     4   ar
    33     4     5   ar
    34    34    22    1
    35     5     1   ar
    36    32    25    1
    37    13     6   ar
@<TRIPOS>MOLECULE
*****
 34 37 0 0 0
SMALL
GASTEIGER

@<TRIPOS>ATOM
      1 C          -0.8072    3.2069   22.6966 C.ar    1  UNL1        0.2637
      2 N           0.0983    2.3994   23.5787 N.ar    1  UNL1       -0.1887
      3 C          -0.5092    2.3545   24.9495 C.ar    1  UNL1        0.2035
      4 N          -1.7901    3.1342   24.9146 N.ar    1  UNL1       -0.0559
      5 O          -1.9743    3.6610   23.5223 O.2     1  UNL1       -0.3345
      6 C           0.0638    1.6530   26.1451 C.ar    1  UNL1        0.0435
      7 C          -0.8344    1.2364   27.2720 C.ar    1  UNL1        0.0327
      8 C          -0.2615    0.5350   28.4676 C.ar    1  UNL1        0.1400
      9 F          -1.1597    0.1183   29.5945 F       1  UNL1       -0.2044
     10 C           1.2095    0.2501   28.5365 C.ar    1  UNL1        0.0562
     11 C           2.1078    0.6666   27.4097 C.ar    1  UNL1        0.1400
     12 F           3.5788    0.3817   27.4786 F       1  UNL1       -0.2044
     13 C           1.5349    1.3681   26.2140 C.ar    1  UNL1        0.0327
     14 C           1.7824   -0.4514   29.7323 C.3     1  UNL1        0.1817
     15 S           2.5933    0.3154   30.7345 S.O2    1  UNL1       -0.0039
     16 C           3.4043    1.0822   31.7367 C.3     1  UNL1        0.1764
     17 O           3.8193   -0.4456   30.3248 O.2     1  UNL1       -0.1726
     18 O           1.3674    1.0764   31.1442 O.2     1  UNL1       -0.1726
     19 C          -0.1183    4.8695   20.8228 C.3     1  UNL1        0.0423
     20 C          -0.5847    3.5075   21.2440 C.3     1  UNL1        0.1934
     21 O          -0.8286    2.4461   20.2125 O.3     1  UNL1       -0.3493
     22 C           0.2527    1.4612   19.8795 C.3     1  UNL1        0.1159
     23 C           0.4536    0.2487   20.7393 C.3     1  UNL1        0.0320
     24 C           1.5349   -0.7361   20.4063 C.3     1  UNL1        0.0297
     25 C           2.4154   -0.5083   19.2134 C.3     1  UNL1        0.0933
     26 C           2.6163   -1.7209   20.0732 C.3     1  UNL1        0.0329
     27 C           3.6976   -2.7056   19.7402 C.3     1  UNL1        0.0716
     28 C           4.5781   -2.4778   18.5473 C.3     1  UNL1        0.2908
     29 F           5.6586   -2.6976   17.5304 F       1  UNL1       -0.2016
     30 F           5.1542   -3.7668   19.0540 F       1  UNL1       -0.2016
     31 C           4.3772   -1.2653   17.6875 C.3     1  UNL1        0.2082
     32 O           3.2958   -0.2804   18.0205 O.3     1  UNL1       -0.3529
     33 C           2.2145    0.7043   18.3536 C.3     1  UNL1        0.0297
     34 C           1.1332    1.6890   18.6866 C.3     1  UNL1        0.0320
@<TRIPOS>BOND
     1    20    19    1
     2    20    21    1
     3    22    21    1
     4    22    23    1
     5    23    24    1
     6    25    24    1
     7    25    26    1
     8    26    27    1
     9    27    28    1
    10    28    29    1
    11    28    30    1
    12    28    31    1
    13    31    32    1
    14    25    33    1
    15    33    34    1
    16    20     1    1
    17     1     2   ar
    18     2     3   ar
    19     3     6    1
    20     6     7   ar
    21     7     8   ar
    22     8     9    1
    23     8    10   ar
    24    10    14    1
    25    14    15    1
    26    15    16    1
    27    15    17    2
    28    15    18    2
    29    10    11   ar
    30    11    12    1
    31    11    13   ar
    32     3     4   ar
    33     4     5   ar
    34    34    22    1
    35     5     1   ar
    36    32    25    1
    37    13     6   ar
@<TRIPOS>MOLECULE
*****
 34 37 0 0 0
SMALL
GASTEIGER

@<TRIPOS>ATOM
      1 C          -0.7647    3.0694   22.8413 C.ar    1  UNL1        0.2637
      2 N           0.1226    2.2120   23.6942 N.ar    1  UNL1       -0.1887
      3 C          -0.3710    2.2968   25.1082 C.ar    1  UNL1        0.2035
      4 N          -1.5634    3.2067   25.1291 N.ar    1  UNL1       -0.0559
      5 O          -1.8067    3.6841   23.7281 O.2     1  UNL1       -0.3345
      6 C           0.2234    1.5951   26.2931 C.ar    1  UNL1        0.0435
      7 C           1.7107    1.5793   26.4870 C.ar    1  UNL1        0.0327
      8 C           2.3052    0.8775   27.6719 C.ar    1  UNL1        0.1400
      9 F           3.7926    0.8616   27.8659 F       1  UNL1       -0.2044
     10 C           1.4124    0.1915   28.6630 C.ar    1  UNL1        0.0562
     11 C          -0.0750    0.2073   28.4692 C.ar    1  UNL1        0.1400
     12 F          -0.9678   -0.4787   29.4602 F       1  UNL1       -0.2044
     13 C          -0.6695    0.9091   27.2842 C.ar    1  UNL1        0.0327
     14 C           2.0069   -0.5103   29.8480 C.3     1  UNL1        0.1817
     15 S           2.6761    0.2826   30.9312 S.O2    1  UNL1       -0.0039
     16 C           3.3454    1.0756   32.0144 C.3     1  UNL1        0.1764
     17 O           1.3829    0.9881   31.2139 O.2     1  UNL1       -0.1726
     18 O           3.9694   -0.4228   30.6485 O.2     1  UNL1       -0.1726
     19 C          -0.2555    4.6240   20.8228 C.3     1  UNL1        0.0423
     20 C          -0.6332    3.2758   21.3614 C.3     1  UNL1        0.1934
     21 O          -0.8792    2.1342   20.4201 O.3     1  UNL1       -0.3493
     22 C           0.2525    1.2344   20.0204 C.3     1  UNL1        0.1159
     23 C           0.5679    0.0173   20.8384 C.3     1  UNL1        0.0320
     24 C           1.6996   -0.8823   20.4386 C.3     1  UNL1        0.0297
     25 C           2.5159   -0.5649   19.2209 C.3     1  UNL1        0.0933
     26 C           2.8313   -1.7821   20.0389 C.3     1  UNL1        0.0329
     27 C           3.9630   -2.6818   19.6392 C.3     1  UNL1        0.0716
     28 C           4.7793   -2.3644   18.4214 C.3     1  UNL1        0.2908
     29 F           5.8321   -2.4841   17.3598 F       1  UNL1       -0.2016
     30 F           5.4603   -3.6231   18.8708 F       1  UNL1       -0.2016
     31 C           4.4639   -1.1473   17.6034 C.3     1  UNL1        0.2082
     32 O           3.3322   -0.2475   18.0032 O.3     1  UNL1       -0.3529
     33 C           2.2005    0.6522   18.4029 C.3     1  UNL1        0.0297
     34 C           1.0689    1.5518   18.8026 C.3     1  UNL1        0.0320
@<TRIPOS>BOND
     1    20    19    1
     2    20    21    1
     3    22    21    1
     4    22    23    1
     5    23    24    1
     6    25    24    1
     7    25    26    1
     8    26    27    1
     9    27    28    1
    10    28    29    1
    11    28    30    1
    12    28    31    1
    13    31    32    1
    14    25    33    1
    15    33    34    1
    16    20     1    1
    17     1     2   ar
    18     2     3   ar
    19     3     6    1
    20     6     7   ar
    21     7     8   ar
    22     8     9    1
    23     8    10   ar
    24    10    14    1
    25    14    15    1
    26    15    16    1
    27    15    17    2
    28    15    18    2
    29    10    11   ar
    30    11    12    1
    31    11    13   ar
    32     3     4   ar
    33     4     5   ar
    34    34    22    1
    35     5     1   ar
    36    32    25    1
    37    13     6   ar
@<TRIPOS>MOLECULE
*****
 34 37 0 0 0
SMALL
GASTEIGER

@<TRIPOS>ATOM
      1 C           7.7423   -4.8846   23.0625 C.ar    1  UNL1        0.2637
      2 N           7.5567   -4.2437   24.4059 N.ar    1  UNL1       -0.1887
      3 C           7.5752   -5.3272   25.4430 C.ar    1  UNL1        0.2035
      4 N           7.7722   -6.6378   24.7406 N.ar    1  UNL1       -0.0559
      5 O           7.8755   -6.3643   23.2694 O.2     1  UNL1       -0.3345
      6 C           7.4233   -5.1340   26.9228 C.ar    1  UNL1        0.0435
      7 C           6.6937   -3.9349   27.4516 C.ar    1  UNL1        0.0327
      8 C           6.5418   -3.7417   28.9313 C.ar    1  UNL1        0.1400
      9 F           5.8121   -2.5425   29.4602 F       1  UNL1       -0.2044
     10 C           7.1196   -4.7476   29.8822 C.ar    1  UNL1        0.0562
     11 C           7.8493   -5.9468   29.3534 C.ar    1  UNL1        0.1400
     12 F           8.4271   -6.9527   30.3043 F       1  UNL1       -0.2044
     13 C           8.0011   -6.1400   27.8737 C.ar    1  UNL1        0.0327
     14 C           6.9677   -4.5544   31.3620 C.3     1  UNL1        0.1817
     15 S           7.4830   -3.3046   32.0119 S.O2    1  UNL1       -0.0039
     16 C           7.9984   -2.0548   32.6619 C.3     1  UNL1        0.1764
     17 O           8.8702   -3.6342   31.5458 O.2     1  UNL1       -0.1726
     18 O           6.0959   -2.9749   32.4780 O.2     1  UNL1       -0.1726
     19 C           8.8409   -3.1352   21.4868 C.3     1  UNL1        0.0423
     20 C           7.7868   -4.1711   21.7438 C.3     1  UNL1        0.1934
     21 O           6.7774   -4.4934   20.6822 O.3     1  UNL1       -0.3493
     22 C           5.6846   -3.5160   20.3648 C.3     1  UNL1        0.1159
     23 C           4.6233   -3.2210   21.3828 C.3     1  UNL1        0.0320
     24 C           3.5306   -2.2436   21.0653 C.3     1  UNL1        0.0297
     25 C           3.4993   -1.5613   19.7298 C.3     1  UNL1        0.0933
     26 C           2.4379   -1.2662   20.7479 C.3     1  UNL1        0.0329
     27 C           1.3452   -0.2888   20.4304 C.3     1  UNL1        0.0716
     28 C           1.3139    0.3934   19.0949 C.3     1  UNL1        0.2908
     29 F           0.8592    1.2858   17.9783 F       1  UNL1       -0.2016
     30 F           0.0946    0.9984   19.7252 F       1  UNL1       -0.2016
     31 C           2.3753    0.0984   18.0769 C.3     1  UNL1        0.2082
     32 O           3.4680   -0.8790   18.3944 O.3     1  UNL1       -0.3529
     33 C           4.5607   -1.8564   18.7118 C.3     1  UNL1        0.0297
     34 C           5.6533   -2.8337   19.0293 C.3     1  UNL1        0.0320
@<TRIPOS>BOND
     1    20    19    1
     2    20    21    1
     3    22    21    1
     4    22    23    1
     5    23    24    1
     6    25    24    1
     7    25    26    1
     8    26    27    1
     9    27    28    1
    10    28    29    1
    11    28    30    1
    12    28    31    1
    13    31    32    1
    14    25    33    1
    15    33    34    1
    16    20     1    1
    17     1     2   ar
    18     2     3   ar
    19     3     6    1
    20     6     7   ar
    21     7     8   ar
    22     8     9    1
    23     8    10   ar
    24    10    14    1
    25    14    15    1
    26    15    16    1
    27    15    17    2
    28    15    18    2
    29    10    11   ar
    30    11    12    1
    31    11    13   ar
    32     3     4   ar
    33     4     5   ar
    34    34    22    1
    35     5     1   ar
    36    32    25    1
    37    13     6   ar
@<TRIPOS>MOLECULE
*****
 34 37 0 0 0
SMALL
GASTEIGER

@<TRIPOS>ATOM
      1 C          -0.9272    2.7502   19.7562 C.ar    1  UNL1        0.2637
      2 N           0.1412    2.0623   18.9592 N.ar    1  UNL1       -0.1887
      3 C           0.7581    1.0051   19.8262 C.ar    1  UNL1        0.2035
      4 N           0.0710    1.0396   21.1592 N.ar    1  UNL1       -0.0559
      5 O          -0.9706    2.1182   21.1159 O.2     1  UNL1       -0.3345
      6 C           1.8674    0.0764   19.4299 C.ar    1  UNL1        0.0435
      7 C           2.7441    0.4116   18.2599 C.ar    1  UNL1        0.0327
      8 C           3.8534   -0.5171   17.8636 C.ar    1  UNL1        0.1400
      9 F           4.7301   -0.1820   16.6934 F       1  UNL1       -0.2044
     10 C           4.0859   -1.7809   18.6373 C.ar    1  UNL1        0.0562
     11 C           3.2093   -2.1161   19.8074 C.ar    1  UNL1        0.1400
     12 F           3.4418   -3.3798   20.5811 F       1  UNL1       -0.2044
     13 C           2.1000   -1.1874   20.2037 C.ar    1  UNL1        0.0327
     14 C           5.1953   -2.7096   18.2409 C.3     1  UNL1        0.1817
     15 S           6.6139   -2.3793   18.5992 S.O2    1  UNL1       -0.0039
     16 C           8.0326   -2.0490   18.9574 C.3     1  UNL1        0.1764
     17 O           6.3210   -2.6827   20.0387 O.2     1  UNL1       -0.1726
     18 O           6.9068   -2.0758   17.1596 O.2     1  UNL1       -0.1726
     19 C          -1.1820    5.1712   18.8484 C.3     1  UNL1        0.0423
     20 C          -1.7991    3.8731   19.2777 C.3     1  UNL1        0.1934
     21 O          -3.2879    3.6978   19.2283 O.3     1  UNL1       -0.3493
     22 C          -4.1295    4.0974   20.4040 C.3     1  UNL1        0.1159
     23 C          -5.6224    3.9681   20.3362 C.3     1  UNL1        0.0320
     24 C          -6.4639    4.3676   21.5119 C.3     1  UNL1        0.0297
     25 C          -5.8126    4.8964   22.7553 C.3     1  UNL1        0.0933
     26 C          -7.3055    4.7672   22.6876 C.3     1  UNL1        0.0329
     27 C          -8.1470    5.1667   23.8632 C.3     1  UNL1        0.0716
     28 C          -7.4957    5.6955   25.1067 C.3     1  UNL1        0.2908
     29 F          -7.3445    6.2457   26.4938 F       1  UNL1       -0.2016
     30 F          -8.9361    5.7573   25.5206 F       1  UNL1       -0.2016
     31 C          -6.0028    5.8247   25.1745 C.3     1  UNL1        0.2082
     32 O          -5.1612    5.4252   23.9988 O.3     1  UNL1       -0.3529
     33 C          -4.3197    5.0257   22.8231 C.3     1  UNL1        0.0297
     34 C          -3.4782    4.6261   21.6475 C.3     1  UNL1        0.0320
@<TRIPOS>BOND
     1    20    19    1
     2    20    21    1
     3    22    21    1
     4    22    23    1
     5    23    24    1
     6    25    24    1
     7    25    26    1
     8    26    27    1
     9    27    28    1
    10    28    29    1
    11    28    30    1
    12    28    31    1
    13    31    32    1
    14    25    33    1
    15    33    34    1
    16    20     1    1
    17     1     2   ar
    18     2     3   ar
    19     3     6    1
    20     6     7   ar
    21     7     8   ar
    22     8     9    1
    23     8    10   ar
    24    10    14    1
    25    14    15    1
    26    15    16    1
    27    15    17    2
    28    15    18    2
    29    10    11   ar
    30    11    12    1
    31    11    13   ar
    32     3     4   ar
    33     4     5   ar
    34    34    22    1
    35     5     1   ar
    36    32    25    1
    37    13     6   ar
@<TRIPOS>MOLECULE
*****
 34 37 0 0 0
SMALL
GASTEIGER

@<TRIPOS>ATOM
      1 C          -5.8036  -16.0147   26.5249 C.ar    1  UNL1        0.2637
      2 N          -5.4577  -16.0561   25.0659 N.ar    1  UNL1       -0.1887
      3 C          -4.4020  -17.1033   24.8694 C.ar    1  UNL1        0.2035
      4 N          -4.0953  -17.7092   26.2069 N.ar    1  UNL1       -0.0559
      5 O          -4.9616  -17.0363   27.2300 O.2     1  UNL1       -0.3345
      6 C          -3.7647  -17.4788   23.5644 C.ar    1  UNL1        0.0435
      7 C          -4.1154  -18.7798   22.9055 C.ar    1  UNL1        0.0327
      8 C          -3.4781  -19.1553   21.6005 C.ar    1  UNL1        0.1400
      9 F          -3.8288  -20.4564   20.9415 F       1  UNL1       -0.2044
     10 C          -2.4903  -18.2297   20.9545 C.ar    1  UNL1        0.0562
     11 C          -2.1395  -16.9286   21.6134 C.ar    1  UNL1        0.1400
     12 F          -1.1517  -16.0031   20.9675 F       1  UNL1       -0.2044
     13 C          -2.7768  -16.5532   22.9184 C.ar    1  UNL1        0.0327
     14 C          -1.8530  -18.6053   19.6495 C.3     1  UNL1        0.1817
     15 S          -2.1453  -17.8055   18.4146 S.O2    1  UNL1       -0.0039
     16 C          -2.4376  -17.0058   17.1797 C.3     1  UNL1        0.1764
     17 O          -0.6967  -17.8692   18.0305 O.2     1  UNL1       -0.1726
     18 O          -3.5939  -17.7418   18.7987 O.2     1  UNL1       -0.1726
     19 C          -6.3632  -13.8793   27.8951 C.3     1  UNL1        0.0423
     20 C          -6.8141  -15.1104   27.1662 C.3     1  UNL1        0.1934
     21 O          -8.2754  -15.4371   27.0785 O.3     1  UNL1       -0.3493
     22 C          -8.7955  -16.2454   25.9268 C.3     1  UNL1        0.1159
     23 C          -9.2405  -17.6612   26.1446 C.3     1  UNL1        0.0320
     24 C          -9.7605  -18.4694   24.9930 C.3     1  UNL1        0.0297
     25 C          -9.8356  -17.8619   23.6236 C.3     1  UNL1        0.0933
     26 C         -10.2806  -19.2777   23.8413 C.3     1  UNL1        0.0329
     27 C         -10.8006  -20.0860   22.6897 C.3     1  UNL1        0.0716
     28 C         -10.8756  -19.4784   21.3203 C.3     1  UNL1        0.2908
     29 F         -11.1367  -19.3467   19.8492 F       1  UNL1       -0.2016
     30 F         -11.4113  -20.8485   21.0272 F       1  UNL1       -0.2016
     31 C         -10.4307  -18.0626   21.1025 C.3     1  UNL1        0.2082
     32 O          -9.9106  -17.2543   22.2542 O.3     1  UNL1       -0.3529
     33 C          -9.3906  -16.4461   23.4058 C.3     1  UNL1        0.0297
     34 C          -8.8706  -15.6378   24.5574 C.3     1  UNL1        0.0320
@<TRIPOS>BOND
     1    20    19    1
     2    20    21    1
     3    22    21    1
     4    22    23    1
     5    23    24    1
     6    25    24    1
     7    25    26    1
     8    26    27    1
     9    27    28    1
    10    28    29    1
    11    28    30    1
    12    28    31    1
    13    31    32    1
    14    25    33    1
    15    33    34    1
    16    20     1    1
    17     1     2   ar
    18     2     3   ar
    19     3     6    1
    20     6     7   ar
    21     7     8   ar
    22     8     9    1
    23     8    10   ar
    24    10    14    1
    25    14    15    1
    26    15    16    1
    27    15    17    2
    28    15    18    2
    29    10    11   ar
    30    11    12    1
    31    11    13   ar
    32     3     4   ar
    33     4     5   ar
    34    34    22    1
    35     5     1   ar
    36    32    25    1
    37    13     6   ar
@<TRIPOS>MOLECULE
*****
 34 37 0 0 0
SMALL
GASTEIGER

@<TRIPOS>ATOM
      1 C           6.2914   -3.8064   20.0961 C.ar    1  UNL1        0.2637
      2 N           6.2002   -4.4271   21.4585 N.ar    1  UNL1       -0.1887
      3 C           7.4813   -4.1416   22.1848 C.ar    1  UNL1        0.2035
      4 N           8.3642   -3.3443   21.2711 N.ar    1  UNL1       -0.0559
      5 O           7.6289   -3.1372   19.9803 O.2     1  UNL1       -0.3345
      6 C           7.8199   -4.5769   23.5797 C.ar    1  UNL1        0.0435
      7 C           8.0313   -3.5522   24.6546 C.ar    1  UNL1        0.0327
      8 C           8.3699   -3.9875   26.0495 C.ar    1  UNL1        0.1400
      9 F           8.5814   -2.9628   27.1244 F       1  UNL1       -0.2044
     10 C           8.4970   -5.4473   26.3696 C.ar    1  UNL1        0.0562
     11 C           8.2855   -6.4721   25.2948 C.ar    1  UNL1        0.1400
     12 F           8.4126   -7.9319   25.6148 F       1  UNL1       -0.2044
     13 C           7.9470   -6.0368   23.8998 C.ar    1  UNL1        0.0327
     14 C           8.8356   -5.8826   27.7646 C.3     1  UNL1        0.1817
     15 S           7.8838   -5.6023   28.8895 S.O2    1  UNL1       -0.0039
     16 C           6.9319   -5.3220   30.0145 C.3     1  UNL1        0.1764
     17 O           6.7574   -6.1702   28.0780 O.2     1  UNL1       -0.1726
     18 O           9.0102   -5.0343   29.7011 O.2     1  UNL1       -0.1726
     19 C           4.4153   -5.0908   18.8388 C.3     1  UNL1        0.0423
     20 C           5.2314   -3.8476   19.0356 C.3     1  UNL1        0.1934
     21 O           4.9873   -2.6457   18.1720 O.3     1  UNL1       -0.3493
     22 C           3.9271   -1.6539   18.5492 C.3     1  UNL1        0.1159
     23 C           3.1981   -1.7945   19.8526 C.3     1  UNL1        0.0320
     24 C           2.1380   -0.8027   20.2297 C.3     1  UNL1        0.0297
     25 C           1.8067    0.3297   19.3035 C.3     1  UNL1        0.0933
     26 C           1.0777    0.1891   20.6069 C.3     1  UNL1        0.0329
     27 C           0.0175    1.1809   20.9841 C.3     1  UNL1        0.0716
     28 C          -0.3138    2.3133   20.0578 C.3     1  UNL1        0.2908
     29 F          -0.9783    3.5455   19.5193 F       1  UNL1       -0.2016
     30 F          -1.2735    2.6006   21.1742 F       1  UNL1       -0.2016
     31 C           0.4151    2.4539   18.7544 C.3     1  UNL1        0.2082
     32 O           1.4754    1.4621   18.3772 O.3     1  UNL1       -0.3529
     33 C           2.5356    0.4703   18.0001 C.3     1  UNL1        0.0297
     34 C           3.5958   -0.5215   17.6229 C.3     1  UNL1        0.0320
@<TRIPOS>BOND
     1    20    19    1
     2    20    21    1
     3    22    21    1
     4    22    23    1
     5    23    24    1
     6    25    24    1
     7    25    26    1
     8    26    27    1
     9    27    28    1
    10    28    29    1
    11    28    30    1
    12    28    31    1
    13    31    32    1
    14    25    33    1
    15    33    34    1
    16    20     1    1
    17     1     2   ar
    18     2     3   ar
    19     3     6    1
    20     6     7   ar
    21     7     8   ar
    22     8     9    1
    23     8    10   ar
    24    10    14    1
    25    14    15    1
    26    15    16    1
    27    15    17    2
    28    15    18    2
    29    10    11   ar
    30    11    12    1
    31    11    13   ar
    32     3     4   ar
    33     4     5   ar
    34    34    22    1
    35     5     1   ar
    36    32    25    1
    37    13     6   ar
