@<TRIPOS>MOLECULE
*****
 32 34 0 0 0
SMALL
GASTEIGER

@<TRIPOS>ATOM
      1 C          -8.3911  -19.4958   20.2942 C.ar    1  UNL1        0.0566
      2 C          -9.3095  -19.2628   19.1313 C.ar    1  UNL1        0.0078
      3 C         -10.7286  -18.8395   19.3696 C.ar    1  UNL1        0.0402
      4 C         -11.2294  -18.6493   20.7707 C.ar    1  UNL1        0.1724
      5 C         -10.3110  -18.8823   21.9335 C.ar    1  UNL1        0.1722
      6 C          -8.8919  -19.3056   21.6952 C.ar    1  UNL1        0.0445
      7 N          -5.9266  -18.8920   19.7356 N.am    1  UNL1       -0.2968
      8 C          -6.9718  -19.9190   20.0560 C.2     1  UNL1        0.2462
      9 O          -6.5979  -21.3693   20.1381 O.2     1  UNL1       -0.2701
     10 H          -6.1721  -17.9401   19.6817 H       1  UNL1        0.1501
     11 C          -4.5074  -19.3152   19.4974 C.3     1  UNL1        0.1190
     12 N          -1.3475  -17.3926   20.6738 N.ar    1  UNL1       -0.2555
     13 N          -1.9829  -17.7376   21.9880 N.ar    1  UNL1       -0.1743
     14 C          -3.2440  -18.4998   21.7073 C.ar    1  UNL1        0.0777
     15 C          -4.1942  -19.0409   22.7340 C.3     1  UNL1        0.0537
     16 C          -3.3879  -18.6259   20.2196 C.ar    1  UNL1        0.0259
     17 C          -2.2158  -17.9416   19.5808 C.ar    1  UNL1        0.0547
     18 C          -1.9574  -17.8266   18.1078 C.3     1  UNL1        0.0515
     19 C           1.2005  -17.3660   20.1664 C.3     1  UNL1        0.0284
     20 C          -0.0683  -16.6322   20.4856 C.3     1  UNL1        0.1271
     21 O         -12.6487  -18.2261   21.0089 O.3     1  UNL1       -0.4684
     22 C         -12.9627  -16.7907   21.3103 C.3     1  UNL1        0.2526
     23 O         -10.8118  -18.6921   23.3346 O.3     1  UNL1       -0.4760
     24 C         -10.0443  -17.8331   24.2952 C.3     1  UNL1        0.1688
     25 C          -9.7268  -18.3438   25.6694 C.3     1  UNL1        0.0609
     26 C          -8.9592  -17.4847   26.6300 C.3     1  UNL1        0.0758
     27 N          -8.5093  -16.1149   26.2166 N.3     1  UNL1       -0.2737
     28 C          -8.8268  -15.6041   24.8424 C.3     1  UNL1        0.0758
     29 C          -9.5943  -16.4631   23.8818 C.3     1  UNL1        0.0609
     30 C          -7.7417  -15.2557   27.1772 C.3     1  UNL1        0.0576
     31 C          -6.2428  -15.2286   27.1265 C.3     1  UNL1        0.0173
     32 C          -8.4731  -14.4237   28.1885 C.3     1  UNL1        0.0173
@<TRIPOS>BOND
     1    19    20    1
     2    20    12    1
     3    12    13   ar
     4    13    14   ar
     5    14    15    1
     6    14    16   ar
     7    16    11    1
     8    11     7    1
     9     7     8   am
    10     8     9    2
    11     8     1    1
    12     1     2   ar
    13     2     3   ar
    14     3     4   ar
    15     4    21    1
    16    21    22    1
    17     4     5   ar
    18     5    23    1
    19    23    24    1
    20    24    25    1
    21    25    26    1
    22    26    27    1
    23    27    30    1
    24    30    31    1
    25    30    32    1
    26    27    28    1
    27    28    29    1
    28     5     6   ar
    29    16    17   ar
    30    17    18    1
    31    17    12   ar
    32     6     1   ar
    33    29    24    1
    34     7    10    1
@<TRIPOS>MOLECULE
*****
 32 34 0 0 0
SMALL
GASTEIGER

@<TRIPOS>ATOM
      1 C          -5.4837  -19.4904   20.4907 C.ar    1  UNL1        0.0566
      2 C          -4.3898  -20.2574   19.8087 C.ar    1  UNL1        0.0078
      3 C          -2.9543  -19.9143   20.0758 C.ar    1  UNL1        0.0402
      4 C          -2.6126  -18.8041   21.0249 C.ar    1  UNL1        0.1724
      5 C          -3.7064  -18.0372   21.7070 C.ar    1  UNL1        0.1722
      6 C          -5.1420  -18.3803   21.4398 C.ar    1  UNL1        0.0445
      7 N          -8.0002  -18.8479   20.5551 N.am    1  UNL1       -0.2968
      8 C          -6.9193  -19.8336   20.2236 C.2     1  UNL1        0.2462
      9 O          -7.2739  -21.1625   19.6250 O.2     1  UNL1       -0.2701
     10 H          -7.7674  -17.9757   20.9480 H       1  UNL1        0.1501
     11 C          -9.4359  -19.1910   20.2880 C.3     1  UNL1        0.1190
     12 N         -12.0146  -18.3377   23.0606 N.ar    1  UNL1       -0.2555
     13 N         -12.3351  -17.2914   22.0347 N.ar    1  UNL1       -0.1743
     14 C         -11.4081  -17.4837   20.8712 C.ar    1  UNL1        0.0777
     15 C         -11.3795  -16.6561   19.6205 C.3     1  UNL1        0.0537
     16 C         -10.5147  -18.6489   21.1780 C.ar    1  UNL1        0.0259
     17 C         -10.8895  -19.1767   22.5312 C.ar    1  UNL1        0.0547
     18 C         -10.2513  -20.3393   23.2318 C.3     1  UNL1        0.0515
     19 C         -14.1467  -18.1510   24.5335 C.3     1  UNL1        0.0284
     20 C         -12.6990  -18.5141   24.3837 C.3     1  UNL1        0.1271
     21 O          -1.1769  -18.4610   21.2920 O.3     1  UNL1       -0.4684
     22 C          -0.3109  -17.9420   20.1827 C.3     1  UNL1        0.2526
     23 O          -3.3647  -16.9270   22.6561 O.3     1  UNL1       -0.4760
     24 C          -4.3096  -16.5712   23.7654 C.3     1  UNL1        0.1688
     25 C          -4.0664  -17.0879   25.1524 C.3     1  UNL1        0.0609
     26 C          -5.0114  -16.7320   26.2617 C.3     1  UNL1        0.0758
     27 N          -6.1994  -15.8595   25.9840 N.3     1  UNL1       -0.2737
     28 C          -6.4426  -15.3429   24.5969 C.3     1  UNL1        0.0758
     29 C          -5.4978  -15.6987   23.4876 C.3     1  UNL1        0.0609
     30 C          -7.1444  -15.5037   27.0933 C.3     1  UNL1        0.0576
     31 C          -6.8643  -14.3155   27.9649 C.3     1  UNL1        0.0173
     32 C          -8.3694  -16.3360   27.3309 C.3     1  UNL1        0.0173
@<TRIPOS>BOND
     1    19    20    1
     2    20    12    1
     3    12    13   ar
     4    13    14   ar
     5    14    15    1
     6    14    16   ar
     7    16    11    1
     8    11     7    1
     9     7     8   am
    10     8     9    2
    11     8     1    1
    12     1     2   ar
    13     2     3   ar
    14     3     4   ar
    15     4    21    1
    16    21    22    1
    17     4     5   ar
    18     5    23    1
    19    23    24    1
    20    24    25    1
    21    25    26    1
    22    26    27    1
    23    27    30    1
    24    30    31    1
    25    30    32    1
    26    27    28    1
    27    28    29    1
    28     5     6   ar
    29    16    17   ar
    30    17    18    1
    31    17    12   ar
    32     6     1   ar
    33    29    24    1
    34     7    10    1
@<TRIPOS>MOLECULE
*****
 32 34 0 0 0
SMALL
GASTEIGER

@<TRIPOS>ATOM
      1 C           7.8149   -7.0469   27.0676 C.ar    1  UNL1        0.0566
      2 C           7.1085   -6.2956   28.1569 C.ar    1  UNL1        0.0078
      3 C           6.7928   -4.8399   27.9808 C.ar    1  UNL1        0.0402
      4 C           7.1834   -4.1354   26.7154 C.ar    1  UNL1        0.1724
      5 C           7.8898   -4.8867   25.6261 C.ar    1  UNL1        0.1722
      6 C           8.2055   -6.3425   25.8022 C.ar    1  UNL1        0.0445
      7 N           7.0446   -9.4653   27.6229 N.am    1  UNL1       -0.2968
      8 C           8.1307   -8.5027   27.2436 C.2     1  UNL1        0.2462
      9 O           9.5327   -8.9960   27.0405 O.2     1  UNL1       -0.2701
     10 H           6.1245   -9.1415   27.7562 H       1  UNL1        0.1501
     11 C           7.3604  -10.9211   27.7989 C.3     1  UNL1        0.1190
     12 N           4.0837  -12.9632   28.1967 N.ar    1  UNL1       -0.2555
     13 N           5.0562  -13.8271   28.9437 N.ar    1  UNL1       -0.1743
     14 C           6.4020  -13.1672   28.8856 C.ar    1  UNL1        0.0777
     15 C           7.6664  -13.6877   29.5022 C.3     1  UNL1        0.0537
     16 C           6.2613  -11.8956   28.1027 C.ar    1  UNL1        0.0259
     17 C           4.8285  -11.7695   27.6769 C.ar    1  UNL1        0.0547
     18 C           4.2433  -10.6467   26.8726 C.3     1  UNL1        0.0515
     19 C           1.7235  -13.3915   29.1947 C.3     1  UNL1        0.0284
     20 C           2.6229  -13.2438   28.0034 C.3     1  UNL1        0.1271
     21 O           6.8676   -2.6796   26.5393 O.3     1  UNL1       -0.4684
     22 C           5.9074   -2.0024   27.4717 C.3     1  UNL1        0.2526
     23 O           8.2804   -4.1823   24.3608 O.3     1  UNL1       -0.4760
     24 C           7.3080   -4.0911   23.2223 C.3     1  UNL1        0.1688
     25 C           5.8469   -3.8937   23.4979 C.3     1  UNL1        0.0609
     26 C           4.8745   -3.8025   22.3593 C.3     1  UNL1        0.0758
     27 N           5.3633   -3.9088   20.9452 N.3     1  UNL1       -0.2737
     28 C           6.8245   -4.1061   20.6696 C.3     1  UNL1        0.0758
     29 C           7.7969   -4.1973   21.8081 C.3     1  UNL1        0.0609
     30 C           4.3910   -3.8176   19.8066 C.3     1  UNL1        0.0576
     31 C           3.5769   -2.5726   19.6134 C.3     1  UNL1        0.0173
     32 C           4.2327   -4.9714   18.8613 C.3     1  UNL1        0.0173
@<TRIPOS>BOND
     1    19    20    1
     2    20    12    1
     3    12    13   ar
     4    13    14   ar
     5    14    15    1
     6    14    16   ar
     7    16    11    1
     8    11     7    1
     9     7     8   am
    10     8     9    2
    11     8     1    1
    12     1     2   ar
    13     2     3   ar
    14     3     4   ar
    15     4    21    1
    16    21    22    1
    17     4     5   ar
    18     5    23    1
    19    23    24    1
    20    24    25    1
    21    25    26    1
    22    26    27    1
    23    27    30    1
    24    30    31    1
    25    30    32    1
    26    27    28    1
    27    28    29    1
    28     5     6   ar
    29    16    17   ar
    30    17    18    1
    31    17    12   ar
    32     6     1   ar
    33    29    24    1
    34     7    10    1
@<TRIPOS>MOLECULE
*****
 32 34 0 0 0
SMALL
GASTEIGER

@<TRIPOS>ATOM
      1 C         -17.1589   -5.7069   19.5281 C.ar    1  UNL1        0.0566
      2 C         -18.1650   -6.7944   19.7625 C.ar    1  UNL1        0.0078
      3 C         -17.7613   -8.2323   19.6235 C.ar    1  UNL1        0.0402
      4 C         -16.3514   -8.5828   19.2501 C.ar    1  UNL1        0.1724
      5 C         -15.3453   -7.4953   19.0157 C.ar    1  UNL1        0.1722
      6 C         -15.7490   -6.0574   19.1547 C.ar    1  UNL1        0.0445
      7 N         -16.5336   -3.1852   19.5376 N.am    1  UNL1       -0.2968
      8 C         -17.5625   -4.2689   19.6671 C.2     1  UNL1        0.2462
      9 O         -18.9952   -3.9147   19.9357 O.2     1  UNL1       -0.2701
     10 H         -15.5933   -3.4177   19.3613 H       1  UNL1        0.1501
     11 C         -16.9373   -1.7472   19.6766 C.3     1  UNL1        0.1190
     12 N         -14.0076    0.5132   18.5049 N.ar    1  UNL1       -0.2555
     13 N         -14.9089    1.5206   19.1551 N.ar    1  UNL1       -0.1743
     14 C         -16.1161    0.7965   19.6731 C.ar    1  UNL1        0.0777
     15 C         -17.2750    1.4182   20.3945 C.3     1  UNL1        0.0537
     16 C         -15.9609   -0.6585   19.3431 C.ar    1  UNL1        0.0259
     17 C         -14.6578   -0.8336   18.6211 C.ar    1  UNL1        0.0547
     18 C         -14.1023   -2.1282   18.1058 C.3     1  UNL1        0.0515
     19 C         -12.6267    1.1046   16.3851 C.3     1  UNL1        0.0284
     20 C         -12.6879    0.8018   17.8530 C.3     1  UNL1        0.1271
     21 O         -15.9477  -10.0208   19.1111 O.3     1  UNL1       -0.4684
     22 C         -16.9453  -11.0378   18.6416 C.3     1  UNL1        0.2526
     23 O         -13.9354   -7.8457   18.6424 O.3     1  UNL1       -0.4760
     24 C         -12.9915   -6.7728   18.1863 C.3     1  UNL1        0.1688
     25 C         -12.0910   -6.0956   19.1764 C.3     1  UNL1        0.0609
     26 C         -11.1471   -5.0227   18.7203 C.3     1  UNL1        0.0758
     27 N         -11.1038   -4.6270   17.2741 N.3     1  UNL1       -0.2737
     28 C         -12.0044   -5.3043   16.2839 C.3     1  UNL1        0.0758
     29 C         -12.9482   -6.3772   16.7400 C.3     1  UNL1        0.0609
     30 C         -10.1600   -3.5541   16.8179 C.3     1  UNL1        0.0576
     31 C          -8.8282   -3.9247   16.2356 C.3     1  UNL1        0.0173
     32 C         -10.5479   -2.1106   16.9441 C.3     1  UNL1        0.0173
@<TRIPOS>BOND
     1    19    20    1
     2    20    12    1
     3    12    13   ar
     4    13    14   ar
     5    14    15    1
     6    14    16   ar
     7    16    11    1
     8    11     7    1
     9     7     8   am
    10     8     9    2
    11     8     1    1
    12     1     2   ar
    13     2     3   ar
    14     3     4   ar
    15     4    21    1
    16    21    22    1
    17     4     5   ar
    18     5    23    1
    19    23    24    1
    20    24    25    1
    21    25    26    1
    22    26    27    1
    23    27    30    1
    24    30    31    1
    25    30    32    1
    26    27    28    1
    27    28    29    1
    28     5     6   ar
    29    16    17   ar
    30    17    18    1
    31    17    12   ar
    32     6     1   ar
    33    29    24    1
    34     7    10    1
@<TRIPOS>MOLECULE
*****
 32 34 0 0 0
SMALL
GASTEIGER

@<TRIPOS>ATOM
      1 C           7.0314   -3.4746   20.4115 C.ar    1  UNL1        0.0566
      2 C           7.7544   -2.7979   19.2850 C.ar    1  UNL1        0.0078
      3 C           6.9806   -2.0599   18.2331 C.ar    1  UNL1        0.0402
      4 C           5.4837   -1.9987   18.3077 C.ar    1  UNL1        0.1724
      5 C           4.7606   -2.6755   19.4343 C.ar    1  UNL1        0.1722
      6 C           5.5345   -3.4134   20.4862 C.ar    1  UNL1        0.0445
      7 N           8.0887   -3.5586   22.7833 N.am    1  UNL1       -0.2968
      8 C           7.8052   -4.2126   21.4635 C.2     1  UNL1        0.2462
      9 O           8.2956   -5.6047   21.1956 O.2     1  UNL1       -0.2701
     10 H           7.7668   -2.6449   22.9591 H       1  UNL1        0.1501
     11 C           8.8625   -4.2966   23.8353 C.3     1  UNL1        0.1190
     12 N           6.8757   -5.5155   26.9388 N.ar    1  UNL1       -0.2555
     13 N           7.1643   -6.8165   26.2500 N.ar    1  UNL1       -0.1743
     14 C           7.9436   -6.5181   25.0036 C.ar    1  UNL1        0.0777
     15 C           8.4423   -7.5279   24.0127 C.3     1  UNL1        0.0537
     16 C           8.1368   -5.0329   24.9220 C.ar    1  UNL1        0.0259
     17 C           7.4768   -4.4132   26.1181 C.ar    1  UNL1        0.0547
     18 C           7.4267   -2.9485   26.4373 C.3     1  UNL1        0.0515
     19 C           6.8385   -5.4421   29.5356 C.3     1  UNL1        0.0284
     20 C           6.1190   -5.3466   28.2229 C.3     1  UNL1        0.1271
     21 O           4.7098   -1.2607   17.2558 O.3     1  UNL1       -0.4684
     22 C           4.4761    0.2145   17.3932 C.3     1  UNL1        0.2526
     23 O           3.2638   -2.6143   19.5090 O.3     1  UNL1       -0.4760
     24 C           2.5965   -1.5459   20.3234 C.3     1  UNL1        0.1688
     25 C           1.3757   -0.8526   19.7952 C.3     1  UNL1        0.0609
     26 C           0.7085    0.2158   20.6097 C.3     1  UNL1        0.0758
     27 N           1.2620    0.5908   21.9524 N.3     1  UNL1       -0.2737
     28 C           2.4828   -0.1025   22.4807 C.3     1  UNL1        0.0758
     29 C           3.1500   -1.1708   21.6662 C.3     1  UNL1        0.0609
     30 C           0.5947    1.6592   22.7670 C.3     1  UNL1        0.0576
     31 C          -0.1461    2.7703   22.0839 C.3     1  UNL1        0.0173
     32 C           0.6684    1.6164   24.2645 C.3     1  UNL1        0.0173
@<TRIPOS>BOND
     1    19    20    1
     2    20    12    1
     3    12    13   ar
     4    13    14   ar
     5    14    15    1
     6    14    16   ar
     7    16    11    1
     8    11     7    1
     9     7     8   am
    10     8     9    2
    11     8     1    1
    12     1     2   ar
    13     2     3   ar
    14     3     4   ar
    15     4    21    1
    16    21    22    1
    17     4     5   ar
    18     5    23    1
    19    23    24    1
    20    24    25    1
    21    25    26    1
    22    26    27    1
    23    27    30    1
    24    30    31    1
    25    30    32    1
    26    27    28    1
    27    28    29    1
    28     5     6   ar
    29    16    17   ar
    30    17    18    1
    31    17    12   ar
    32     6     1   ar
    33    29    24    1
    34     7    10    1
@<TRIPOS>MOLECULE
*****
 32 34 0 0 0
SMALL
GASTEIGER

@<TRIPOS>ATOM
      1 C           6.2433   -3.0826   25.5013 C.ar    1  UNL1        0.0566
      2 C           6.8366   -4.1699   26.3472 C.ar    1  UNL1        0.0078
      3 C           7.4269   -5.3869   25.6987 C.ar    1  UNL1        0.0402
      4 C           7.4237   -5.5165   24.2043 C.ar    1  UNL1        0.1724
      5 C           6.8304   -4.4291   23.3584 C.ar    1  UNL1        0.1722
      6 C           6.2401   -3.2122   24.0069 C.ar    1  UNL1        0.0445
      7 N           4.2627   -1.9143   26.7107 N.am    1  UNL1       -0.2968
      8 C           5.6530   -1.8655   26.1498 C.2     1  UNL1        0.2462
      9 O           6.4531   -0.5998   26.2373 O.2     1  UNL1       -0.2701
     10 H           3.7376   -2.7451   26.6532 H       1  UNL1        0.1501
     11 C           3.6724   -0.6973   27.3592 C.3     1  UNL1        0.1190
     12 N           3.6379   -0.8530   31.2373 N.ar    1  UNL1       -0.2555
     13 N           2.1962   -0.5581   30.9462 N.ar    1  UNL1       -0.1743
     14 C           2.0337   -0.4639   29.4580 C.ar    1  UNL1        0.0777
     15 C           0.7546   -0.1824   28.7269 C.3     1  UNL1        0.0537
     16 C           3.3749   -0.7005   28.8294 C.ar    1  UNL1        0.0259
     17 C           4.3663   -0.9411   29.9291 C.ar    1  UNL1        0.0547
     18 C           5.8293   -1.2205   29.7516 C.3     1  UNL1        0.0515
     19 C           4.5559   -2.4049   33.1079 C.3     1  UNL1        0.0284
     20 C           4.2445   -1.0290   32.5978 C.3     1  UNL1        0.1271
     21 O           8.0140   -6.7335   23.5558 O.3     1  UNL1       -0.4684
     22 C           9.4995   -6.8436   23.3796 C.3     1  UNL1        0.2526
     23 O           6.8272   -4.5588   21.8640 O.3     1  UNL1       -0.4760
     24 C           6.0959   -3.5528   21.0255 C.3     1  UNL1        0.1688
     25 C           6.8068   -2.3265   20.5349 C.3     1  UNL1        0.0609
     26 C           6.0754   -1.3205   19.6964 C.3     1  UNL1        0.0758
     27 N           4.6331   -1.5409   19.3484 N.3     1  UNL1       -0.2737
     28 C           3.9221   -2.7673   19.8389 C.3     1  UNL1        0.0758
     29 C           4.6535   -3.7732   20.6775 C.3     1  UNL1        0.0609
     30 C           3.9016   -0.5350   18.5098 C.3     1  UNL1        0.0576
     31 C           3.7506   -0.7567   17.0340 C.3     1  UNL1        0.0173
     32 C           3.3213    0.6927   19.1470 C.3     1  UNL1        0.0173
@<TRIPOS>BOND
     1    19    20    1
     2    20    12    1
     3    12    13   ar
     4    13    14   ar
     5    14    15    1
     6    14    16   ar
     7    16    11    1
     8    11     7    1
     9     7     8   am
    10     8     9    2
    11     8     1    1
    12     1     2   ar
    13     2     3   ar
    14     3     4   ar
    15     4    21    1
    16    21    22    1
    17     4     5   ar
    18     5    23    1
    19    23    24    1
    20    24    25    1
    21    25    26    1
    22    26    27    1
    23    27    30    1
    24    30    31    1
    25    30    32    1
    26    27    28    1
    27    28    29    1
    28     5     6   ar
    29    16    17   ar
    30    17    18    1
    31    17    12   ar
    32     6     1   ar
    33    29    24    1
    34     7    10    1
@<TRIPOS>MOLECULE
*****
 32 34 0 0 0
SMALL
GASTEIGER

@<TRIPOS>ATOM
      1 C          -8.4602  -19.2142   20.1438 C.ar    1  UNL1        0.0566
      2 C          -9.5455  -19.7933   19.2855 C.ar    1  UNL1        0.0078
      3 C         -10.9697  -19.3690   19.4895 C.ar    1  UNL1        0.0402
      4 C         -11.3086  -18.3657   20.5518 C.ar    1  UNL1        0.1724
      5 C         -10.2233  -17.7866   21.4101 C.ar    1  UNL1        0.1722
      6 C          -8.7991  -18.2109   21.2061 C.ar    1  UNL1        0.0445
      7 N          -6.0269  -18.6553   19.4252 N.am    1  UNL1       -0.2968
      8 C          -7.0360  -19.6385   19.9399 C.2     1  UNL1        0.2462
      9 O          -6.6209  -21.0461   20.2506 O.2     1  UNL1       -0.2701
     10 H          -6.2993  -17.7315   19.2213 H       1  UNL1        0.1501
     11 C          -4.6026  -19.0796   19.2213 C.3     1  UNL1        0.1190
     12 N          -2.3436  -18.0813   22.2155 N.ar    1  UNL1       -0.2555
     13 N          -1.4597  -17.7297   21.0557 N.ar    1  UNL1       -0.1743
     14 C          -2.1984  -18.0609   19.7929 C.ar    1  UNL1        0.0777
     15 C          -1.6865  -17.8694   18.3960 C.3     1  UNL1        0.0537
     16 C          -3.5388  -18.6171   20.1722 C.ar    1  UNL1        0.0259
     17 C          -3.6285  -18.6298   21.6695 C.ar    1  UNL1        0.0547
     18 C          -4.7979  -19.1071   22.4787 C.3     1  UNL1        0.0515
     19 C          -3.0948  -17.7216   24.6765 C.3     1  UNL1        0.0284
     20 C          -2.0025  -17.9139   23.6666 C.3     1  UNL1        0.1271
     21 O         -12.7329  -17.9414   20.7557 O.3     1  UNL1       -0.4684
     22 C         -13.3437  -17.9983   22.1245 C.3     1  UNL1        0.2526
     23 O         -10.5621  -16.7832   22.4723 O.3     1  UNL1       -0.4760
     24 C          -9.5328  -16.3930   23.4912 C.3     1  UNL1        0.1688
     25 C          -9.5691  -16.9974   24.8635 C.3     1  UNL1        0.0609
     26 C          -8.5396  -16.6072   25.8824 C.3     1  UNL1        0.0758
     27 N          -7.4740  -15.6125   25.5289 N.3     1  UNL1       -0.2737
     28 C          -7.4377  -15.0081   24.1565 C.3     1  UNL1        0.0758
     29 C          -8.4670  -15.3983   23.1377 C.3     1  UNL1        0.0609
     30 C          -6.4445  -15.2223   26.5477 C.3     1  UNL1        0.0576
     31 C          -5.0185  -15.0141   26.1314 C.3     1  UNL1        0.0173
     32 C          -6.8410  -15.0402   27.9828 C.3     1  UNL1        0.0173
@<TRIPOS>BOND
     1    19    20    1
     2    20    12    1
     3    12    13   ar
     4    13    14   ar
     5    14    15    1
     6    14    16   ar
     7    16    11    1
     8    11     7    1
     9     7     8   am
    10     8     9    2
    11     8     1    1
    12     1     2   ar
    13     2     3   ar
    14     3     4   ar
    15     4    21    1
    16    21    22    1
    17     4     5   ar
    18     5    23    1
    19    23    24    1
    20    24    25    1
    21    25    26    1
    22    26    27    1
    23    27    30    1
    24    30    31    1
    25    30    32    1
    26    27    28    1
    27    28    29    1
    28     5     6   ar
    29    16    17   ar
    30    17    18    1
    31    17    12   ar
    32     6     1   ar
    33    29    24    1
    34     7    10    1
@<TRIPOS>MOLECULE
*****
 32 34 0 0 0
SMALL
GASTEIGER

@<TRIPOS>ATOM
      1 C           5.5843   -3.0609   24.2406 C.ar    1  UNL1        0.0566
      2 C           6.4586   -4.1018   24.8745 C.ar    1  UNL1        0.0078
      3 C           6.9354   -3.9227   26.2854 C.ar    1  UNL1        0.0402
      4 C           6.5379   -2.7027   27.0623 C.ar    1  UNL1        0.1724
      5 C           5.6635   -1.6618   26.4283 C.ar    1  UNL1        0.1722
      6 C           5.1868   -1.8409   25.0175 C.ar    1  UNL1        0.0445
      7 N           4.1148   -2.2788   22.2458 N.am    1  UNL1       -0.2968
      8 C           5.1074   -3.2399   22.8296 C.2     1  UNL1        0.2462
      9 O           5.6233   -4.3801   22.0026 O.2     1  UNL1       -0.2701
     10 H           3.7763   -1.5304   22.7886 H       1  UNL1        0.1501
     11 C           3.6380   -2.4578   20.8348 C.3     1  UNL1        0.1190
     12 N           6.0705   -1.1000   18.1321 N.ar    1  UNL1       -0.2555
     13 N           5.9545   -2.5381   17.7216 N.ar    1  UNL1       -0.1743
     14 C           5.0292   -3.2217   18.6841 C.ar    1  UNL1        0.0777
     15 C           4.6298   -4.6671   18.6475 C.3     1  UNL1        0.0537
     16 C           4.5733   -2.2062   19.6895 C.ar    1  UNL1        0.0259
     17 C           5.2168   -0.8949   19.3484 C.ar    1  UNL1        0.0547
     18 C           5.0382    0.3950   20.0928 C.3     1  UNL1        0.0515
     19 C           6.2504    0.8967   16.4796 C.3     1  UNL1        0.0284
     20 C           6.8953   -0.0512   17.4468 C.3     1  UNL1        0.1271
     21 O           7.0147   -2.5237   28.4732 O.3     1  UNL1       -0.4684
     22 C           6.6874   -3.5550   29.5120 C.3     1  UNL1        0.2526
     23 O           5.2660   -0.4418   27.2052 O.3     1  UNL1       -0.4760
     24 C           3.8147   -0.1203   27.4058 C.3     1  UNL1        0.1688
     25 C           3.1109    0.7976   26.4508 C.3     1  UNL1        0.0609
     26 C           1.6595    1.1191   26.6515 C.3     1  UNL1        0.0758
     27 N           0.9120    0.5227   27.8071 N.3     1  UNL1       -0.2737
     28 C           1.6158   -0.3953   28.7620 C.3     1  UNL1        0.0758
     29 C           3.0671   -0.7168   28.5614 C.3     1  UNL1        0.0609
     30 C          -0.5394    0.8441   28.0077 C.3     1  UNL1        0.0576
     31 C          -1.4036   -0.0688   28.8261 C.3     1  UNL1        0.0173
     32 C          -1.1265    2.0785   27.3900 C.3     1  UNL1        0.0173
@<TRIPOS>BOND
     1    19    20    1
     2    20    12    1
     3    12    13   ar
     4    13    14   ar
     5    14    15    1
     6    14    16   ar
     7    16    11    1
     8    11     7    1
     9     7     8   am
    10     8     9    2
    11     8     1    1
    12     1     2   ar
    13     2     3   ar
    14     3     4   ar
    15     4    21    1
    16    21    22    1
    17     4     5   ar
    18     5    23    1
    19    23    24    1
    20    24    25    1
    21    25    26    1
    22    26    27    1
    23    27    30    1
    24    30    31    1
    25    30    32    1
    26    27    28    1
    27    28    29    1
    28     5     6   ar
    29    16    17   ar
    30    17    18    1
    31    17    12   ar
    32     6     1   ar
    33    29    24    1
    34     7    10    1
@<TRIPOS>MOLECULE
*****
 32 34 0 0 0
SMALL
GASTEIGER

@<TRIPOS>ATOM
      1 C           6.3720   -2.9575   25.5725 C.ar    1  UNL1        0.0566
      2 C           6.8347   -4.0854   26.4463 C.ar    1  UNL1        0.0078
      3 C           7.3366   -5.3562   25.8275 C.ar    1  UNL1        0.0402
      4 C           7.3759   -5.4991   24.3348 C.ar    1  UNL1        0.1724
      5 C           6.9133   -4.3711   23.4610 C.ar    1  UNL1        0.1722
      6 C           6.4113   -3.1003   24.0798 C.ar    1  UNL1        0.0445
      7 N           5.4721   -1.6626   27.6374 N.am    1  UNL1       -0.2968
      8 C           5.8700   -1.6865   26.1913 C.2     1  UNL1        0.2462
      9 O           5.7660   -0.4396   25.3641 O.2     1  UNL1       -0.2701
     10 H           5.5404   -2.4810   28.1803 H       1  UNL1        0.1501
     11 C           4.9701   -0.3917   28.2562 C.3     1  UNL1        0.1190
     12 N           1.1536    0.0493   28.8089 N.ar    1  UNL1       -0.2555
     13 N           1.5967   -0.3815   30.1757 N.ar    1  UNL1       -0.1743
     14 C           3.0802   -0.5991   30.1350 C.ar    1  UNL1        0.0777
     15 C           3.9390   -1.0362   31.2845 C.3     1  UNL1        0.0537
     16 C           3.5541   -0.3028   28.7431 C.ar    1  UNL1        0.0259
     17 C           2.3635    0.0979   27.9235 C.ar    1  UNL1        0.0547
     18 C           2.3797    0.4801   26.4731 C.3     1  UNL1        0.0515
     19 C          -1.3846   -0.5042   28.8421 C.3     1  UNL1        0.0284
     20 C          -0.2523    0.3744   28.3994 C.3     1  UNL1        0.1271
     21 O           7.8779   -6.7700   23.7160 O.3     1  UNL1       -0.4684
     22 C           9.0047   -7.5231   24.3587 C.3     1  UNL1        0.2526
     23 O           6.9526   -4.5140   21.9683 O.3     1  UNL1       -0.4760
     24 C           6.1077   -3.6227   21.1071 C.3     1  UNL1        0.1688
     25 C           6.7363   -2.4783   20.3687 C.3     1  UNL1        0.0609
     26 C           5.8913   -1.5869   19.5074 C.3     1  UNL1        0.0758
     27 N           4.4180   -1.8400   19.3846 N.3     1  UNL1       -0.2737
     28 C           3.7895   -2.9845   20.1230 C.3     1  UNL1        0.0758
     29 C           4.6343   -3.8758   20.9843 C.3     1  UNL1        0.0609
     30 C           3.5731   -0.9487   18.5233 C.3     1  UNL1        0.0576
     31 C           2.4260   -0.1924   19.1251 C.3     1  UNL1        0.0173
     32 C           3.8752   -0.8138   17.0603 C.3     1  UNL1        0.0173
@<TRIPOS>BOND
     1    19    20    1
     2    20    12    1
     3    12    13   ar
     4    13    14   ar
     5    14    15    1
     6    14    16   ar
     7    16    11    1
     8    11     7    1
     9     7     8   am
    10     8     9    2
    11     8     1    1
    12     1     2   ar
    13     2     3   ar
    14     3     4   ar
    15     4    21    1
    16    21    22    1
    17     4     5   ar
    18     5    23    1
    19    23    24    1
    20    24    25    1
    21    25    26    1
    22    26    27    1
    23    27    30    1
    24    30    31    1
    25    30    32    1
    26    27    28    1
    27    28    29    1
    28     5     6   ar
    29    16    17   ar
    30    17    18    1
    31    17    12   ar
    32     6     1   ar
    33    29    24    1
    34     7    10    1
