@<TRIPOS>MOLECULE
*****
 30 33 0 0 0
SMALL
GASTEIGER

@<TRIPOS>ATOM
      1 C           2.9004    2.5628   37.5194 C.ar    1  UNL1        0.0595
      2 C           2.0748    3.8103   37.6291 C.ar    1  UNL1        0.0343
      3 C           1.5453    4.4706   36.3907 C.ar    1  UNL1        0.1400
      4 F           0.7197    5.7182   36.5004 F       1  UNL1       -0.2042
      5 C           1.8414    3.8833   35.0426 C.ar    1  UNL1        0.0272
      6 C           2.6669    2.6358   34.9329 C.ar    1  UNL1        0.0044
      7 C           3.1964    1.9755   36.1713 C.ar    1  UNL1        0.0557
      8 C           3.9759    0.7640   35.7535 C.2     1  UNL1        0.2491
      9 O           4.6796   -0.1913   36.6712 O.2     1  UNL1       -0.2699
     10 N           3.9282    0.6755   34.2569 N.am    1  UNL1       -0.2735
     11 C           3.1192    1.8323   33.7497 C.3     1  UNL1        0.1206
     12 C           4.5757   -0.3839   33.4152 C.3     1  UNL1        0.0787
     13 C           5.4366    0.0059   32.2503 C.3     1  UNL1        0.0372
     14 C           6.0842   -1.0535   31.4086 C.3     1  UNL1        0.0738
     15 N           5.8709   -2.5026   31.7318 N.3     1  UNL1       -0.2738
     16 C           5.0100   -2.8924   32.8967 C.3     1  UNL1        0.0738
     17 C           4.3625   -1.8330   33.7384 C.3     1  UNL1        0.0372
     18 C           6.5184   -3.5620   30.8901 C.3     1  UNL1        0.0579
     19 C           6.6796   -3.3523   29.4137 C.3     1  UNL1        0.0216
     20 C           7.3272   -4.4117   28.5720 C.3     1  UNL1        0.0679
     21 C           7.8136   -5.6807   29.2068 C.3     1  UNL1        0.2640
     22 F           8.4304   -7.0410   29.3456 F       1  UNL1       -0.2043
     23 F           8.1889   -5.9434   27.7784 F       1  UNL1       -0.2043
     24 C           7.6524   -5.8903   30.6833 C.3     1  UNL1        0.0679
     25 C           7.0049   -4.8309   31.5249 C.3     1  UNL1        0.0216
     26 N           2.9637    0.5268   39.1321 N.am    1  UNL1       -0.3253
     27 C           3.4299    1.9025   38.7578 C.2     1  UNL1        0.2430
     28 O           4.4255    2.6180   39.6220 O.2     1  UNL1       -0.2704
     29 H           3.3113    0.0935   39.9449 H       1  UNL1        0.1453
     30 H           2.3103    0.0572   38.5649 H       1  UNL1        0.1453
@<TRIPOS>BOND
     1    26    27   am
     2    27    28    2
     3    27     1    1
     4     1     2   ar
     5     2     3   ar
     6     3     4    1
     7     3     5   ar
     8     5     6   ar
     9     6     7   ar
    10     7     8    1
    11     8     9    2
    12     8    10   am
    13    10    12    1
    14    12    13    1
    15    13    14    1
    16    14    15    1
    17    15    18    1
    18    18    19    1
    19    19    20    1
    20    20    21    1
    21    21    22    1
    22    21    23    1
    23    21    24    1
    24    24    25    1
    25    15    16    1
    26    16    17    1
    27    10    11    1
    28     7     1   ar
    29    17    12    1
    30    11     6    1
    31    25    18    1
    32    26    29    1
    33    26    30    1
@<TRIPOS>MOLECULE
*****
 30 33 0 0 0
SMALL
GASTEIGER

@<TRIPOS>ATOM
      1 C           7.6491   -6.3502   28.3122 C.ar    1  UNL1        0.0595
      2 C           7.6492   -6.1606   29.8002 C.ar    1  UNL1        0.0343
      3 C           7.1768   -4.8654   30.3912 C.ar    1  UNL1        0.1400
      4 F           7.1769   -4.6759   31.8793 F       1  UNL1       -0.2042
      5 C           6.7044   -3.7598   29.4944 C.ar    1  UNL1        0.0272
      6 C           6.7043   -3.9494   28.0064 C.ar    1  UNL1        0.0044
      7 C           7.1767   -5.2446   27.4154 C.ar    1  UNL1        0.0557
      8 C           7.0632   -5.1418   25.9232 C.2     1  UNL1        0.2491
      9 O           7.4281   -6.2102   24.9356 O.2     1  UNL1       -0.2699
     10 N           6.5207   -3.7831   25.5920 N.am    1  UNL1       -0.2735
     11 C           6.2989   -3.0462   26.8796 C.3     1  UNL1        0.1206
     12 C           6.2479   -3.2543   24.2151 C.3     1  UNL1        0.0787
     13 C           4.8622   -2.8200   23.8394 C.3     1  UNL1        0.0372
     14 C           4.5894   -2.2911   22.4625 C.3     1  UNL1        0.0738
     15 N           5.7022   -2.1965   21.4613 N.3     1  UNL1       -0.2738
     16 C           7.0879   -2.6308   21.8370 C.3     1  UNL1        0.0738
     17 C           7.3608   -3.1597   23.2139 C.3     1  UNL1        0.0372
     18 C           5.4294   -1.6676   20.0844 C.3     1  UNL1        0.0579
     19 C           4.1703   -2.0560   19.3677 C.3     1  UNL1        0.0216
     20 C           3.8975   -1.5271   17.9907 C.3     1  UNL1        0.0679
     21 C           4.8838   -0.6099   17.3306 C.3     1  UNL1        0.2640
     22 F           5.5082    0.2798   16.2968 F       1  UNL1       -0.2043
     23 F           3.8415   -0.6893   16.2548 F       1  UNL1       -0.2043
     24 C           6.1429   -0.2215   18.0473 C.3     1  UNL1        0.0679
     25 C           6.4157   -0.7504   19.4243 C.3     1  UNL1        0.0216
     26 N           7.1800   -8.4888   26.9137 N.am    1  UNL1       -0.3253
     27 C           8.1215   -7.6454   27.7212 C.2     1  UNL1        0.2430
     28 O           9.5353   -8.0971   27.9376 O.2     1  UNL1       -0.2704
     29 H           7.4900   -9.3389   26.5257 H       1  UNL1        0.1453
     30 H           6.2520   -8.1924   26.7716 H       1  UNL1        0.1453
@<TRIPOS>BOND
     1    26    27   am
     2    27    28    2
     3    27     1    1
     4     1     2   ar
     5     2     3   ar
     6     3     4    1
     7     3     5   ar
     8     5     6   ar
     9     6     7   ar
    10     7     8    1
    11     8     9    2
    12     8    10   am
    13    10    12    1
    14    12    13    1
    15    13    14    1
    16    14    15    1
    17    15    18    1
    18    18    19    1
    19    19    20    1
    20    20    21    1
    21    21    22    1
    22    21    23    1
    23    21    24    1
    24    24    25    1
    25    15    16    1
    26    16    17    1
    27    10    11    1
    28     7     1   ar
    29    17    12    1
    30    11     6    1
    31    25    18    1
    32    26    29    1
    33    26    30    1
@<TRIPOS>MOLECULE
*****
 30 33 0 0 0
SMALL
GASTEIGER

@<TRIPOS>ATOM
      1 C         -12.5385  -17.1926   22.8928 C.ar    1  UNL1        0.0595
      2 C         -13.6011  -17.6708   23.8373 C.ar    1  UNL1        0.0343
      3 C         -13.2473  -18.6138   24.9489 C.ar    1  UNL1        0.1400
      4 F         -14.3100  -19.0920   25.8935 F       1  UNL1       -0.2042
      5 C         -11.8309  -19.0784   25.1160 C.ar    1  UNL1        0.0272
      6 C         -10.7684  -18.6002   24.1715 C.ar    1  UNL1        0.0044
      7 C         -11.1221  -17.6573   23.0599 C.ar    1  UNL1        0.0557
      8 C          -9.8702  -17.3584   22.2895 C.2     1  UNL1        0.2491
      9 O          -9.7644  -16.4592   21.0936 O.2     1  UNL1       -0.2699
     10 N          -8.7427  -18.1166   22.9250 N.am    1  UNL1       -0.2735
     11 C          -9.2978  -18.8841   24.0881 C.3     1  UNL1        0.1206
     12 C          -7.3115  -18.1088   22.4761 C.3     1  UNL1        0.0787
     13 C          -6.2915  -17.3140   23.2362 C.3     1  UNL1        0.0372
     14 C          -4.8602  -17.3062   22.7874 C.3     1  UNL1        0.0738
     15 N          -4.4490  -18.0931   21.5785 N.3     1  UNL1       -0.2738
     16 C          -5.4690  -18.8879   20.8184 C.3     1  UNL1        0.0738
     17 C          -6.9003  -18.8958   21.2672 C.3     1  UNL1        0.0372
     18 C          -3.0177  -18.0853   21.1296 C.3     1  UNL1        0.0579
     19 C          -2.3625  -19.3610   20.6903 C.3     1  UNL1        0.0216
     20 C          -0.9313  -19.3532   20.2414 C.3     1  UNL1        0.0679
     21 C          -0.1552  -18.0696   20.2319 C.3     1  UNL1        0.2640
     22 F           0.9860  -17.1137   20.0476 F       1  UNL1       -0.2043
     23 F           0.8964  -19.0134   19.7285 F       1  UNL1       -0.2043
     24 C          -0.8105  -16.7939   20.6713 C.3     1  UNL1        0.0679
     25 C          -2.2417  -16.8017   21.1201 C.3     1  UNL1        0.0216
     26 N         -12.7237  -16.6768   20.3532 N.am    1  UNL1       -0.3253
     27 C         -12.8923  -16.2497   21.7811 C.2     1  UNL1        0.2430
     28 O         -13.4146  -14.8796   22.0974 O.2     1  UNL1       -0.2704
     29 H         -12.9559  -16.0579   19.6236 H       1  UNL1        0.1453
     30 H         -12.3809  -17.5760   20.1455 H       1  UNL1        0.1453
@<TRIPOS>BOND
     1    26    27   am
     2    27    28    2
     3    27     1    1
     4     1     2   ar
     5     2     3   ar
     6     3     4    1
     7     3     5   ar
     8     5     6   ar
     9     6     7   ar
    10     7     8    1
    11     8     9    2
    12     8    10   am
    13    10    12    1
    14    12    13    1
    15    13    14    1
    16    14    15    1
    17    15    18    1
    18    18    19    1
    19    19    20    1
    20    20    21    1
    21    21    22    1
    22    21    23    1
    23    21    24    1
    24    24    25    1
    25    15    16    1
    26    16    17    1
    27    10    11    1
    28     7     1   ar
    29    17    12    1
    30    11     6    1
    31    25    18    1
    32    26    29    1
    33    26    30    1
@<TRIPOS>MOLECULE
*****
 30 33 0 0 0
SMALL
GASTEIGER

@<TRIPOS>ATOM
      1 C           5.0978   -0.9589   18.9753 C.ar    1  UNL1        0.0595
      2 C           3.9733   -0.4314   18.1344 C.ar    1  UNL1        0.0343
      3 C           2.6120   -0.2426   18.7355 C.ar    1  UNL1        0.1400
      4 F           1.4874    0.2850   17.8945 F       1  UNL1       -0.2042
      5 C           2.3752   -0.5814   20.1774 C.ar    1  UNL1        0.0272
      6 C           3.4997   -1.1090   21.0182 C.ar    1  UNL1        0.0044
      7 C           4.8610   -1.2978   20.4172 C.ar    1  UNL1        0.0557
      8 C           5.7691   -1.8318   21.4849 C.2     1  UNL1        0.2491
      9 O           7.2222   -2.1659   21.3205 O.2     1  UNL1       -0.2699
     10 N           4.9691   -1.9731   22.7459 N.am    1  UNL1       -0.2735
     11 C           3.5666   -1.5264   22.4574 C.3     1  UNL1        0.1206
     12 C           5.4817   -2.4734   24.0638 C.3     1  UNL1        0.0787
     13 C           5.3069   -1.6429   25.3006 C.3     1  UNL1        0.0372
     14 C           5.8195   -2.1431   26.6186 C.3     1  UNL1        0.0738
     15 N           6.5068   -3.4738   26.6998 N.3     1  UNL1       -0.2738
     16 C           6.6816   -4.3043   25.4630 C.3     1  UNL1        0.0738
     17 C           6.1691   -3.8041   24.1450 C.3     1  UNL1        0.0372
     18 C           7.0194   -3.9740   28.0178 C.3     1  UNL1        0.0579
     19 C           8.1031   -3.2244   28.7344 C.3     1  UNL1        0.0216
     20 C           8.6156   -3.7246   30.0524 C.3     1  UNL1        0.0679
     21 C           8.0445   -4.9745   30.6537 C.3     1  UNL1        0.2640
     22 F           7.8230   -6.0998   31.6206 F       1  UNL1       -0.2043
     23 F           9.0513   -4.6156   31.7062 F       1  UNL1       -0.2043
     24 C           6.9608   -5.7241   29.9371 C.3     1  UNL1        0.0679
     25 C           6.4483   -5.2239   28.6191 C.3     1  UNL1        0.0216
     26 N           7.5986   -0.2747   18.8092 N.am    1  UNL1       -0.3253
     27 C           6.4591   -1.1477   18.3742 C.2     1  UNL1        0.2430
     28 O           6.6808   -2.2095   17.3382 O.2     1  UNL1       -0.2704
     29 H           8.4921   -0.3986   18.4147 H       1  UNL1        0.1453
     30 H           7.4531    0.4222   19.4891 H       1  UNL1        0.1453
@<TRIPOS>BOND
     1    26    27   am
     2    27    28    2
     3    27     1    1
     4     1     2   ar
     5     2     3   ar
     6     3     4    1
     7     3     5   ar
     8     5     6   ar
     9     6     7   ar
    10     7     8    1
    11     8     9    2
    12     8    10   am
    13    10    12    1
    14    12    13    1
    15    13    14    1
    16    14    15    1
    17    15    18    1
    18    18    19    1
    19    19    20    1
    20    20    21    1
    21    21    22    1
    22    21    23    1
    23    21    24    1
    24    24    25    1
    25    15    16    1
    26    16    17    1
    27    10    11    1
    28     7     1   ar
    29    17    12    1
    30    11     6    1
    31    25    18    1
    32    26    29    1
    33    26    30    1
@<TRIPOS>MOLECULE
*****
 30 33 0 0 0
SMALL
GASTEIGER

@<TRIPOS>ATOM
      1 C           4.1161   -1.9656   19.0869 C.ar    1  UNL1        0.0595
      2 C           3.1657   -1.0671   18.3524 C.ar    1  UNL1        0.0343
      3 C           2.3087   -0.0993   19.1133 C.ar    1  UNL1        0.1400
      4 F           1.3583    0.7991   18.3787 F       1  UNL1       -0.2042
      5 C           2.4021   -0.0300   20.6088 C.ar    1  UNL1        0.0272
      6 C           3.3524   -0.9285   21.3433 C.ar    1  UNL1        0.0044
      7 C           4.2094   -1.8963   20.5824 C.ar    1  UNL1        0.0557
      8 C           5.0474   -2.6506   21.5717 C.2     1  UNL1        0.2491
      9 O           6.0486   -3.7189   21.2459 O.2     1  UNL1       -0.2699
     10 N           4.7083   -2.1491   22.9441 N.am    1  UNL1       -0.2735
     11 C           3.6608   -1.0848   22.8029 C.3     1  UNL1        0.1206
     12 C           5.3109   -2.6278   24.2316 C.3     1  UNL1        0.0787
     13 C           6.1309   -3.8836   24.2547 C.3     1  UNL1        0.0372
     14 C           6.7335   -4.3623   25.5422 C.3     1  UNL1        0.0738
     15 N           6.5161   -3.5852   26.8067 N.3     1  UNL1       -0.2738
     16 C           5.6961   -2.3295   26.7836 C.3     1  UNL1        0.0738
     17 C           5.0935   -1.8508   25.4961 C.3     1  UNL1        0.0372
     18 C           7.1187   -4.0640   28.0942 C.3     1  UNL1        0.0579
     19 C           6.5279   -5.2451   28.8053 C.3     1  UNL1        0.0216
     20 C           7.1305   -5.7239   30.0928 C.3     1  UNL1        0.0679
     21 C           8.3240   -5.0214   30.6692 C.3     1  UNL1        0.2640
     22 F           9.4478   -4.6891   31.6055 F       1  UNL1       -0.2043
     23 F           8.1234   -6.0872   31.7055 F       1  UNL1       -0.2043
     24 C           8.9148   -3.8403   29.9581 C.3     1  UNL1        0.0679
     25 C           8.3122   -3.3615   28.6706 C.3     1  UNL1        0.0216
     26 N           4.6814   -4.4033   18.3886 N.am    1  UNL1       -0.3253
     27 C           4.9730   -2.9333   18.3260 C.2     1  UNL1        0.2430
     28 O           6.1217   -2.4311   17.5024 O.2     1  UNL1       -0.2704
     29 H           5.2439   -5.0385   17.8892 H       1  UNL1        0.1453
     30 H           3.9275   -4.7330   18.9292 H       1  UNL1        0.1453
@<TRIPOS>BOND
     1    26    27   am
     2    27    28    2
     3    27     1    1
     4     1     2   ar
     5     2     3   ar
     6     3     4    1
     7     3     5   ar
     8     5     6   ar
     9     6     7   ar
    10     7     8    1
    11     8     9    2
    12     8    10   am
    13    10    12    1
    14    12    13    1
    15    13    14    1
    16    14    15    1
    17    15    18    1
    18    18    19    1
    19    19    20    1
    20    20    21    1
    21    21    22    1
    22    21    23    1
    23    21    24    1
    24    24    25    1
    25    15    16    1
    26    16    17    1
    27    10    11    1
    28     7     1   ar
    29    17    12    1
    30    11     6    1
    31    25    18    1
    32    26    29    1
    33    26    30    1
@<TRIPOS>MOLECULE
*****
 30 33 0 0 0
SMALL
GASTEIGER

@<TRIPOS>ATOM
      1 C           4.4350   -2.6660   19.7063 C.ar    1  UNL1        0.0595
      2 C           4.3627   -2.3539   18.2409 C.ar    1  UNL1        0.0343
      3 C           3.7125   -1.0848   17.7756 C.ar    1  UNL1        0.1400
      4 F           3.6401   -0.7727   16.3101 F       1  UNL1       -0.2042
      5 C           3.1346   -0.1277   18.7756 C.ar    1  UNL1        0.0272
      6 C           3.2069   -0.4398   20.2410 C.ar    1  UNL1        0.0044
      7 C           3.8571   -1.7089   20.7063 C.ar    1  UNL1        0.0557
      8 C           3.7805   -1.7469   22.2039 C.2     1  UNL1        0.2491
      9 O           4.3087   -2.8389   23.0863 O.2     1  UNL1       -0.2699
     10 N           3.0829   -0.5013   22.6641 N.am    1  UNL1       -0.2735
     11 C           2.7284    0.3065   21.4509 C.3     1  UNL1        0.1206
     12 C           2.7910   -0.1289   24.0875 C.3     1  UNL1        0.0787
     13 C           1.6696    0.8168   24.4005 C.3     1  UNL1        0.0372
     14 C           1.3777    1.1892   25.8239 C.3     1  UNL1        0.0738
     15 N           2.2073    0.6159   26.9344 N.3     1  UNL1       -0.2738
     16 C           3.3287   -0.3298   26.6214 C.3     1  UNL1        0.0738
     17 C           3.6206   -0.7022   25.1980 C.3     1  UNL1        0.0372
     18 C           1.9154    0.9883   28.3578 C.3     1  UNL1        0.0579
     19 C           0.8910    2.0407   28.6628 C.3     1  UNL1        0.0216
     20 C           0.5992    2.4131   30.0862 C.3     1  UNL1        0.0679
     21 C           1.3316    1.7331   31.2046 C.3     1  UNL1        0.2640
     22 F           1.7601    1.3754   32.5970 F       1  UNL1       -0.2043
     23 F           0.4560    2.6613   31.9932 F       1  UNL1       -0.2043
     24 C           2.3560    0.6806   30.8997 C.3     1  UNL1        0.0679
     25 C           2.6479    0.3082   29.4762 C.3     1  UNL1        0.0216
     26 N           6.3792   -3.8811   20.9283 N.am    1  UNL1       -0.3253
     27 C           5.0852   -3.9351   20.1717 C.2     1  UNL1        0.2430
     28 O           4.4414   -5.2582   19.8804 O.2     1  UNL1       -0.2704
     29 H           6.8060   -4.7141   21.2337 H       1  UNL1        0.1453
     30 H           6.8018   -3.0128   21.1195 H       1  UNL1        0.1453
@<TRIPOS>BOND
     1    26    27   am
     2    27    28    2
     3    27     1    1
     4     1     2   ar
     5     2     3   ar
     6     3     4    1
     7     3     5   ar
     8     5     6   ar
     9     6     7   ar
    10     7     8    1
    11     8     9    2
    12     8    10   am
    13    10    12    1
    14    12    13    1
    15    13    14    1
    16    14    15    1
    17    15    18    1
    18    18    19    1
    19    19    20    1
    20    20    21    1
    21    21    22    1
    22    21    23    1
    23    21    24    1
    24    24    25    1
    25    15    16    1
    26    16    17    1
    27    10    11    1
    28     7     1   ar
    29    17    12    1
    30    11     6    1
    31    25    18    1
    32    26    29    1
    33    26    30    1
@<TRIPOS>MOLECULE
*****
 30 33 0 0 0
SMALL
GASTEIGER

@<TRIPOS>ATOM
      1 C           3.9106   -2.5024   20.9483 C.ar    1  UNL1        0.0595
      2 C           3.1609   -1.9321   19.7811 C.ar    1  UNL1        0.0343
      3 C           2.2688   -0.7415   19.9720 C.ar    1  UNL1        0.1400
      4 F           1.5190   -0.1712   18.8046 F       1  UNL1       -0.2042
      5 C           2.1265   -0.1210   21.3302 C.ar    1  UNL1        0.0272
      6 C           2.8762   -0.6913   22.4975 C.ar    1  UNL1        0.0044
      7 C           3.7683   -1.8820   22.3065 C.ar    1  UNL1        0.0557
      8 C           4.3775   -2.2223   23.6343 C.2     1  UNL1        0.2491
      9 O           5.3343   -3.3458   23.9033 O.2     1  UNL1       -0.2699
     10 N           3.8620   -1.2421   24.6459 N.am    1  UNL1       -0.2735
     11 C           2.9341   -0.2958   23.9432 C.3     1  UNL1        0.1206
     12 C           4.2127   -1.2131   26.1040 C.3     1  UNL1        0.0787
     13 C           5.6148   -1.5136   26.5443 C.3     1  UNL1        0.0372
     14 C           5.9655   -1.4846   28.0024 C.3     1  UNL1        0.0738
     15 N           4.9142   -1.1552   29.0203 N.3     1  UNL1       -0.2738
     16 C           3.5121   -0.8547   28.5800 C.3     1  UNL1        0.0738
     17 C           3.1614   -0.8837   27.1219 C.3     1  UNL1        0.0372
     18 C           5.2649   -1.1262   30.4784 C.3     1  UNL1        0.0579
     19 C           4.1901   -1.2902   31.5117 C.3     1  UNL1        0.0216
     20 C           4.5408   -1.2612   32.9699 C.3     1  UNL1        0.0679
     21 C           5.9663   -1.0683   33.3947 C.3     1  UNL1        0.2640
     22 F           7.1630   -0.9136   34.2859 F       1  UNL1       -0.2043
     23 F           5.3070   -1.1786   34.7375 F       1  UNL1       -0.2043
     24 C           7.0412   -0.9043   32.3614 C.3     1  UNL1        0.0679
     25 C           6.6904   -0.9333   30.9032 C.3     1  UNL1        0.0216
     26 N           6.2904   -3.5422   20.8753 N.am    1  UNL1       -0.3253
     27 C           4.8027   -3.6931   20.7574 C.2     1  UNL1        0.2430
     28 O           4.2071   -5.0346   20.4486 O.2     1  UNL1       -0.2704
     29 H           6.8759   -4.3237   20.7500 H       1  UNL1        0.1453
     30 H           6.6814   -2.6617   21.0779 H       1  UNL1        0.1453
@<TRIPOS>BOND
     1    26    27   am
     2    27    28    2
     3    27     1    1
     4     1     2   ar
     5     2     3   ar
     6     3     4    1
     7     3     5   ar
     8     5     6   ar
     9     6     7   ar
    10     7     8    1
    11     8     9    2
    12     8    10   am
    13    10    12    1
    14    12    13    1
    15    13    14    1
    16    14    15    1
    17    15    18    1
    18    18    19    1
    19    19    20    1
    20    20    21    1
    21    21    22    1
    22    21    23    1
    23    21    24    1
    24    24    25    1
    25    15    16    1
    26    16    17    1
    27    10    11    1
    28     7     1   ar
    29    17    12    1
    30    11     6    1
    31    25    18    1
    32    26    29    1
    33    26    30    1
@<TRIPOS>MOLECULE
*****
 30 33 0 0 0
SMALL
GASTEIGER

@<TRIPOS>ATOM
      1 C           3.3766    3.3925   37.8279 C.ar    1  UNL1        0.0595
      2 C           3.7587    3.9956   39.1470 C.ar    1  UNL1        0.0343
      3 C           5.0023    3.5371   39.8493 C.ar    1  UNL1        0.1400
      4 F           5.3843    4.1402   41.1685 F       1  UNL1       -0.2042
      5 C           5.8639    2.4755   39.2323 C.ar    1  UNL1        0.0272
      6 C           5.4818    1.8724   37.9132 C.ar    1  UNL1        0.0044
      7 C           4.2382    2.3309   37.2109 C.ar    1  UNL1        0.0557
      8 C           4.1172    1.5585   35.9308 C.2     1  UNL1        0.2491
      9 O           3.0200    1.6976   34.9175 O.2     1  UNL1       -0.2699
     10 N           5.2860    0.6226   35.8418 N.am    1  UNL1       -0.2735
     11 C           6.1294    0.8166   37.0670 C.3     1  UNL1        0.1206
     12 C           5.5629   -0.3385   34.7240 C.3     1  UNL1        0.0787
     13 C           6.8647   -0.2710   33.9820 C.3     1  UNL1        0.0372
     14 C           7.1416   -1.2322   32.8641 C.3     1  UNL1        0.0738
     15 N           6.1166   -2.2607   32.4883 N.3     1  UNL1       -0.2738
     16 C           4.8147   -2.3282   33.2302 C.3     1  UNL1        0.0738
     17 C           4.5379   -1.3671   34.3481 C.3     1  UNL1        0.0372
     18 C           6.3934   -3.2219   31.3704 C.3     1  UNL1        0.0579
     19 C           6.2581   -2.7739   29.9453 C.3     1  UNL1        0.0216
     20 C           6.5350   -3.7350   28.8275 C.3     1  UNL1        0.0679
     21 C           6.9471   -5.1441   29.1347 C.3     1  UNL1        0.2640
     22 F           7.3624   -6.5696   28.9213 F       1  UNL1       -0.2043
     23 F           6.9560   -5.1912   27.6354 F       1  UNL1       -0.2043
     24 C           7.0825   -5.5921   30.5598 C.3     1  UNL1        0.0679
     25 C           6.8056   -4.6310   31.6776 C.3     1  UNL1        0.0216
     26 N           2.2348    4.5745   35.8156 N.am    1  UNL1       -0.3253
     27 C           2.1330    3.8510   37.1256 C.2     1  UNL1        0.2430
     28 O           0.7875    3.5861   37.7334 O.2     1  UNL1       -0.2704
     29 H           1.4186    4.8754   35.3547 H       1  UNL1        0.1453
     30 H           3.1179    4.7483   35.4166 H       1  UNL1        0.1453
@<TRIPOS>BOND
     1    26    27   am
     2    27    28    2
     3    27     1    1
     4     1     2   ar
     5     2     3   ar
     6     3     4    1
     7     3     5   ar
     8     5     6   ar
     9     6     7   ar
    10     7     8    1
    11     8     9    2
    12     8    10   am
    13    10    12    1
    14    12    13    1
    15    13    14    1
    16    14    15    1
    17    15    18    1
    18    18    19    1
    19    19    20    1
    20    20    21    1
    21    21    22    1
    22    21    23    1
    23    21    24    1
    24    24    25    1
    25    15    16    1
    26    16    17    1
    27    10    11    1
    28     7     1   ar
    29    17    12    1
    30    11     6    1
    31    25    18    1
    32    26    29    1
    33    26    30    1
@<TRIPOS>MOLECULE
*****
 30 33 0 0 0
SMALL
GASTEIGER

@<TRIPOS>ATOM
      1 C           6.5182   -3.7814   26.7562 C.ar    1  UNL1        0.0595
      2 C           6.8615   -5.0656   26.0613 C.ar    1  UNL1        0.0343
      3 C           7.2266   -6.2787   26.8644 C.ar    1  UNL1        0.1400
      4 F           7.5698   -7.5630   26.1694 F       1  UNL1       -0.2042
      5 C           7.2484   -6.2077   28.3626 C.ar    1  UNL1        0.0272
      6 C           6.9051   -4.9235   29.0575 C.ar    1  UNL1        0.0044
      7 C           6.5400   -3.7104   28.2543 C.ar    1  UNL1        0.0557
      8 C           6.2507   -2.5913   29.2104 C.2     1  UNL1        0.2491
      9 O           5.8461   -1.1958   28.8378 O.2     1  UNL1       -0.2699
     10 N           6.4369   -3.1128   30.6044 N.am    1  UNL1       -0.2735
     11 C           6.8414   -4.5541   30.5099 C.3     1  UNL1        0.1206
     12 C           6.2513   -2.3303   31.8706 C.3     1  UNL1        0.0787
     13 C           7.3392   -1.4183   32.3550 C.3     1  UNL1        0.0372
     14 C           7.1536   -0.6358   33.6212 C.3     1  UNL1        0.0738
     15 N           5.8801   -0.7654   34.4031 N.3     1  UNL1       -0.2738
     16 C           4.7922   -1.6774   33.9187 C.3     1  UNL1        0.0738
     17 C           4.9778   -2.4599   32.6525 C.3     1  UNL1        0.0372
     18 C           5.6945    0.0171   35.6693 C.3     1  UNL1        0.0579
     19 C           6.8373    0.8042   36.2389 C.3     1  UNL1        0.0216
     20 C           6.6517    1.5867   37.5051 C.3     1  UNL1        0.0679
     21 C           5.3233    1.5821   38.2017 C.3     1  UNL1        0.2640
     22 F           4.2639    1.8877   39.2188 F       1  UNL1       -0.2043
     23 F           6.0982    2.4753   39.1245 F       1  UNL1       -0.2043
     24 C           4.1805    0.7950   37.6321 C.3     1  UNL1        0.0679
     25 C           4.3661    0.0125   36.3659 C.3     1  UNL1        0.0216
     26 N           4.7396   -2.0664   25.9529 N.am    1  UNL1       -0.3253
     27 C           6.1531   -2.5683   25.9530 C.2     1  UNL1        0.2430
     28 O           7.2016   -1.8571   25.1500 O.2     1  UNL1       -0.2704
     29 H           4.5000   -1.2702   25.4257 H       1  UNL1        0.1453
     30 H           4.0515   -2.5332   26.4800 H       1  UNL1        0.1453
@<TRIPOS>BOND
     1    26    27   am
     2    27    28    2
     3    27     1    1
     4     1     2   ar
     5     2     3   ar
     6     3     4    1
     7     3     5   ar
     8     5     6   ar
     9     6     7   ar
    10     7     8    1
    11     8     9    2
    12     8    10   am
    13    10    12    1
    14    12    13    1
    15    13    14    1
    16    14    15    1
    17    15    18    1
    18    18    19    1
    19    19    20    1
    20    20    21    1
    21    21    22    1
    22    21    23    1
    23    21    24    1
    24    24    25    1
    25    15    16    1
    26    16    17    1
    27    10    11    1
    28     7     1   ar
    29    17    12    1
    30    11     6    1
    31    25    18    1
    32    26    29    1
    33    26    30    1
