@<TRIPOS>MOLECULE
*****
 26 28 0 0 0
SMALL
GASTEIGER

@<TRIPOS>ATOM
      1 N          -9.3651  -17.1736   23.0213 N.am    1  UNL1       -0.2762
      2 C          -8.3415  -16.0811   23.1132 C.2     1  UNL1        0.2520
      3 O          -8.0004  -15.2688   21.8992 O.2     1  UNL1       -0.2698
      4 C          -7.6588  -15.8009   24.4192 C.ar    1  UNL1        0.0880
      5 C          -8.4654  -15.6932   25.6792 C.ar    1  UNL1        0.0076
      6 C          -7.7827  -15.4130   26.9851 C.ar    1  UNL1        0.0003
      7 C          -6.2934  -15.2406   27.0310 C.ar    1  UNL1        0.0031
      8 C          -5.4867  -15.3484   25.7710 C.ar    1  UNL1        0.0376
      9 C          -6.1694  -15.6286   24.4651 C.ar    1  UNL1        0.1496
     10 O          -5.3627  -15.7363   23.2050 O.3     1  UNL1       -0.4533
     11 C          -4.6567  -17.0177   22.8738 C.ar    1  UNL1        0.1453
     12 C          -5.4489  -18.2626   22.6046 C.ar    1  UNL1        0.0375
     13 C          -4.7429  -19.5440   22.2734 C.ar    1  UNL1        0.0031
     14 C          -3.2445  -19.5803   22.2114 C.ar    1  UNL1        0.0002
     15 C          -2.4524  -18.3353   22.4806 C.ar    1  UNL1        0.0031
     16 C          -3.1584  -17.0540   22.8118 C.ar    1  UNL1        0.0375
     17 C         -10.0478  -17.4538   21.7153 C.3     1  UNL1        0.0927
     18 C          -9.7293  -18.5807   20.7779 C.3     1  UNL1        0.0383
     19 C         -10.6535  -18.4796   19.6007 C.3     1  UNL1        0.0704
     20 N         -11.5431  -17.2903   19.8106 N.3     1  UNL1       -0.2960
     21 C         -11.1688  -16.6563   21.1175 C.3     1  UNL1        0.0887
     22 H         -12.5184  -17.5879   19.8370 H       1  UNL1        0.1233
     23 C          -9.7062  -17.9860   24.2352 C.3     1  UNL1        0.0936
     24 C         -12.2339  -18.5826   24.3058 C.3     1  UNL1        0.0018
     25 C         -10.8020  -19.0083   24.1700 C.3     1  UNL1        0.0199
     26 C         -10.4659  -20.4562   23.9689 C.3     1  UNL1        0.0018
@<TRIPOS>BOND
     1    24    25    1
     2    25    26    1
     3    25    23    1
     4    23     1    1
     5     1     2   am
     6     2     3    2
     7     2     4    1
     8     4     5   ar
     9     5     6   ar
    10     6     7   ar
    11     7     8   ar
    12     8     9   ar
    13     9    10    1
    14    10    11    1
    15    11    12   ar
    16    12    13   ar
    17    13    14   ar
    18    14    15   ar
    19    15    16   ar
    20    17     1    1
    21    17    18    1
    22    18    19    1
    23    19    20    1
    24    20    21    1
    25     9     4   ar
    26    16    11   ar
    27    21    17    1
    28    20    22    1
@<TRIPOS>MOLECULE
*****
 26 28 0 0 0
SMALL
GASTEIGER

@<TRIPOS>ATOM
      1 N          -9.2166  -18.0735   22.1881 N.am    1  UNL1       -0.2762
      2 C          -7.9761  -17.2704   21.9316 C.2     1  UNL1        0.2520
      3 O          -8.0844  -15.8735   21.3957 O.2     1  UNL1       -0.2698
      4 C          -6.6271  -17.8640   22.2109 C.ar    1  UNL1        0.0880
      5 C          -6.2879  -19.2310   21.6951 C.ar    1  UNL1        0.0076
      6 C          -4.9390  -19.8246   21.9745 C.ar    1  UNL1        0.0003
      7 C          -3.9293  -19.0511   22.7696 C.ar    1  UNL1        0.0031
      8 C          -4.2685  -17.6841   23.2854 C.ar    1  UNL1        0.0376
      9 C          -5.6174  -17.0905   23.0061 C.ar    1  UNL1        0.1496
     10 O          -5.9567  -15.7234   23.5219 O.3     1  UNL1       -0.4533
     11 C          -6.6647  -15.5719   24.8356 C.ar    1  UNL1        0.1453
     12 C          -5.8816  -15.5801   26.1150 C.ar    1  UNL1        0.0375
     13 C          -6.5896  -15.4285   27.4286 C.ar    1  UNL1        0.0031
     14 C          -8.0808  -15.2688   27.4629 C.ar    1  UNL1        0.0002
     15 C          -8.8638  -15.2607   26.1836 C.ar    1  UNL1        0.0031
     16 C          -8.1558  -15.4122   24.8699 C.ar    1  UNL1        0.0375
     17 C         -10.5656  -17.4799   21.9088 C.3     1  UNL1        0.0927
     18 C         -11.2619  -16.4433   22.7399 C.3     1  UNL1        0.0383
     19 C         -12.5817  -16.1413   22.0941 C.3     1  UNL1        0.0704
     20 N         -12.7010  -16.9913   20.8639 N.3     1  UNL1       -0.2960
     21 C         -11.4550  -17.8186   20.7494 C.3     1  UNL1        0.0887
     22 H         -12.7988  -16.3970   20.0407 H       1  UNL1        0.1233
     23 C          -9.1083  -19.4703   22.7240 C.3     1  UNL1        0.0936
     24 C          -9.8118  -18.6445   25.0848 C.3     1  UNL1        0.0018
     25 C          -9.5322  -19.7686   24.1317 C.3     1  UNL1        0.0199
     26 C          -9.6766  -21.1907   24.5862 C.3     1  UNL1        0.0018
@<TRIPOS>BOND
     1    24    25    1
     2    25    26    1
     3    25    23    1
     4    23     1    1
     5     1     2   am
     6     2     3    2
     7     2     4    1
     8     4     5   ar
     9     5     6   ar
    10     6     7   ar
    11     7     8   ar
    12     8     9   ar
    13     9    10    1
    14    10    11    1
    15    11    12   ar
    16    12    13   ar
    17    13    14   ar
    18    14    15   ar
    19    15    16   ar
    20    17     1    1
    21    17    18    1
    22    18    19    1
    23    19    20    1
    24    20    21    1
    25     9     4   ar
    26    16    11   ar
    27    21    17    1
    28    20    22    1
@<TRIPOS>MOLECULE
*****
 26 28 0 0 0
SMALL
GASTEIGER

@<TRIPOS>ATOM
      1 N          -8.9261  -16.9058   24.1935 N.am    1  UNL1       -0.2762
      2 C          -8.2402  -17.1019   22.8741 C.2     1  UNL1        0.2520
      3 O          -6.8277  -16.6334   22.6861 O.2     1  UNL1       -0.2698
      4 C          -8.9668  -17.7666   21.7426 C.ar    1  UNL1        0.0880
      5 C         -10.0251  -17.0180   20.9881 C.ar    1  UNL1        0.0076
      6 C         -10.7516  -17.6827   19.8566 C.ar    1  UNL1        0.0003
      7 C         -10.4198  -19.0961   19.4796 C.ar    1  UNL1        0.0031
      8 C          -9.3614  -19.8448   20.2341 C.ar    1  UNL1        0.0376
      9 C          -8.6349  -19.1801   21.3656 C.ar    1  UNL1        0.1496
     10 O          -7.5765  -19.9287   22.1201 O.3     1  UNL1       -0.4533
     11 C          -6.1692  -19.9640   21.6021 C.ar    1  UNL1        0.1453
     12 C          -5.0788  -19.2491   22.3438 C.ar    1  UNL1        0.0375
     13 C          -3.6715  -19.2844   21.8258 C.ar    1  UNL1        0.0031
     14 C          -3.3547  -20.0345   20.5660 C.ar    1  UNL1        0.0002
     15 C          -4.4450  -20.7493   19.8243 C.ar    1  UNL1        0.0031
     16 C          -5.8523  -20.7140   20.3423 C.ar    1  UNL1        0.0375
     17 C          -8.1995  -16.2410   25.3251 C.3     1  UNL1        0.0927
     18 C          -8.3496  -16.5669   26.7816 C.3     1  UNL1        0.0383
     19 C          -7.4381  -15.6610   27.5555 C.3     1  UNL1        0.0704
     20 N          -6.7248  -14.7754   26.5772 N.3     1  UNL1       -0.2960
     21 C          -7.1954  -15.1339   25.1988 C.3     1  UNL1        0.0887
     22 H          -5.7179  -14.9217   26.6481 H       1  UNL1        0.1233
     23 C         -10.3385  -17.3743   24.3816 C.3     1  UNL1        0.0936
     24 C         -11.8041  -19.2394   23.3214 C.3     1  UNL1        0.0018
     25 C         -10.6748  -18.8271   24.2185 C.3     1  UNL1        0.0199
     26 C          -9.8818  -19.8675   24.9524 C.3     1  UNL1        0.0018
@<TRIPOS>BOND
     1    24    25    1
     2    25    26    1
     3    25    23    1
     4    23     1    1
     5     1     2   am
     6     2     3    2
     7     2     4    1
     8     4     5   ar
     9     5     6   ar
    10     6     7   ar
    11     7     8   ar
    12     8     9   ar
    13     9    10    1
    14    10    11    1
    15    11    12   ar
    16    12    13   ar
    17    13    14   ar
    18    14    15   ar
    19    15    16   ar
    20    17     1    1
    21    17    18    1
    22    18    19    1
    23    19    20    1
    24    20    21    1
    25     9     4   ar
    26    16    11   ar
    27    21    17    1
    28    20    22    1
@<TRIPOS>MOLECULE
*****
 26 28 0 0 0
SMALL
GASTEIGER

@<TRIPOS>ATOM
      1 N          -8.6774  -17.5771   22.2429 N.am    1  UNL1       -0.2762
      2 C          -7.4765  -18.2215   21.6164 C.2     1  UNL1        0.2520
      3 O          -6.0977  -17.7933   22.0232 O.2     1  UNL1       -0.2698
      4 C          -7.6544  -19.2942   20.5830 C.ar    1  UNL1        0.0880
      5 C          -8.8520  -19.2746   19.6802 C.ar    1  UNL1        0.0076
      6 C          -9.0298  -20.3472   18.6469 C.ar    1  UNL1        0.0003
      7 C          -8.0100  -21.4394   18.5164 C.ar    1  UNL1        0.0031
      8 C          -6.8124  -21.4590   19.4193 C.ar    1  UNL1        0.0376
      9 C          -6.6345  -20.3864   20.4526 C.ar    1  UNL1        0.1496
     10 O          -5.4368  -20.4059   21.3555 O.3     1  UNL1       -0.4533
     11 C          -4.1614  -19.7448   20.9239 C.ar    1  UNL1        0.1453
     12 C          -4.0399  -19.1816   19.5389 C.ar    1  UNL1        0.0375
     13 C          -2.7645  -18.5205   19.1074 C.ar    1  UNL1        0.0031
     14 C          -1.6106  -18.4226   20.0608 C.ar    1  UNL1        0.0002
     15 C          -1.7321  -18.9857   21.4457 C.ar    1  UNL1        0.0031
     16 C          -3.0076  -19.6468   21.8773 C.ar    1  UNL1        0.0375
     17 C          -8.4995  -16.5044   23.2763 C.3     1  UNL1        0.0927
     18 C          -8.9593  -16.5695   24.7026 C.3     1  UNL1        0.0383
     19 C          -8.5746  -15.2837   25.3727 C.3     1  UNL1        0.0704
     20 N          -7.8771  -14.4241   24.3603 N.3     1  UNL1       -0.2960
     21 C          -7.8308  -15.1786   23.0648 C.3     1  UNL1        0.0887
     22 H          -6.9290  -14.2184   24.6753 H       1  UNL1        0.1233
     23 C         -10.0562  -18.0054   21.8361 C.3     1  UNL1        0.0936
     24 C         -12.2148  -18.3166   23.2482 C.3     1  UNL1        0.0018
     25 C         -10.8904  -18.8326   22.7688 C.3     1  UNL1        0.0199
     26 C         -10.4002  -20.1758   23.2221 C.3     1  UNL1        0.0018
@<TRIPOS>BOND
     1    24    25    1
     2    25    26    1
     3    25    23    1
     4    23     1    1
     5     1     2   am
     6     2     3    2
     7     2     4    1
     8     4     5   ar
     9     5     6   ar
    10     6     7   ar
    11     7     8   ar
    12     8     9   ar
    13     9    10    1
    14    10    11    1
    15    11    12   ar
    16    12    13   ar
    17    13    14   ar
    18    14    15   ar
    19    15    16   ar
    20    17     1    1
    21    17    18    1
    22    18    19    1
    23    19    20    1
    24    20    21    1
    25     9     4   ar
    26    16    11   ar
    27    21    17    1
    28    20    22    1
@<TRIPOS>MOLECULE
*****
 26 28 0 0 0
SMALL
GASTEIGER

@<TRIPOS>ATOM
      1 N         -11.8574   -5.1771   17.9525 N.am    1  UNL1       -0.2762
      2 C         -12.9487   -4.9076   18.9456 C.2     1  UNL1        0.2520
      3 O         -13.1185   -5.8050   20.1355 O.2     1  UNL1       -0.2698
      4 C         -13.8704   -3.7405   18.7489 C.ar    1  UNL1        0.0880
      5 C         -13.4806   -2.3833   19.2548 C.ar    1  UNL1        0.0076
      6 C         -14.4022   -1.2164   19.0580 C.ar    1  UNL1        0.0003
      7 C         -15.7137   -1.4066   18.3553 C.ar    1  UNL1        0.0031
      8 C         -16.1036   -2.7638   17.8494 C.ar    1  UNL1        0.0376
      9 C         -15.1819   -3.9308   18.0462 C.ar    1  UNL1        0.1496
     10 O         -15.5717   -5.2881   17.5402 O.3     1  UNL1       -0.4533
     11 C         -16.3650   -6.2145   18.4134 C.ar    1  UNL1        0.1453
     12 C         -17.7716   -5.8624   18.7976 C.ar    1  UNL1        0.0375
     13 C         -18.5649   -6.7889   19.6707 C.ar    1  UNL1        0.0031
     14 C         -17.9515   -8.0675   20.1597 C.ar    1  UNL1        0.0002
     15 C         -16.5450   -8.4196   19.7755 C.ar    1  UNL1        0.0031
     16 C         -15.7517   -7.4931   18.9024 C.ar    1  UNL1        0.0375
     17 C         -10.9357   -6.3441   18.1493 C.3     1  UNL1        0.0927
     18 C          -9.7543   -6.3886   19.0725 C.3     1  UNL1        0.0383
     19 C          -9.1221   -7.7435   18.9512 C.3     1  UNL1        0.0704
     20 N          -9.9128   -8.5363   17.9531 N.3     1  UNL1       -0.2960
     21 C         -11.0337   -7.6715   17.4575 C.3     1  UNL1        0.0887
     22 H         -10.2915   -9.3728   18.3973 H       1  UNL1        0.1233
     23 C         -11.6876   -4.2797   16.7627 C.3     1  UNL1        0.0936
     24 C         -10.6539   -1.9088   17.0085 C.3     1  UNL1        0.0018
     25 C         -10.5027   -3.3639   16.6770 C.3     1  UNL1        0.0199
     26 C          -9.1666   -3.9032   16.2598 C.3     1  UNL1        0.0018
@<TRIPOS>BOND
     1    24    25    1
     2    25    26    1
     3    25    23    1
     4    23     1    1
     5     1     2   am
     6     2     3    2
     7     2     4    1
     8     4     5   ar
     9     5     6   ar
    10     6     7   ar
    11     7     8   ar
    12     8     9   ar
    13     9    10    1
    14    10    11    1
    15    11    12   ar
    16    12    13   ar
    17    13    14   ar
    18    14    15   ar
    19    15    16   ar
    20    17     1    1
    21    17    18    1
    22    18    19    1
    23    19    20    1
    24    20    21    1
    25     9     4   ar
    26    16    11   ar
    27    21    17    1
    28    20    22    1
@<TRIPOS>MOLECULE
*****
 26 28 0 0 0
SMALL
GASTEIGER

@<TRIPOS>ATOM
      1 N         -12.6284   -3.1797   17.7410 N.am    1  UNL1       -0.2762
      2 C         -12.4934   -4.2012   18.8311 C.2     1  UNL1        0.2520
      3 O         -13.2997   -4.0669   20.0888 O.2     1  UNL1       -0.2698
      4 C         -11.5521   -5.3570   18.6635 C.ar    1  UNL1        0.0880
      5 C         -10.1735   -5.2929   19.2512 C.ar    1  UNL1        0.0076
      6 C          -9.2323   -6.4487   19.0835 C.ar    1  UNL1        0.0003
      7 C          -9.6697   -7.6687   18.3282 C.ar    1  UNL1        0.0031
      8 C         -11.0482   -7.7327   17.7405 C.ar    1  UNL1        0.0376
      9 C         -11.9894   -6.5769   17.9081 C.ar    1  UNL1        0.1496
     10 O         -13.3681   -6.6410   17.3204 O.3     1  UNL1       -0.4533
     11 C         -14.4239   -7.4820   17.9746 C.ar    1  UNL1        0.1453
     12 C         -15.2715   -6.9042   19.0691 C.ar    1  UNL1        0.0375
     13 C         -16.3273   -7.7451   19.7233 C.ar    1  UNL1        0.0031
     14 C         -16.5356   -9.1639   19.2830 C.ar    1  UNL1        0.0002
     15 C         -15.6881   -9.7416   18.1885 C.ar    1  UNL1        0.0031
     16 C         -14.6322   -8.9006   17.5343 C.ar    1  UNL1        0.0375
     17 C         -13.5697   -2.0238   17.9087 C.3     1  UNL1        0.0927
     18 C         -13.2471   -0.7114   18.5594 C.3     1  UNL1        0.0383
     19 C         -14.4769    0.1461   18.5079 C.3     1  UNL1        0.0704
     20 N         -15.5593   -0.6364   17.8253 N.3     1  UNL1       -0.2960
     21 C         -14.9987   -1.9775   17.4549 C.3     1  UNL1        0.0887
     22 H         -15.8646   -0.1449   16.9853 H       1  UNL1        0.1233
     23 C         -11.8221   -3.3140   16.4833 C.3     1  UNL1        0.0936
     24 C         -10.3120   -1.2002   16.4446 C.3     1  UNL1        0.0018
     25 C         -10.4599   -2.6921   16.3957 C.3     1  UNL1        0.0199
     26 C          -9.2456   -3.5621   16.2592 C.3     1  UNL1        0.0018
@<TRIPOS>BOND
     1    24    25    1
     2    25    26    1
     3    25    23    1
     4    23     1    1
     5     1     2   am
     6     2     3    2
     7     2     4    1
     8     4     5   ar
     9     5     6   ar
    10     6     7   ar
    11     7     8   ar
    12     8     9   ar
    13     9    10    1
    14    10    11    1
    15    11    12   ar
    16    12    13   ar
    17    13    14   ar
    18    14    15   ar
    19    15    16   ar
    20    17     1    1
    21    17    18    1
    22    18    19    1
    23    19    20    1
    24    20    21    1
    25     9     4   ar
    26    16    11   ar
    27    21    17    1
    28    20    22    1
@<TRIPOS>MOLECULE
*****
 26 28 0 0 0
SMALL
GASTEIGER

@<TRIPOS>ATOM
      1 N         -13.2902   -6.1061   18.4789 N.am    1  UNL1       -0.2762
      2 C         -13.6083   -4.8941   17.6544 C.2     1  UNL1        0.2520
      3 O         -14.8208   -4.8848   16.7713 O.2     1  UNL1       -0.2698
      4 C         -12.7139   -3.6913   17.7129 C.ar    1  UNL1        0.0880
      5 C         -11.8004   -3.3794   16.5648 C.ar    1  UNL1        0.0076
      6 C         -10.9060   -2.1766   16.6234 C.ar    1  UNL1        0.0003
      7 C         -10.9252   -1.2858   17.8300 C.ar    1  UNL1        0.0031
      8 C         -11.8387   -1.5977   18.9781 C.ar    1  UNL1        0.0376
      9 C         -12.7330   -2.8004   18.9196 C.ar    1  UNL1        0.1496
     10 O         -13.6466   -3.1124   20.0677 O.3     1  UNL1       -0.4533
     11 C         -15.1020   -2.7588   19.9856 C.ar    1  UNL1        0.1453
     12 C         -15.5194   -1.3230   19.8652 C.ar    1  UNL1        0.0375
     13 C         -16.9748   -0.9694   19.7830 C.ar    1  UNL1        0.0031
     14 C         -18.0128   -2.0516   19.8212 C.ar    1  UNL1        0.0002
     15 C         -17.5955   -3.4873   19.9416 C.ar    1  UNL1        0.0031
     16 C         -16.1400   -3.8409   20.0238 C.ar    1  UNL1        0.0375
     17 C         -14.1846   -7.3089   18.4204 C.3     1  UNL1        0.0927
     18 C         -15.4270   -7.5240   19.2330 C.3     1  UNL1        0.0383
     19 C         -16.0039   -8.8558   18.8539 C.3     1  UNL1        0.0704
     20 N         -15.1180   -9.4636   17.8070 N.3     1  UNL1       -0.2960
     21 C         -13.9937   -8.5076   17.5392 C.3     1  UNL1        0.0887
     22 H         -15.6505   -9.6202   16.9513 H       1  UNL1        0.1233
     23 C         -12.0777   -6.1153   19.3620 C.3     1  UNL1        0.0936
     24 C         -10.4249   -7.4863   17.8995 C.3     1  UNL1        0.0018
     25 C         -10.7144   -6.2939   18.7623 C.3     1  UNL1        0.0199
     26 C          -9.6407   -5.2801   19.0253 C.3     1  UNL1        0.0018
@<TRIPOS>BOND
     1    24    25    1
     2    25    26    1
     3    25    23    1
     4    23     1    1
     5     1     2   am
     6     2     3    2
     7     2     4    1
     8     4     5   ar
     9     5     6   ar
    10     6     7   ar
    11     7     8   ar
    12     8     9   ar
    13     9    10    1
    14    10    11    1
    15    11    12   ar
    16    12    13   ar
    17    13    14   ar
    18    14    15   ar
    19    15    16   ar
    20    17     1    1
    21    17    18    1
    22    18    19    1
    23    19    20    1
    24    20    21    1
    25     9     4   ar
    26    16    11   ar
    27    21    17    1
    28    20    22    1
@<TRIPOS>MOLECULE
*****
 26 28 0 0 0
SMALL
GASTEIGER

@<TRIPOS>ATOM
      1 N         -15.2773   -5.7324   18.5148 N.am    1  UNL1       -0.2762
      2 C         -14.3120   -4.8755   19.2789 C.2     1  UNL1        0.2520
      3 O         -13.5584   -5.4488   20.4422 O.2     1  UNL1       -0.2698
      4 C         -14.1003   -3.4451   18.8796 C.ar    1  UNL1        0.0880
      5 C         -14.7738   -2.3452   19.6454 C.ar    1  UNL1        0.0076
      6 C         -14.5621   -0.9149   19.2462 C.ar    1  UNL1        0.0003
      7 C         -13.6769   -0.5846   18.0812 C.ar    1  UNL1        0.0031
      8 C         -13.0033   -1.6845   17.3154 C.ar    1  UNL1        0.0376
      9 C         -13.2151   -3.1148   17.7146 C.ar    1  UNL1        0.1496
     10 O         -12.5416   -4.2148   16.9489 O.3     1  UNL1       -0.4533
     11 C         -11.5349   -5.0946   17.6290 C.ar    1  UNL1        0.1453
     12 C         -10.5454   -4.5004   18.5872 C.ar    1  UNL1        0.0375
     13 C          -9.5387   -5.3802   19.2673 C.ar    1  UNL1        0.0031
     14 C          -9.5215   -6.8541   18.9892 C.ar    1  UNL1        0.0002
     15 C         -10.5108   -7.4482   18.0311 C.ar    1  UNL1        0.0031
     16 C         -11.5175   -6.5685   17.3509 C.ar    1  UNL1        0.0375
     17 C         -15.4890   -7.1628   18.9140 C.3     1  UNL1        0.0927
     18 C         -16.6510   -7.6964   19.6983 C.3     1  UNL1        0.0383
     19 C         -16.4561   -9.1741   19.8680 C.3     1  UNL1        0.0704
     20 N         -15.1737   -9.5535   19.1887 N.3     1  UNL1       -0.2960
     21 C         -14.5760   -8.3104   18.5991 C.3     1  UNL1        0.0887
     22 H         -15.3607  -10.2316   18.4501 H       1  UNL1        0.1233
     23 C         -16.0310   -5.1590   17.3515 C.3     1  UNL1        0.0936
     24 C         -17.2096   -2.9154   16.7797 C.3     1  UNL1        0.0018
     25 C         -17.1407   -4.1777   17.5871 C.3     1  UNL1        0.0199
     26 C         -18.1816   -4.4586   18.6299 C.3     1  UNL1        0.0018
@<TRIPOS>BOND
     1    24    25    1
     2    25    26    1
     3    25    23    1
     4    23     1    1
     5     1     2   am
     6     2     3    2
     7     2     4    1
     8     4     5   ar
     9     5     6   ar
    10     6     7   ar
    11     7     8   ar
    12     8     9   ar
    13     9    10    1
    14    10    11    1
    15    11    12   ar
    16    12    13   ar
    17    13    14   ar
    18    14    15   ar
    19    15    16   ar
    20    17     1    1
    21    17    18    1
    22    18    19    1
    23    19    20    1
    24    20    21    1
    25     9     4   ar
    26    16    11   ar
    27    21    17    1
    28    20    22    1
@<TRIPOS>MOLECULE
*****
 26 28 0 0 0
SMALL
GASTEIGER

@<TRIPOS>ATOM
      1 N         -13.0021   -4.8852   18.8848 N.am    1  UNL1       -0.2762
      2 C         -13.9048   -5.2922   17.7581 C.2     1  UNL1        0.2520
      3 O         -13.4071   -6.2322   16.7004 O.2     1  UNL1       -0.2698
      4 C         -15.3053   -4.7593   17.6891 C.ar    1  UNL1        0.0880
      5 C         -15.6436   -3.6622   16.7239 C.ar    1  UNL1        0.0076
      6 C         -17.0440   -3.1293   16.6549 C.ar    1  UNL1        0.0003
      7 C         -18.1062   -3.6936   17.5512 C.ar    1  UNL1        0.0031
      8 C         -17.7679   -4.7908   18.5165 C.ar    1  UNL1        0.0376
      9 C         -16.3675   -5.3237   18.5854 C.ar    1  UNL1        0.1496
     10 O         -16.0292   -6.4209   19.5507 O.3     1  UNL1       -0.4533
     11 C         -16.3283   -7.8480   19.1988 C.ar    1  UNL1        0.1453
     12 C         -17.6501   -8.4513   19.5717 C.ar    1  UNL1        0.0375
     13 C         -17.9492   -9.8784   19.2198 C.ar    1  UNL1        0.0031
     14 C         -16.9265  -10.7023   18.4950 C.ar    1  UNL1        0.0002
     15 C         -15.6047  -10.0990   18.1220 C.ar    1  UNL1        0.0031
     16 C         -15.3056   -8.6719   18.4740 C.ar    1  UNL1        0.0375
     17 C         -11.6016   -5.4181   18.9538 C.3     1  UNL1        0.0927
     18 C         -11.2055   -6.8642   18.9104 C.3     1  UNL1        0.0383
     19 C          -9.7104   -6.9383   19.0081 C.3     1  UNL1        0.0704
     20 N          -9.1827   -5.5380   19.1119 N.3     1  UNL1       -0.2960
     21 C         -10.3515   -4.5985   19.0783 C.3     1  UNL1        0.0887
     22 H          -8.5599   -5.3438   18.3278 H       1  UNL1        0.1233
     23 C         -13.4999   -3.9452   19.9425 C.3     1  UNL1        0.0936
     24 C         -15.0057   -1.8280   19.9465 C.3     1  UNL1        0.0018
     25 C         -13.7015   -2.4939   19.6215 C.3     1  UNL1        0.0199
     26 C         -12.5989   -1.7084   18.9755 C.3     1  UNL1        0.0018
@<TRIPOS>BOND
     1    24    25    1
     2    25    26    1
     3    25    23    1
     4    23     1    1
     5     1     2   am
     6     2     3    2
     7     2     4    1
     8     4     5   ar
     9     5     6   ar
    10     6     7   ar
    11     7     8   ar
    12     8     9   ar
    13     9    10    1
    14    10    11    1
    15    11    12   ar
    16    12    13   ar
    17    13    14   ar
    18    14    15   ar
    19    15    16   ar
    20    17     1    1
    21    17    18    1
    22    18    19    1
    23    19    20    1
    24    20    21    1
    25     9     4   ar
    26    16    11   ar
    27    21    17    1
    28    20    22    1
