@<TRIPOS>MOLECULE
*****
 32 34 0 0 0
SMALL
GASTEIGER

@<TRIPOS>ATOM
      1 C          -7.3003  -15.7794   25.1353 C.3     1  UNL1        0.1190
      2 C          -6.9399  -15.7066   26.5895 C.3     1  UNL1        0.0254
      3 C          -8.0491  -16.3421   27.3744 C.3     1  UNL1        0.0233
      4 C          -9.0950  -16.8075   26.4052 C.3     1  UNL1        0.0935
      5 N          -8.6323  -16.4598   25.0213 N.am    1  UNL1       -0.2774
      6 C          -9.3716  -16.7428   23.7473 C.2     1  UNL1        0.2271
      7 O          -8.7806  -16.3339   22.4305 O.2     1  UNL1       -0.2748
      8 C          -6.4738  -15.2625   23.9952 C.3     1  UNL1        0.2266
      9 O          -4.9903  -15.1076   24.1540 O.3     1  UNL1       -0.4584
     10 C          -2.1890  -17.5039   21.5732 C.ar    1  UNL1        0.0878
     11 C          -3.0820  -18.1994   22.5574 C.ar    1  UNL1        0.0166
     12 C          -4.0158  -17.4007   23.4177 C.ar    1  UNL1        0.0584
     13 C          -4.0565  -15.9064   23.2937 C.ar    1  UNL1        0.2250
     14 N          -3.1635  -15.2109   22.3096 N.ar    1  UNL1       -0.2094
     15 C          -2.2297  -16.0096   21.4493 C.ar    1  UNL1        0.1123
     16 N          -0.3214  -19.1014   19.8527 N.1     1  UNL1       -0.1908
     17 C          -1.2552  -18.3026   20.7130 C.1     1  UNL1        0.1020
     18 C         -10.7018  -17.4345   23.7898 C.3     1  UNL1        0.1010
     19 C         -10.7684  -18.9331   23.7903 C.3     1  UNL1        0.0644
     20 N         -10.9940  -19.6733   25.0752 N.3     1  UNL1       -0.3215
     21 H         -11.0794  -19.0057   25.8417 H       1  UNL1        0.1188
     22 H         -10.2052  -20.2952   25.2524 H       1  UNL1        0.1188
     23 C         -10.6093  -19.6913   22.5059 C.3     1  UNL1        0.0447
     24 C          -9.2930  -19.6805   21.7866 C.ar    1  UNL1        0.0090
     25 C          -8.0258  -19.9637   22.5375 C.ar    1  UNL1        0.0300
     26 C          -6.7095  -19.9529   21.8184 C.ar    1  UNL1        0.1672
     27 F          -5.4422  -20.2361   22.5692 F       1  UNL1       -0.2018
     28 C          -6.6605  -19.6589   20.3483 C.ar    1  UNL1        0.1696
     29 F          -5.3442  -19.6481   19.6290 F       1  UNL1       -0.2017
     30 C          -7.9277  -19.3757   19.5973 C.ar    1  UNL1        0.0612
     31 C          -9.2440  -19.3865   20.3165 C.ar    1  UNL1        0.1386
     32 F         -10.5113  -19.1033   19.5657 F       1  UNL1       -0.2044
@<TRIPOS>BOND
     1    16    17    3
     2    17    10    1
     3    10    11   ar
     4    11    12   ar
     5    12    13   ar
     6    13     9    1
     7     9     8    1
     8     1     8    1
     9     1     2    1
    10     2     3    1
    11     3     4    1
    12     4     5    1
    13     5     6   am
    14     6     7    2
    15     6    18    1
    16    18    19    1
    17    19    20    1
    18    19    23    1
    19    23    24    1
    20    24    25   ar
    21    25    26   ar
    22    26    27    1
    23    26    28   ar
    24    28    29    1
    25    28    30   ar
    26    30    31   ar
    27    31    32    1
    28    13    14   ar
    29    14    15   ar
    30    15    10   ar
    31     5     1    1
    32    31    24   ar
    33    20    21    1
    34    20    22    1
@<TRIPOS>MOLECULE
*****
 32 34 0 0 0
SMALL
GASTEIGER

@<TRIPOS>ATOM
      1 C         -10.8276  -19.0011   22.8947 C.3     1  UNL1        0.1190
      2 C         -11.3142  -19.4695   24.2341 C.3     1  UNL1        0.0254
      3 C         -10.3094  -20.4411   24.7785 C.3     1  UNL1        0.0233
      4 C          -9.2018  -20.5732   23.7757 C.3     1  UNL1        0.0935
      5 N          -9.5220  -19.6832   22.6114 N.am    1  UNL1       -0.2774
      6 C          -8.6839  -19.5064   21.3801 C.2     1  UNL1        0.2271
      7 O          -9.1350  -18.5765   20.2929 O.2     1  UNL1       -0.2748
      8 C         -11.5242  -18.0225   21.9964 C.3     1  UNL1        0.2266
      9 O         -11.0492  -16.6016   21.9237 O.3     1  UNL1       -0.4584
     10 C          -7.4065  -15.3257   24.2374 C.ar    1  UNL1        0.0878
     11 C          -8.6676  -15.6882   24.9641 C.ar    1  UNL1        0.0166
     12 C          -9.8819  -16.1135   24.1928 C.ar    1  UNL1        0.0584
     13 C          -9.8350  -16.1763   22.6949 C.ar    1  UNL1        0.2250
     14 N          -8.5738  -15.8138   21.9682 N.ar    1  UNL1       -0.2094
     15 C          -7.3596  -15.3885   22.7395 C.ar    1  UNL1        0.1123
     16 N          -4.9781  -14.4751   25.7798 N.1     1  UNL1       -0.1908
     17 C          -6.1923  -14.9004   25.0086 C.1     1  UNL1        0.1020
     18 C          -7.3946  -20.2593   21.2359 C.3     1  UNL1        0.1010
     19 C          -6.2158  -19.6086   20.5747 C.3     1  UNL1        0.0644
     20 N          -6.4271  -18.4930   19.5946 N.3     1  UNL1       -0.3215
     21 H          -7.4258  -18.3089   19.4992 H       1  UNL1        0.1188
     22 H          -6.0423  -18.7592   18.6883 H       1  UNL1        0.1188
     23 C          -4.8258  -20.0736   20.8936 C.3     1  UNL1        0.0447
     24 C          -3.6659  -19.1364   20.7320 C.ar    1  UNL1        0.0090
     25 C          -3.0364  -18.9478   19.3836 C.ar    1  UNL1        0.0300
     26 C          -1.8764  -18.0106   19.2219 C.ar    1  UNL1        0.1672
     27 F          -1.2469  -17.8219   17.8735 F       1  UNL1       -0.2018
     28 C          -1.3460  -17.2620   20.4086 C.ar    1  UNL1        0.1696
     29 F          -0.1860  -16.3248   20.2469 F       1  UNL1       -0.2017
     30 C          -1.9754  -17.4506   21.7570 C.ar    1  UNL1        0.0612
     31 C          -3.1354  -18.3878   21.9187 C.ar    1  UNL1        0.1386
     32 F          -3.7649  -18.5765   23.2671 F       1  UNL1       -0.2044
@<TRIPOS>BOND
     1    16    17    3
     2    17    10    1
     3    10    11   ar
     4    11    12   ar
     5    12    13   ar
     6    13     9    1
     7     9     8    1
     8     1     8    1
     9     1     2    1
    10     2     3    1
    11     3     4    1
    12     4     5    1
    13     5     6   am
    14     6     7    2
    15     6    18    1
    16    18    19    1
    17    19    20    1
    18    19    23    1
    19    23    24    1
    20    24    25   ar
    21    25    26   ar
    22    26    27    1
    23    26    28   ar
    24    28    29    1
    25    28    30   ar
    26    30    31   ar
    27    31    32    1
    28    13    14   ar
    29    14    15   ar
    30    15    10   ar
    31     5     1    1
    32    31    24   ar
    33    20    21    1
    34    20    22    1
@<TRIPOS>MOLECULE
*****
 32 34 0 0 0
SMALL
GASTEIGER

@<TRIPOS>ATOM
      1 C         -10.4301  -18.9872   22.5377 C.3     1  UNL1        0.1190
      2 C         -11.2080  -19.4202   23.7449 C.3     1  UNL1        0.0254
      3 C         -10.3667  -20.3962   24.5129 C.3     1  UNL1        0.0233
      4 C          -9.0689  -20.5663   23.7803 C.3     1  UNL1        0.0935
      5 N          -9.1080  -19.6955   22.5595 N.am    1  UNL1       -0.2774
      6 C          -8.0168  -19.5573   21.5398 C.2     1  UNL1        0.2271
      7 O          -8.1998  -18.6429   20.3647 O.2     1  UNL1       -0.2748
      8 C         -10.8930  -18.0162   21.4922 C.3     1  UNL1        0.2266
      9 O         -10.4810  -16.5761   21.5711 O.3     1  UNL1       -0.4584
     10 C          -7.1755  -15.3311   24.3592 C.ar    1  UNL1        0.0878
     11 C          -8.5269  -15.6819   24.9075 C.ar    1  UNL1        0.0166
     12 C          -9.6287  -16.0969   23.9781 C.ar    1  UNL1        0.0584
     13 C          -9.3791  -16.1611   22.5005 C.ar    1  UNL1        0.2250
     14 N          -8.0278  -15.8103   21.9522 N.ar    1  UNL1       -0.2094
     15 C          -6.9259  -15.3953   22.8816 C.ar    1  UNL1        0.1123
     16 N          -4.9718  -14.5011   26.2180 N.1     1  UNL1       -0.1908
     17 C          -6.0736  -14.9161   25.2886 C.1     1  UNL1        0.1020
     18 C          -6.7426  -20.3333   21.6948 C.3     1  UNL1        0.1010
     19 C          -5.9724  -20.7611   20.4808 C.3     1  UNL1        0.0644
     20 N          -6.7001  -21.2680   19.2711 N.3     1  UNL1       -0.3215
     21 H          -7.7046  -21.2538   19.4479 H       1  UNL1        0.1188
     22 H          -6.4035  -22.2232   19.0713 H       1  UNL1        0.1188
     23 C          -4.4745  -20.6820   20.4765 C.3     1  UNL1        0.0447
     24 C          -3.7897  -19.4055   20.8658 C.ar    1  UNL1        0.0090
     25 C          -4.0239  -18.8128   22.2237 C.ar    1  UNL1        0.0300
     26 C          -3.3391  -17.5362   22.6131 C.ar    1  UNL1        0.1672
     27 F          -3.5732  -16.9435   23.9710 F       1  UNL1       -0.2018
     28 C          -2.4203  -16.8524   21.6446 C.ar    1  UNL1        0.1696
     29 F          -1.7356  -15.5759   22.0339 F       1  UNL1       -0.2017
     30 C          -2.1862  -17.4451   20.2866 C.ar    1  UNL1        0.0612
     31 C          -2.8709  -18.7216   19.8973 C.ar    1  UNL1        0.1386
     32 F          -2.6368  -19.3144   18.5394 F       1  UNL1       -0.2044
@<TRIPOS>BOND
     1    16    17    3
     2    17    10    1
     3    10    11   ar
     4    11    12   ar
     5    12    13   ar
     6    13     9    1
     7     9     8    1
     8     1     8    1
     9     1     2    1
    10     2     3    1
    11     3     4    1
    12     4     5    1
    13     5     6   am
    14     6     7    2
    15     6    18    1
    16    18    19    1
    17    19    20    1
    18    19    23    1
    19    23    24    1
    20    24    25   ar
    21    25    26   ar
    22    26    27    1
    23    26    28   ar
    24    28    29    1
    25    28    30   ar
    26    30    31   ar
    27    31    32    1
    28    13    14   ar
    29    14    15   ar
    30    15    10   ar
    31     5     1    1
    32    31    24   ar
    33    20    21    1
    34    20    22    1
@<TRIPOS>MOLECULE
*****
 32 34 0 0 0
SMALL
GASTEIGER

@<TRIPOS>ATOM
      1 C          -7.2246  -15.6239   24.4414 C.3     1  UNL1        0.1190
      2 C          -7.4177  -15.6184   25.9289 C.3     1  UNL1        0.0254
      3 C          -8.8919  -15.5930   26.2050 C.3     1  UNL1        0.0233
      4 C          -9.6099  -15.5829   24.8880 C.3     1  UNL1        0.0935
      5 N          -8.5795  -15.6020   23.7980 N.am    1  UNL1       -0.2774
      6 C          -8.8555  -15.5996   22.3237 C.2     1  UNL1        0.2271
      7 O          -7.7168  -15.6204   21.3475 O.2     1  UNL1       -0.2748
      8 C          -5.9079  -15.6473   23.7233 C.3     1  UNL1        0.2266
      9 O          -4.8492  -16.6291   24.1299 O.3     1  UNL1       -0.4584
     10 C          -1.6560  -17.8375   21.1985 C.ar    1  UNL1        0.0878
     11 C          -2.4066  -18.8862   21.9645 C.ar    1  UNL1        0.0166
     12 C          -3.4710  -18.4834   22.9417 C.ar    1  UNL1        0.0584
     13 C          -3.7848  -17.0319   23.1528 C.ar    1  UNL1        0.2250
     14 N          -3.0342  -15.9832   22.3868 N.ar    1  UNL1       -0.2094
     15 C          -1.9698  -16.3860   21.4096 C.ar    1  UNL1        0.1123
     16 N           0.4728  -18.6431   19.2442 N.1     1  UNL1       -0.1908
     17 C          -0.5916  -18.2403   20.2214 C.1     1  UNL1        0.1020
     18 C         -10.2701  -15.5764   21.8255 C.3     1  UNL1        0.1010
     19 C         -10.6342  -16.3070   20.5670 C.3     1  UNL1        0.0644
     20 N         -10.8930  -15.5413   19.3035 N.3     1  UNL1       -0.3215
     21 H         -10.7779  -14.5435   19.4810 H       1  UNL1        0.1188
     22 H         -11.8449  -15.7224   18.9850 H       1  UNL1        0.1188
     23 C         -10.7396  -17.8033   20.5722 C.3     1  UNL1        0.0447
     24 C         -10.5775  -18.5621   21.8560 C.ar    1  UNL1        0.0090
     25 C         -11.6102  -18.4369   22.9366 C.ar    1  UNL1        0.0300
     26 C         -11.4482  -19.1957   24.2204 C.ar    1  UNL1        0.1672
     27 F         -12.4809  -19.0705   25.3011 F       1  UNL1       -0.2018
     28 C         -10.2536  -20.0797   24.4234 C.ar    1  UNL1        0.1696
     29 F         -10.0915  -20.8385   25.7071 F       1  UNL1       -0.2017
     30 C          -9.2208  -20.2050   23.3427 C.ar    1  UNL1        0.0612
     31 C          -9.3829  -19.4462   22.0590 C.ar    1  UNL1        0.1386
     32 F          -8.3502  -19.5714   20.9783 F       1  UNL1       -0.2044
@<TRIPOS>BOND
     1    16    17    3
     2    17    10    1
     3    10    11   ar
     4    11    12   ar
     5    12    13   ar
     6    13     9    1
     7     9     8    1
     8     1     8    1
     9     1     2    1
    10     2     3    1
    11     3     4    1
    12     4     5    1
    13     5     6   am
    14     6     7    2
    15     6    18    1
    16    18    19    1
    17    19    20    1
    18    19    23    1
    19    23    24    1
    20    24    25   ar
    21    25    26   ar
    22    26    27    1
    23    26    28   ar
    24    28    29    1
    25    28    30   ar
    26    30    31   ar
    27    31    32    1
    28    13    14   ar
    29    14    15   ar
    30    15    10   ar
    31     5     1    1
    32    31    24   ar
    33    20    21    1
    34    20    22    1
@<TRIPOS>MOLECULE
*****
 32 34 0 0 0
SMALL
GASTEIGER

@<TRIPOS>ATOM
      1 C         -10.1809  -18.7244   21.7655 C.3     1  UNL1        0.1190
      2 C         -11.2995  -19.3712   22.5272 C.3     1  UNL1        0.0254
      3 C         -10.7035  -20.3993   23.4425 C.3     1  UNL1        0.0233
      4 C          -9.2164  -20.3880   23.2463 C.3     1  UNL1        0.0935
      5 N          -8.8933  -19.3528   22.2099 N.am    1  UNL1       -0.2774
      6 C          -7.5235  -19.0069   21.7064 C.2     1  UNL1        0.2271
      7 O          -7.3547  -17.9434   20.6619 O.2     1  UNL1       -0.2748
      8 C         -10.3245  -17.6396   20.7395 C.3     1  UNL1        0.2266
      9 O          -9.8494  -16.2502   21.0455 O.3     1  UNL1       -0.4584
     10 C          -7.8333  -15.3754   24.9724 C.ar    1  UNL1        0.0878
     11 C          -7.1486  -15.0276   23.6839 C.ar    1  UNL1        0.0166
     12 C          -7.8206  -15.3192   22.3749 C.ar    1  UNL1        0.0584
     13 C          -9.1774  -15.9586   22.3545 C.ar    1  UNL1        0.2250
     14 N          -9.8621  -16.3063   23.6429 N.ar    1  UNL1       -0.2094
     15 C          -9.1901  -16.0147   24.9519 C.ar    1  UNL1        0.1123
     16 N          -6.4893  -14.7922   27.5903 N.1     1  UNL1       -0.1908
     17 C          -7.1613  -15.0838   26.2813 C.1     1  UNL1        0.1020
     18 C          -6.3222  -19.7242   22.2471 C.3     1  UNL1        0.1010
     19 C          -5.0398  -18.9783   22.4686 C.3     1  UNL1        0.0644
     20 N          -5.0675  -17.5942   23.0460 N.3     1  UNL1       -0.3215
     21 H          -6.0333  -17.3204   23.2266 H       1  UNL1        0.1188
     22 H          -4.6470  -16.9414   22.3846 H       1  UNL1        0.1188
     23 C          -3.7299  -19.6165   22.1127 C.3     1  UNL1        0.0447
     24 C          -2.9243  -19.0853   20.9643 C.ar    1  UNL1        0.0090
     25 C          -1.5169  -18.6173   21.1885 C.ar    1  UNL1        0.0300
     26 C          -0.7112  -18.0861   20.0401 C.ar    1  UNL1        0.1672
     27 F           0.6961  -17.6181   20.2642 F       1  UNL1       -0.2018
     28 C          -1.3130  -18.0229   18.6676 C.ar    1  UNL1        0.1696
     29 F          -0.5074  -17.4917   17.5191 F       1  UNL1       -0.2017
     30 C          -2.7204  -18.4909   18.4433 C.ar    1  UNL1        0.0612
     31 C          -3.5260  -19.0221   19.5917 C.ar    1  UNL1        0.1386
     32 F          -4.9334  -19.4901   19.3676 F       1  UNL1       -0.2044
@<TRIPOS>BOND
     1    16    17    3
     2    17    10    1
     3    10    11   ar
     4    11    12   ar
     5    12    13   ar
     6    13     9    1
     7     9     8    1
     8     1     8    1
     9     1     2    1
    10     2     3    1
    11     3     4    1
    12     4     5    1
    13     5     6   am
    14     6     7    2
    15     6    18    1
    16    18    19    1
    17    19    20    1
    18    19    23    1
    19    23    24    1
    20    24    25   ar
    21    25    26   ar
    22    26    27    1
    23    26    28   ar
    24    28    29    1
    25    28    30   ar
    26    30    31   ar
    27    31    32    1
    28    13    14   ar
    29    14    15   ar
    30    15    10   ar
    31     5     1    1
    32    31    24   ar
    33    20    21    1
    34    20    22    1
@<TRIPOS>MOLECULE
*****
 32 34 0 0 0
SMALL
GASTEIGER

@<TRIPOS>ATOM
      1 C         -11.5304   -6.2431   17.9602 C.3     1  UNL1        0.1190
      2 C         -10.6643   -6.9661   18.9486 C.3     1  UNL1        0.0254
      3 C          -9.4869   -6.0907   19.2608 C.3     1  UNL1        0.0233
      4 C          -9.6255   -4.8265   18.4654 C.3     1  UNL1        0.0935
      5 N         -10.8884   -4.9206   17.6615 N.am    1  UNL1       -0.2774
      6 C         -11.4166   -3.8759   16.7238 C.2     1  UNL1        0.2271
      7 O         -12.7003   -4.1117   15.9844 O.2     1  UNL1       -0.2748
      8 C         -12.8133   -6.7529   17.3734 C.3     1  UNL1        0.2266
      9 O         -13.3837   -8.0598   17.8387 O.3     1  UNL1       -0.4584
     10 C         -17.4254   -8.1751   19.8139 C.ar    1  UNL1        0.0878
     11 C         -16.8581   -6.8691   19.3424 C.ar    1  UNL1        0.0166
     12 C         -15.5108   -6.8306   18.6840 C.ar    1  UNL1        0.0584
     13 C         -14.7310   -8.0982   18.4971 C.ar    1  UNL1        0.2250
     14 N         -15.2983   -9.4042   18.9686 N.ar    1  UNL1       -0.2094
     15 C         -16.6456   -9.4427   19.6270 C.ar    1  UNL1        0.1123
     16 N         -20.1199   -8.2519   21.1306 N.1     1  UNL1       -0.1908
     17 C         -18.7727   -8.2135   20.4723 C.1     1  UNL1        0.1020
     18 C         -10.6612   -2.5953   16.5252 C.3     1  UNL1        0.1010
     19 C         -11.1482   -1.3299   17.1667 C.3     1  UNL1        0.0644
     20 N         -11.2677   -0.0749   16.3539 N.3     1  UNL1       -0.3215
     21 H         -10.9785   -0.2627   15.3940 H       1  UNL1        0.1188
     22 H         -10.6693    0.6476   16.7541 H       1  UNL1        0.1188
     23 C         -11.5157   -1.3195   18.6209 C.3     1  UNL1        0.0447
     24 C         -12.8016   -1.9450   19.0740 C.ar    1  UNL1        0.0090
     25 C         -12.7762   -3.1910   19.9087 C.ar    1  UNL1        0.0300
     26 C         -14.0621   -3.8166   20.3619 C.ar    1  UNL1        0.1672
     27 F         -14.0368   -5.0626   21.1965 F       1  UNL1       -0.2018
     28 C         -15.3733   -3.1960   19.9803 C.ar    1  UNL1        0.1696
     29 F         -16.6592   -3.8214   20.4334 F       1  UNL1       -0.2017
     30 C         -15.3987   -1.9498   19.1456 C.ar    1  UNL1        0.0612
     31 C         -14.1128   -1.3244   18.6925 C.ar    1  UNL1        0.1386
     32 F         -14.1381   -0.0784   17.8578 F       1  UNL1       -0.2044
@<TRIPOS>BOND
     1    16    17    3
     2    17    10    1
     3    10    11   ar
     4    11    12   ar
     5    12    13   ar
     6    13     9    1
     7     9     8    1
     8     1     8    1
     9     1     2    1
    10     2     3    1
    11     3     4    1
    12     4     5    1
    13     5     6   am
    14     6     7    2
    15     6    18    1
    16    18    19    1
    17    19    20    1
    18    19    23    1
    19    23    24    1
    20    24    25   ar
    21    25    26   ar
    22    26    27    1
    23    26    28   ar
    24    28    29    1
    25    28    30   ar
    26    30    31   ar
    27    31    32    1
    28    13    14   ar
    29    14    15   ar
    30    15    10   ar
    31     5     1    1
    32    31    24   ar
    33    20    21    1
    34    20    22    1
@<TRIPOS>MOLECULE
*****
 32 34 0 0 0
SMALL
GASTEIGER

@<TRIPOS>ATOM
      1 C         -10.7178   -4.9220   17.9980 C.3     1  UNL1        0.1190
      2 C          -9.5604   -5.1870   18.9145 C.3     1  UNL1        0.0254
      3 C          -9.5480   -6.6526   19.2337 C.3     1  UNL1        0.0233
      4 C         -10.6978   -7.2934   18.5144 C.3     1  UNL1        0.0935
      5 N         -11.4208   -6.2238   17.7506 N.am    1  UNL1       -0.2774
      6 C         -12.6337   -6.4213   16.8907 C.2     1  UNL1        0.2271
      7 O         -13.2510   -5.2507   16.1842 O.2     1  UNL1       -0.2748
      8 C         -11.1044   -3.5891   17.4287 C.3     1  UNL1        0.2266
      9 O         -11.2469   -2.4004   18.3323 O.3     1  UNL1       -0.4584
     10 C         -15.3286   -1.0936   19.7043 C.ar    1  UNL1        0.0878
     11 C         -14.7577   -2.3956   20.1827 C.ar    1  UNL1        0.0166
     12 C         -13.3972   -2.8312   19.7254 C.ar    1  UNL1        0.0584
     13 C         -12.6075   -1.9648   18.7896 C.ar    1  UNL1        0.2250
     14 N         -13.1783   -0.6628   18.3112 N.ar    1  UNL1       -0.2094
     15 C         -14.5388   -0.2272   18.7685 C.ar    1  UNL1        0.1123
     16 N         -18.0497   -0.2224   20.6189 N.1     1  UNL1       -0.1908
     17 C         -16.6891   -0.6580   20.1616 C.1     1  UNL1        0.1020
     18 C         -13.2296   -7.7892   16.7370 C.3     1  UNL1        0.1010
     19 C         -14.3830   -8.2064   17.6005 C.3     1  UNL1        0.0644
     20 N         -14.1344   -8.9787   18.8621 N.3     1  UNL1       -0.3215
     21 H         -13.1322   -9.1307   18.9758 H       1  UNL1        0.1188
     22 H         -14.6111   -9.8789   18.8092 H       1  UNL1        0.1188
     23 C         -15.7849   -7.8512   17.2024 C.3     1  UNL1        0.0447
     24 C         -16.9387   -8.2734   18.0629 C.ar    1  UNL1        0.0090
     25 C         -17.8216   -9.4063   17.6305 C.ar    1  UNL1        0.0300
     26 C         -18.9755   -9.8286   18.4909 C.ar    1  UNL1        0.1672
     27 F         -19.8584  -10.9615   18.0586 F       1  UNL1       -0.2018
     28 C         -19.2464   -9.1179   19.7838 C.ar    1  UNL1        0.1696
     29 F         -20.4002   -9.5401   20.6443 F       1  UNL1       -0.2017
     30 C         -18.3635   -7.9849   20.2163 C.ar    1  UNL1        0.0612
     31 C         -17.2096   -7.5627   19.3557 C.ar    1  UNL1        0.1386
     32 F         -16.3267   -6.4298   19.7881 F       1  UNL1       -0.2044
@<TRIPOS>BOND
     1    16    17    3
     2    17    10    1
     3    10    11   ar
     4    11    12   ar
     5    12    13   ar
     6    13     9    1
     7     9     8    1
     8     1     8    1
     9     1     2    1
    10     2     3    1
    11     3     4    1
    12     4     5    1
    13     5     6   am
    14     6     7    2
    15     6    18    1
    16    18    19    1
    17    19    20    1
    18    19    23    1
    19    23    24    1
    20    24    25   ar
    21    25    26   ar
    22    26    27    1
    23    26    28   ar
    24    28    29    1
    25    28    30   ar
    26    30    31   ar
    27    31    32    1
    28    13    14   ar
    29    14    15   ar
    30    15    10   ar
    31     5     1    1
    32    31    24   ar
    33    20    21    1
    34    20    22    1
@<TRIPOS>MOLECULE
*****
 32 34 0 0 0
SMALL
GASTEIGER

@<TRIPOS>ATOM
      1 C         -11.4541   -6.6641   17.3418 C.3     1  UNL1        0.1190
      2 C         -10.5768   -7.5870   18.1346 C.3     1  UNL1        0.0254
      3 C          -9.6420   -6.7476   18.9543 C.3     1  UNL1        0.0233
      4 C          -9.9417   -5.3060   18.6680 C.3     1  UNL1        0.0935
      5 N         -11.0616   -5.2543   17.6714 N.am    1  UNL1       -0.2774
      6 C         -11.6804   -4.0114   17.1041 C.2     1  UNL1        0.2271
      7 O         -12.7993   -4.1167   16.1105 O.2     1  UNL1       -0.2748
      8 C         -12.5343   -7.0783   16.3869 C.3     1  UNL1        0.2266
      9 O         -13.3226   -8.3285   16.6428 O.3     1  UNL1       -0.4584
     10 C         -17.1149   -8.1423   19.0582 C.ar    1  UNL1        0.0878
     11 C         -16.9995   -7.3626   17.7820 C.ar    1  UNL1        0.0166
     12 C         -15.7354   -7.4247   16.9769 C.ar    1  UNL1        0.0584
     13 C         -14.5867   -8.2664   17.4480 C.ar    1  UNL1        0.2250
     14 N         -14.7021   -9.0461   18.7241 N.ar    1  UNL1       -0.2094
     15 C         -15.9662   -8.9841   19.5293 C.ar    1  UNL1        0.1123
     16 N         -19.6431   -8.0182   20.6685 N.1     1  UNL1       -0.1908
     17 C         -18.3790   -8.0803   19.8634 C.1     1  UNL1        0.1020
     18 C         -11.1804   -2.6628   17.5302 C.3     1  UNL1        0.1010
     19 C         -11.9596   -1.8536   18.5241 C.3     1  UNL1        0.0644
     20 N         -12.1991   -0.3933   18.2791 N.3     1  UNL1       -0.3215
     21 H         -11.7652   -0.1209   17.3971 H       1  UNL1        0.1188
     22 H         -11.7924    0.1504   19.0402 H       1  UNL1        0.1188
     23 C         -12.4993   -2.5046   19.7630 C.3     1  UNL1        0.0447
     24 C         -13.8991   -3.0434   19.7782 C.ar    1  UNL1        0.0090
     25 C         -15.0612   -2.1175   19.5727 C.ar    1  UNL1        0.0300
     26 C         -16.4611   -2.6562   19.5879 C.ar    1  UNL1        0.1672
     27 F         -17.6233   -1.7304   19.3824 F       1  UNL1       -0.2018
     28 C         -16.6988   -4.1207   19.8086 C.ar    1  UNL1        0.1696
     29 F         -18.0986   -4.6594   19.8238 F       1  UNL1       -0.2017
     30 C         -15.5366   -5.0466   20.0141 C.ar    1  UNL1        0.0612
     31 C         -14.1368   -4.5079   19.9989 C.ar    1  UNL1        0.1386
     32 F         -12.9746   -5.4336   20.2044 F       1  UNL1       -0.2044
@<TRIPOS>BOND
     1    16    17    3
     2    17    10    1
     3    10    11   ar
     4    11    12   ar
     5    12    13   ar
     6    13     9    1
     7     9     8    1
     8     1     8    1
     9     1     2    1
    10     2     3    1
    11     3     4    1
    12     4     5    1
    13     5     6   am
    14     6     7    2
    15     6    18    1
    16    18    19    1
    17    19    20    1
    18    19    23    1
    19    23    24    1
    20    24    25   ar
    21    25    26   ar
    22    26    27    1
    23    26    28   ar
    24    28    29    1
    25    28    30   ar
    26    30    31   ar
    27    31    32    1
    28    13    14   ar
    29    14    15   ar
    30    15    10   ar
    31     5     1    1
    32    31    24   ar
    33    20    21    1
    34    20    22    1
@<TRIPOS>MOLECULE
*****
 32 34 0 0 0
SMALL
GASTEIGER

@<TRIPOS>ATOM
      1 C         -10.8098  -17.4893   23.7589 C.3     1  UNL1        0.1190
      2 C         -11.4615  -18.4759   24.6820 C.3     1  UNL1        0.0254
      3 C         -10.3902  -19.3628   25.2437 C.3     1  UNL1        0.0233
      4 C          -9.0763  -18.9245   24.6679 C.3     1  UNL1        0.0935
      5 N          -9.3356  -17.7666   23.7502 N.am    1  UNL1       -0.2774
      6 C          -8.3023  -17.0175   22.9622 C.2     1  UNL1        0.2271
      7 O          -8.7134  -15.8748   22.0817 O.2     1  UNL1       -0.2748
      8 C         -11.5093  -16.4143   22.9812 C.3     1  UNL1        0.2266
      9 O         -11.9017  -16.6559   21.5537 O.3     1  UNL1       -0.4584
     10 C          -9.9229  -19.9425   19.2016 C.ar    1  UNL1        0.0878
     11 C         -10.8194  -20.2812   20.3555 C.ar    1  UNL1        0.0166
     12 C         -11.4790  -19.1856   21.1395 C.ar    1  UNL1        0.0584
     13 C         -11.2421  -17.7514   20.7697 C.ar    1  UNL1        0.2250
     14 N         -10.3455  -17.4127   19.6158 N.ar    1  UNL1       -0.2094
     15 C          -9.6859  -18.5083   18.8318 C.ar    1  UNL1        0.1123
     16 N          -8.6036  -22.1336   17.6336 N.1     1  UNL1       -0.1908
     17 C          -9.2633  -21.0380   18.4176 C.1     1  UNL1        0.1020
     18 C          -6.8578  -17.4110   23.0546 C.3     1  UNL1        0.1010
     19 C          -5.8228  -16.3868   23.4149 C.3     1  UNL1        0.0644
     20 N          -6.1684  -14.9275   23.3813 N.3     1  UNL1       -0.3215
     21 H          -7.1408  -14.8150   23.0945 H       1  UNL1        0.1188
     22 H          -5.5604  -14.4493   22.7165 H       1  UNL1        0.1188
     23 C          -4.4424  -16.8217   23.8087 C.3     1  UNL1        0.0447
     24 C          -3.4906  -17.3307   22.7670 C.ar    1  UNL1        0.0090
     25 C          -2.4933  -16.3998   22.1436 C.ar    1  UNL1        0.0300
     26 C          -1.5415  -16.9087   21.1018 C.ar    1  UNL1        0.1672
     27 F          -0.5441  -15.9778   20.4783 F       1  UNL1       -0.2018
     28 C          -1.5870  -18.3485   20.6837 C.ar    1  UNL1        0.1696
     29 F          -0.6353  -18.8574   19.6420 F       1  UNL1       -0.2017
     30 C          -2.5844  -19.2794   21.3072 C.ar    1  UNL1        0.0612
     31 C          -3.5362  -18.7705   22.3488 C.ar    1  UNL1        0.1386
     32 F          -4.5335  -19.7014   22.9724 F       1  UNL1       -0.2044
@<TRIPOS>BOND
     1    16    17    3
     2    17    10    1
     3    10    11   ar
     4    11    12   ar
     5    12    13   ar
     6    13     9    1
     7     9     8    1
     8     1     8    1
     9     1     2    1
    10     2     3    1
    11     3     4    1
    12     4     5    1
    13     5     6   am
    14     6     7    2
    15     6    18    1
    16    18    19    1
    17    19    20    1
    18    19    23    1
    19    23    24    1
    20    24    25   ar
    21    25    26   ar
    22    26    27    1
    23    26    28   ar
    24    28    29    1
    25    28    30   ar
    26    30    31   ar
    27    31    32    1
    28    13    14   ar
    29    14    15   ar
    30    15    10   ar
    31     5     1    1
    32    31    24   ar
    33    20    21    1
    34    20    22    1
