@<TRIPOS>MOLECULE
*****
 28 30 0 0 0
SMALL
GASTEIGER

@<TRIPOS>ATOM
      1 C           2.1100    0.6795   24.0034 C.ar    1  UNL1        0.1345
      2 C           1.2839    1.0579   22.8099 C.ar    1  UNL1        0.0366
      3 C           1.4639    0.3287   21.5115 C.ar    1  UNL1        0.0028
      4 C           2.4699   -0.7789   21.4066 C.ar    1  UNL1       -0.0028
      5 C           3.2960   -1.1573   22.6000 C.ar    1  UNL1       -0.0053
      6 C           3.1160   -0.4281   23.8984 C.ar    1  UNL1        0.0111
      7 C           3.9421   -0.8065   25.0919 C.3     1  UNL1        0.0507
      8 C           4.9482   -1.9141   24.9870 C.3     1  UNL1        0.0985
      9 N           5.1281   -2.6433   23.6885 N.am    1  UNL1       -0.2760
     10 C           6.1342   -3.7510   23.5836 C.2     1  UNL1        0.2420
     11 O           6.3142   -4.4802   22.2852 O.2     1  UNL1       -0.2734
     12 C           4.3021   -2.2649   22.4951 C.3     1  UNL1        0.0976
     13 C           4.4820   -2.9942   21.1967 C.3     1  UNL1        0.0224
     14 C           3.7002   -4.2449   20.9244 C.3     1  UNL1        0.0020
     15 C           3.8801   -4.9742   19.6259 C.3     1  UNL1        0.0001
     16 C           4.8419   -4.4526   18.5999 C.3     1  UNL1        0.0000
     17 C           5.6238   -3.2017   18.8722 C.3     1  UNL1        0.0001
     18 C           5.4439   -2.4725   20.1706 C.3     1  UNL1        0.0020
     19 C           0.6399    1.2879   26.0573 C.3     1  UNL1        0.2525
     20 O           1.9300    1.4088   25.3018 O.3     1  UNL1       -0.4718
     21 C           6.9603   -4.1294   24.7771 C.3     1  UNL1        0.1552
     22 N           6.3675   -4.9817   25.8597 N.3     1  UNL1       -0.2878
     23 H           5.5831   -5.4833   25.4433 H       1  UNL1        0.1238
     24 C           7.2144   -6.0046   26.5573 C.3     1  UNL1        0.0985
     25 C           7.3935   -7.3667   25.9551 C.3     1  UNL1        0.1263
     26 C           8.3739   -7.5699   24.8383 C.3     1  UNL1        0.0332
     27 O           6.5922   -8.5256   26.4699 O.3     1  UNL1       -0.3830
     28 H           6.0113   -8.2244   27.1859 H       1  UNL1        0.2104
@<TRIPOS>BOND
     1    19    20    1
     2    20     1    1
     3     1     2   ar
     4     2     3   ar
     5     3     4   ar
     6     4     5   ar
     7     5     6   ar
     8     6     7    1
     9     7     8    1
    10     8     9    1
    11     9    10   am
    12    10    11    2
    13    10    21    1
    14    21    22    1
    15    22    24    1
    16    24    25    1
    17    25    26    1
    18    25    27    1
    19     9    12    1
    20    12    13    1
    21    13    14    1
    22    14    15    1
    23    15    16    1
    24    16    17    1
    25    17    18    1
    26     6     1   ar
    27    18    13    1
    28    12     5    1
    29    22    23    1
    30    27    28    1
@<TRIPOS>MOLECULE
*****
 28 30 0 0 0
SMALL
GASTEIGER

@<TRIPOS>ATOM
      1 C           0.3356    1.1056   20.8619 C.ar    1  UNL1        0.1345
      2 C           0.7342    0.6603   19.4861 C.ar    1  UNL1        0.0366
      3 C           1.9520   -0.1951   19.2981 C.ar    1  UNL1        0.0028
      4 C           2.7711   -0.6052   20.4858 C.ar    1  UNL1       -0.0028
      5 C           2.3725   -0.1600   21.8616 C.ar    1  UNL1       -0.0053
      6 C           1.1547    0.6954   22.0496 C.ar    1  UNL1        0.0111
      7 C           0.7561    1.1407   23.4255 C.3     1  UNL1        0.0507
      8 C           1.5752    0.7306   24.6132 C.3     1  UNL1        0.0985
      9 N           2.7929   -0.1248   24.4252 N.am    1  UNL1       -0.2760
     10 C           3.6121   -0.5350   25.6131 C.2     1  UNL1        0.2420
     11 O           4.8298   -1.3904   25.4250 O.2     1  UNL1       -0.2734
     12 C           3.1916   -0.5701   23.0495 C.3     1  UNL1        0.0976
     13 C           4.4094   -1.4255   22.8614 C.3     1  UNL1        0.0224
     14 C           5.7464   -0.7863   22.6300 C.3     1  UNL1        0.0020
     15 C           6.9642   -1.6417   22.4420 C.3     1  UNL1        0.0001
     16 C           6.8449   -3.1363   22.4854 C.3     1  UNL1        0.0000
     17 C           5.5077   -3.7755   22.7168 C.3     1  UNL1        0.0001
     18 C           4.2900   -2.9202   22.9048 C.3     1  UNL1        0.0020
     19 C          -0.7975    3.4434   20.8376 C.3     1  UNL1        0.2525
     20 O          -0.8822    1.9610   21.0499 O.3     1  UNL1       -0.4718
     21 C           3.2134   -0.0897   26.9888 C.3     1  UNL1        0.1552
     22 N           2.3755   -0.9845   27.8533 N.3     1  UNL1       -0.2878
     23 H           3.0171   -1.6178   28.3305 H       1  UNL1        0.1238
     24 C           1.4877   -0.3921   28.9073 C.3     1  UNL1        0.0985
     25 C           0.1709    0.2155   28.5240 C.3     1  UNL1        0.1263
     26 C          -1.1072   -0.5017   28.8433 C.3     1  UNL1        0.0332
     27 O           0.1323    1.5403   27.8216 O.3     1  UNL1       -0.3830
     28 H           1.0374    1.8644   27.6927 H       1  UNL1        0.2104
@<TRIPOS>BOND
     1    19    20    1
     2    20     1    1
     3     1     2   ar
     4     2     3   ar
     5     3     4   ar
     6     4     5   ar
     7     5     6   ar
     8     6     7    1
     9     7     8    1
    10     8     9    1
    11     9    10   am
    12    10    11    2
    13    10    21    1
    14    21    22    1
    15    22    24    1
    16    24    25    1
    17    25    26    1
    18    25    27    1
    19     9    12    1
    20    12    13    1
    21    13    14    1
    22    14    15    1
    23    15    16    1
    24    16    17    1
    25    17    18    1
    26     6     1   ar
    27    18    13    1
    28    12     5    1
    29    22    23    1
    30    27    28    1
@<TRIPOS>MOLECULE
*****
 28 30 0 0 0
SMALL
GASTEIGER

@<TRIPOS>ATOM
      1 C           3.3954   -2.0404   20.5724 C.ar    1  UNL1        0.1345
      2 C           4.2815   -2.5344   21.6772 C.ar    1  UNL1        0.0366
      3 C           4.2097   -1.9024   23.0357 C.ar    1  UNL1        0.0028
      4 C           3.2517   -0.7764   23.2893 C.ar    1  UNL1       -0.0028
      5 C           2.3656   -0.2823   22.1844 C.ar    1  UNL1       -0.0053
      6 C           2.4375   -0.9144   20.8260 C.ar    1  UNL1        0.0111
      7 C           1.5513   -0.4203   19.7211 C.3     1  UNL1        0.0507
      8 C           0.5934    0.7057   19.9747 C.3     1  UNL1        0.0985
      9 N           0.5215    1.3378   21.3332 N.am    1  UNL1       -0.2760
     10 C          -0.4365    2.4639   21.5867 C.2     1  UNL1        0.2420
     11 O          -0.5083    3.0959   22.9452 O.2     1  UNL1       -0.2734
     12 C           1.4076    0.8438   22.4380 C.3     1  UNL1        0.0976
     13 C           1.3358    1.4758   23.7964 C.3     1  UNL1        0.0224
     14 C           0.3599    0.9610   24.8125 C.3     1  UNL1        0.0020
     15 C           0.2881    1.5930   26.1710 C.3     1  UNL1        0.0001
     16 C           1.1922    2.7398   26.5133 C.3     1  UNL1        0.0000
     17 C           2.1682    3.2547   25.4972 C.3     1  UNL1        0.0001
     18 C           2.2400    2.6227   24.1388 C.3     1  UNL1        0.0020
     19 C           4.1516   -3.9955   19.0375 C.3     1  UNL1        0.2525
     20 O           3.4672   -2.6724   19.2139 O.3     1  UNL1       -0.4718
     21 C          -1.3226    2.9579   20.4819 C.3     1  UNL1        0.1552
     22 N          -2.8118    2.8208   20.5968 N.3     1  UNL1       -0.2878
     23 H          -2.9887    1.9760   21.1403 H       1  UNL1        0.1238
     24 C          -3.6196    3.9172   21.2257 C.3     1  UNL1        0.0985
     25 C          -3.8767    3.9064   22.7034 C.3     1  UNL1        0.1263
     26 C          -5.0891    3.2117   23.2486 C.3     1  UNL1        0.0332
     27 O          -2.9213    4.5903   23.6359 O.3     1  UNL1       -0.3830
     28 H          -2.1981    4.9860   23.1248 H       1  UNL1        0.2104
@<TRIPOS>BOND
     1    19    20    1
     2    20     1    1
     3     1     2   ar
     4     2     3   ar
     5     3     4   ar
     6     4     5   ar
     7     5     6   ar
     8     6     7    1
     9     7     8    1
    10     8     9    1
    11     9    10   am
    12    10    11    2
    13    10    21    1
    14    21    22    1
    15    22    24    1
    16    24    25    1
    17    25    26    1
    18    25    27    1
    19     9    12    1
    20    12    13    1
    21    13    14    1
    22    14    15    1
    23    15    16    1
    24    16    17    1
    25    17    18    1
    26     6     1   ar
    27    18    13    1
    28    12     5    1
    29    22    23    1
    30    27    28    1
@<TRIPOS>MOLECULE
*****
 28 30 0 0 0
SMALL
GASTEIGER

@<TRIPOS>ATOM
      1 C           5.8338   -3.4576   23.1906 C.ar    1  UNL1        0.1345
      2 C           6.2711   -3.8703   21.8164 C.ar    1  UNL1        0.0366
      3 C           5.6945   -3.1903   20.6101 C.ar    1  UNL1        0.0028
      4 C           4.6807   -2.0977   20.7780 C.ar    1  UNL1       -0.0028
      5 C           4.2434   -1.6850   22.1521 C.ar    1  UNL1       -0.0053
      6 C           4.8199   -2.3650   23.3585 C.ar    1  UNL1        0.0111
      7 C           4.3826   -1.9523   24.7327 C.3     1  UNL1        0.0507
      8 C           3.3687   -0.8597   24.9006 C.3     1  UNL1        0.0985
      9 N           2.7922   -0.1797   23.6943 N.am    1  UNL1       -0.2760
     10 C           1.7783    0.9130   23.8622 C.2     1  UNL1        0.2420
     11 O           1.2017    1.5930   22.6559 O.2     1  UNL1       -0.2734
     12 C           3.2295   -0.5923   22.3201 C.3     1  UNL1        0.0976
     13 C           2.6529    0.0876   21.1138 C.3     1  UNL1        0.0224
     14 C           3.3338    1.2923   20.5348 C.3     1  UNL1        0.0020
     15 C           2.7572    1.9723   19.3285 C.3     1  UNL1        0.0001
     16 C           1.4998    1.4476   18.7011 C.3     1  UNL1        0.0000
     17 C           0.8189    0.2429   19.2801 C.3     1  UNL1        0.0001
     18 C           1.3954   -0.4371   20.4864 C.3     1  UNL1        0.0020
     19 C           7.5521   -5.0980   24.2424 C.3     1  UNL1        0.2525
     20 O           6.4103   -4.1376   24.3969 O.3     1  UNL1       -0.4718
     21 C           1.3410    1.3256   25.2364 C.3     1  UNL1        0.1552
     22 N          -0.0026    0.9049   25.7538 N.3     1  UNL1       -0.2878
     23 H          -0.0384   -0.1123   25.6874 H       1  UNL1        0.1238
     24 C          -0.4137    1.2623   27.1514 C.3     1  UNL1        0.0985
     25 C          -0.3737    0.2244   28.2336 C.3     1  UNL1        0.1263
     26 C          -1.5995   -0.0529   29.0524 C.3     1  UNL1        0.0332
     27 O           0.8921   -0.5362   28.4968 O.3     1  UNL1       -0.3830
     28 H           1.5823   -0.2372   27.8844 H       1  UNL1        0.2104
@<TRIPOS>BOND
     1    19    20    1
     2    20     1    1
     3     1     2   ar
     4     2     3   ar
     5     3     4   ar
     6     4     5   ar
     7     5     6   ar
     8     6     7    1
     9     7     8    1
    10     8     9    1
    11     9    10   am
    12    10    11    2
    13    10    21    1
    14    21    22    1
    15    22    24    1
    16    24    25    1
    17    25    26    1
    18    25    27    1
    19     9    12    1
    20    12    13    1
    21    13    14    1
    22    14    15    1
    23    15    16    1
    24    16    17    1
    25    17    18    1
    26     6     1   ar
    27    18    13    1
    28    12     5    1
    29    22    23    1
    30    27    28    1
@<TRIPOS>MOLECULE
*****
 28 30 0 0 0
SMALL
GASTEIGER

@<TRIPOS>ATOM
      1 C           3.3300   -1.8961   20.5635 C.ar    1  UNL1        0.1345
      2 C           4.2637   -2.3453   21.6481 C.ar    1  UNL1        0.0366
      3 C           4.2078   -1.6998   23.0009 C.ar    1  UNL1        0.0028
      4 C           3.2181   -0.6051   23.2692 C.ar    1  UNL1       -0.0028
      5 C           2.2844   -0.1559   22.1847 C.ar    1  UNL1       -0.0053
      6 C           2.3403   -0.8014   20.8318 C.ar    1  UNL1        0.0111
      7 C           1.4065   -0.3521   19.7473 C.3     1  UNL1        0.0507
      8 C           0.4168    0.7426   20.0156 C.3     1  UNL1        0.0985
      9 N           0.3609    1.3882   21.3684 N.am    1  UNL1       -0.2760
     10 C          -0.6289    2.4830   21.6367 C.2     1  UNL1        0.2420
     11 O          -0.6848    3.1285   22.9895 O.2     1  UNL1       -0.2734
     12 C           1.2946    0.9389   22.4530 C.3     1  UNL1        0.0976
     13 C           1.2387    1.5845   23.8058 C.3     1  UNL1        0.0224
     14 C           2.0808    2.7913   24.0963 C.3     1  UNL1        0.0020
     15 C           2.0249    3.4368   25.4492 C.3     1  UNL1        0.0001
     16 C           1.1269    2.8755   26.5115 C.3     1  UNL1        0.0000
     17 C           0.2847    1.6687   26.2209 C.3     1  UNL1        0.0001
     18 C           0.3406    1.0231   24.8681 C.3     1  UNL1        0.0020
     19 C           4.4546   -2.1470   18.2350 C.3     1  UNL1        0.2525
     20 O           3.3859   -2.5417   19.2107 O.3     1  UNL1       -0.4718
     21 C          -1.5626    2.9322   20.5522 C.3     1  UNL1        0.1552
     22 N          -3.0367    2.6874   20.6827 N.3     1  UNL1       -0.2878
     23 H          -3.2247    2.5441   21.6749 H       1  UNL1        0.1238
     24 C          -4.0138    3.7188   20.2015 C.3     1  UNL1        0.0985
     25 C          -4.5838    3.6238   18.8173 C.3     1  UNL1        0.1263
     26 C          -6.0303    3.2772   18.6241 C.3     1  UNL1        0.0332
     27 O          -3.7073    3.8755   17.6263 O.3     1  UNL1       -0.3830
     28 H          -2.8085    4.0851   17.9249 H       1  UNL1        0.2104
@<TRIPOS>BOND
     1    19    20    1
     2    20     1    1
     3     1     2   ar
     4     2     3   ar
     5     3     4   ar
     6     4     5   ar
     7     5     6   ar
     8     6     7    1
     9     7     8    1
    10     8     9    1
    11     9    10   am
    12    10    11    2
    13    10    21    1
    14    21    22    1
    15    22    24    1
    16    24    25    1
    17    25    26    1
    18    25    27    1
    19     9    12    1
    20    12    13    1
    21    13    14    1
    22    14    15    1
    23    15    16    1
    24    16    17    1
    25    17    18    1
    26     6     1   ar
    27    18    13    1
    28    12     5    1
    29    22    23    1
    30    27    28    1
@<TRIPOS>MOLECULE
*****
 28 30 0 0 0
SMALL
GASTEIGER

@<TRIPOS>ATOM
      1 C           3.3613    1.4668   35.7054 C.ar    1  UNL1        0.1345
      2 C           4.1932    0.9452   36.8394 C.ar    1  UNL1        0.0366
      3 C           5.2744   -0.0605   36.5758 C.ar    1  UNL1        0.0028
      4 C           5.5238   -0.5447   35.1782 C.ar    1  UNL1       -0.0028
      5 C           4.6920   -0.0232   34.0442 C.ar    1  UNL1       -0.0053
      6 C           3.6107    0.9825   34.3078 C.ar    1  UNL1        0.0111
      7 C           2.7789    1.5041   33.1737 C.3     1  UNL1        0.0507
      8 C           3.0283    1.0199   31.7761 C.3     1  UNL1        0.0985
      9 N           4.1096    0.0141   31.5125 N.am    1  UNL1       -0.2760
     10 C           4.3590   -0.4701   30.1148 C.2     1  UNL1        0.2420
     11 O           5.4402   -1.4758   29.8513 O.2     1  UNL1       -0.2734
     12 C           4.9414   -0.5074   32.6465 C.3     1  UNL1        0.0976
     13 C           6.0226   -1.5131   32.3830 C.3     1  UNL1        0.0224
     14 C           5.6977   -2.9774   32.3689 C.3     1  UNL1        0.0020
     15 C           6.7789   -3.9831   32.1054 C.3     1  UNL1        0.0001
     16 C           8.1851   -3.5245   31.8558 C.3     1  UNL1        0.0000
     17 C           8.5101   -2.0601   31.8699 C.3     1  UNL1        0.0001
     18 C           7.4289   -1.0544   32.1334 C.3     1  UNL1        0.0020
     19 C           2.5680    3.9377   35.8272 C.3     1  UNL1        0.2525
     20 O           2.2801    2.4725   35.9689 O.3     1  UNL1       -0.4718
     21 C           3.5271    0.0514   28.9808 C.3     1  UNL1        0.1552
     22 N           2.2089   -0.5890   28.6613 N.3     1  UNL1       -0.2878
     23 H           1.9326   -1.1215   29.4862 H       1  UNL1        0.1238
     24 C           1.0337    0.2626   28.2820 C.3     1  UNL1        0.0985
     25 C          -0.1828    0.2955   29.1589 C.3     1  UNL1        0.1263
     26 C          -1.3883   -0.5218   28.8000 C.3     1  UNL1        0.0332
     27 O          -0.1938    1.1457   30.3946 O.3     1  UNL1       -0.3830
     28 H           0.6564    1.6050   30.4786 H       1  UNL1        0.2104
@<TRIPOS>BOND
     1    19    20    1
     2    20     1    1
     3     1     2   ar
     4     2     3   ar
     5     3     4   ar
     6     4     5   ar
     7     5     6   ar
     8     6     7    1
     9     7     8    1
    10     8     9    1
    11     9    10   am
    12    10    11    2
    13    10    21    1
    14    21    22    1
    15    22    24    1
    16    24    25    1
    17    25    26    1
    18    25    27    1
    19     9    12    1
    20    12    13    1
    21    13    14    1
    22    14    15    1
    23    15    16    1
    24    16    17    1
    25    17    18    1
    26     6     1   ar
    27    18    13    1
    28    12     5    1
    29    22    23    1
    30    27    28    1
@<TRIPOS>MOLECULE
*****
 28 30 0 0 0
SMALL
GASTEIGER

@<TRIPOS>ATOM
      1 C           7.2392   -5.3178   28.7910 C.ar    1  UNL1        0.1345
      2 C           7.6150   -6.2051   29.9405 C.ar    1  UNL1        0.0366
      3 C           7.4285   -5.7263   31.3497 C.ar    1  UNL1        0.0028
      4 C           6.8661   -4.3603   31.6095 C.ar    1  UNL1       -0.0028
      5 C           6.4903   -3.4729   30.4600 C.ar    1  UNL1       -0.0053
      6 C           6.6769   -3.9517   29.0507 C.ar    1  UNL1        0.0111
      7 C           6.3010   -3.0643   27.9012 C.3     1  UNL1        0.0507
      8 C           5.7387   -1.6982   28.1610 C.3     1  UNL1        0.0985
      9 N           5.5521   -1.2194   29.5702 N.am    1  UNL1       -0.2760
     10 C           4.9897    0.1467   29.8299 C.2     1  UNL1        0.2420
     11 O           4.8031    0.6255   31.2392 O.2     1  UNL1       -0.2734
     12 C           5.9279   -2.1068   30.7197 C.3     1  UNL1        0.0976
     13 C           5.7413   -1.6280   32.1289 C.3     1  UNL1        0.0224
     14 C           6.8422   -0.8776   32.8181 C.3     1  UNL1        0.0020
     15 C           6.6556   -0.3989   34.2273 C.3     1  UNL1        0.0001
     16 C           5.3682   -0.6705   34.9475 C.3     1  UNL1        0.0000
     17 C           4.2672   -1.4210   34.2583 C.3     1  UNL1        0.0001
     18 C           4.4538   -1.8997   32.8491 C.3     1  UNL1        0.0020
     19 C           8.8052   -6.0651   26.8573 C.3     1  UNL1        0.2525
     20 O           7.4258   -5.7965   27.3817 O.3     1  UNL1       -0.4718
     21 C           4.6139    1.0340   28.6804 C.3     1  UNL1        0.1552
     22 N           3.2667    0.8957   28.0354 N.3     1  UNL1       -0.2878
     23 H           3.2010   -0.0631   27.6937 H       1  UNL1        0.1238
     24 C           2.0232    1.1576   28.8323 C.3     1  UNL1        0.0985
     25 C           1.2089    0.0095   29.3507 C.3     1  UNL1        0.1263
     26 C          -0.1778   -0.2228   28.8281 C.3     1  UNL1        0.0332
     27 O           1.7812   -0.9063   30.3917 O.3     1  UNL1       -0.3830
     28 H           2.6794   -0.6178   30.6176 H       1  UNL1        0.2104
@<TRIPOS>BOND
     1    19    20    1
     2    20     1    1
     3     1     2   ar
     4     2     3   ar
     5     3     4   ar
     6     4     5   ar
     7     5     6   ar
     8     6     7    1
     9     7     8    1
    10     8     9    1
    11     9    10   am
    12    10    11    2
    13    10    21    1
    14    21    22    1
    15    22    24    1
    16    24    25    1
    17    25    26    1
    18    25    27    1
    19     9    12    1
    20    12    13    1
    21    13    14    1
    22    14    15    1
    23    15    16    1
    24    16    17    1
    25    17    18    1
    26     6     1   ar
    27    18    13    1
    28    12     5    1
    29    22    23    1
    30    27    28    1
@<TRIPOS>MOLECULE
*****
 28 30 0 0 0
SMALL
GASTEIGER

@<TRIPOS>ATOM
      1 C           1.9450    0.6197   26.4675 C.ar    1  UNL1        0.1345
      2 C           0.8158    1.5978   26.3326 C.ar    1  UNL1        0.0366
      3 C           0.3773    2.0541   24.9727 C.ar    1  UNL1        0.0028
      4 C           1.0680    1.5324   23.7477 C.ar    1  UNL1       -0.0028
      5 C           2.1972    0.5544   23.8826 C.ar    1  UNL1       -0.0053
      6 C           2.6357    0.0980   25.2425 C.ar    1  UNL1        0.0111
      7 C           3.7650   -0.8801   25.3774 C.3     1  UNL1        0.0507
      8 C           4.4556   -1.4018   24.1523 C.3     1  UNL1        0.0985
      9 N           4.0171   -0.9455   22.7924 N.am    1  UNL1       -0.2760
     10 C           4.7078   -1.4672   21.5673 C.2     1  UNL1        0.2420
     11 O           4.2693   -1.0109   20.2074 O.2     1  UNL1       -0.2734
     12 C           2.8879    0.0326   22.6575 C.3     1  UNL1        0.0976
     13 C           2.4493    0.4889   21.2975 C.3     1  UNL1        0.0224
     14 C           1.3884   -0.2705   20.5576 C.3     1  UNL1        0.0020
     15 C           0.9499    0.1858   19.1976 C.3     1  UNL1        0.0001
     16 C           1.5723    1.4016   18.5777 C.3     1  UNL1        0.0000
     17 C           2.6333    2.1612   19.3176 C.3     1  UNL1        0.0001
     18 C           3.0718    1.7048   20.6776 C.3     1  UNL1        0.0020
     19 C           1.3622   -0.2474   28.8462 C.3     1  UNL1        0.2525
     20 O           2.3836    0.1634   27.8275 O.3     1  UNL1       -0.4718
     21 C           5.8370   -2.4453   21.7022 C.3     1  UNL1        0.1552
     22 N           5.6436   -3.8752   21.2925 N.3     1  UNL1       -0.2878
     23 H           4.7097   -4.1460   21.6005 H       1  UNL1        0.1238
     24 C           5.7523   -4.2627   19.8475 C.3     1  UNL1        0.0985
     25 C           4.6494   -3.9140   18.8925 C.3     1  UNL1        0.1263
     26 C           3.2812   -4.4991   19.0809 C.3     1  UNL1        0.0332
     27 O           4.9148   -2.9801   17.7490 O.3     1  UNL1       -0.3830
     28 H           5.8418   -2.6956   17.7724 H       1  UNL1        0.2104
@<TRIPOS>BOND
     1    19    20    1
     2    20     1    1
     3     1     2   ar
     4     2     3   ar
     5     3     4   ar
     6     4     5   ar
     7     5     6   ar
     8     6     7    1
     9     7     8    1
    10     8     9    1
    11     9    10   am
    12    10    11    2
    13    10    21    1
    14    21    22    1
    15    22    24    1
    16    24    25    1
    17    25    26    1
    18    25    27    1
    19     9    12    1
    20    12    13    1
    21    13    14    1
    22    14    15    1
    23    15    16    1
    24    16    17    1
    25    17    18    1
    26     6     1   ar
    27    18    13    1
    28    12     5    1
    29    22    23    1
    30    27    28    1
@<TRIPOS>MOLECULE
*****
 28 30 0 0 0
SMALL
GASTEIGER

@<TRIPOS>ATOM
      1 C           0.6988    1.2129   28.8705 C.ar    1  UNL1        0.1345
      2 C           1.2498    0.3193   27.7992 C.ar    1  UNL1        0.0366
      3 C           2.4572   -0.5266   28.0758 C.ar    1  UNL1        0.0028
      4 C           3.1136   -0.4790   29.4237 C.ar    1  UNL1       -0.0028
      5 C           2.5625    0.4147   30.4950 C.ar    1  UNL1       -0.0053
      6 C           1.3551    1.2606   30.2184 C.ar    1  UNL1        0.0111
      7 C           0.8041    2.1543   31.2898 C.3     1  UNL1        0.0507
      8 C           1.4605    2.2020   32.6377 C.3     1  UNL1        0.0985
      9 N           2.6679    1.3560   32.9142 N.am    1  UNL1       -0.2760
     10 C           3.3243    1.4037   34.2622 C.2     1  UNL1        0.2420
     11 O           4.5317    0.5578   34.5388 O.2     1  UNL1       -0.2734
     12 C           3.2189    0.4624   31.8430 C.3     1  UNL1        0.0976
     13 C           4.4263   -0.3836   32.1196 C.3     1  UNL1        0.0224
     14 C           5.8005    0.1763   31.9005 C.3     1  UNL1        0.0020
     15 C           7.0080   -0.6696   32.1771 C.3     1  UNL1        0.0001
     16 C           6.8412   -2.0755   32.6727 C.3     1  UNL1        0.0000
     17 C           5.4669   -2.6354   32.8918 C.3     1  UNL1        0.0001
     18 C           4.2595   -1.7895   32.6152 C.3     1  UNL1        0.0020
     19 C          -0.8031    2.5108   27.1943 C.3     1  UNL1        0.2525
     20 O          -0.5087    2.0589   28.5939 O.3     1  UNL1       -0.4718
     21 C           2.7732    2.2974   35.3335 C.3     1  UNL1        0.1552
     22 N           3.2852    2.1869   36.7391 N.3     1  UNL1       -0.2878
     23 H           3.9834    2.9211   36.8567 H       1  UNL1        0.1238
     24 C           2.3357    2.3032   37.8945 C.3     1  UNL1        0.0985
     25 C           2.2019    1.1734   38.8720 C.3     1  UNL1        0.1263
     26 C           0.8467    0.6170   39.1941 C.3     1  UNL1        0.0332
     27 O           3.4232    0.5999   39.5272 O.3     1  UNL1       -0.3830
     28 H           4.2107    1.0699   39.2110 H       1  UNL1        0.2104
@<TRIPOS>BOND
     1    19    20    1
     2    20     1    1
     3     1     2   ar
     4     2     3   ar
     5     3     4   ar
     6     4     5   ar
     7     5     6   ar
     8     6     7    1
     9     7     8    1
    10     8     9    1
    11     9    10   am
    12    10    11    2
    13    10    21    1
    14    21    22    1
    15    22    24    1
    16    24    25    1
    17    25    26    1
    18    25    27    1
    19     9    12    1
    20    12    13    1
    21    13    14    1
    22    14    15    1
    23    15    16    1
    24    16    17    1
    25    17    18    1
    26     6     1   ar
    27    18    13    1
    28    12     5    1
    29    22    23    1
    30    27    28    1
