@<TRIPOS>MOLECULE
*****
 37 41 0 0 0
SMALL
GASTEIGER

@<TRIPOS>ATOM
      1 C           5.8861    1.6125   17.3905 C.ar    1  UNL1        0.0899
      2 C           6.4367    0.2864   16.9567 C.ar    1  UNL1        0.1063
      3 N           5.6619   -0.9703   17.2218 N.ar    1  UNL1       -0.2291
      4 C           4.3364   -0.9009   17.9207 C.ar    1  UNL1        0.1301
      5 C           3.7858    0.4253   18.3544 C.ar    1  UNL1        0.0503
      6 C           4.5607    1.6820   18.0893 C.ar    1  UNL1        0.0895
      7 N           3.7699    2.8366   18.6292 N.2     1  UNL1       -0.2490
      8 C           2.5064    2.2936   19.2280 C.2     1  UNL1        0.0634
      9 C           1.3482    2.9635   19.9060 C.3     1  UNL1        0.0721
     10 C           0.1998    2.1432   20.4141 C.2     1  UNL1       -0.0132
     11 C           0.2096    0.6529   20.2442 C.2     1  UNL1       -0.0037
     12 C           1.3678   -0.0171   19.5662 C.2     1  UNL1        0.0010
     13 C           2.5162    0.8032   19.0581 C.2     1  UNL1        0.0180
     14 C          -0.9584    2.8132   21.0921 C.ar    1  UNL1        0.0349
     15 C          -0.8695    3.1760   22.5448 C.ar    1  UNL1        0.1030
     16 N          -2.0277    3.8459   23.2229 N.ar    1  UNL1       -0.2125
     17 C          -3.2749    4.1531   22.4481 C.ar    1  UNL1        0.2137
     18 N          -4.4331    4.8231   23.1261 N.pl3   1  UNL1       -0.3274
     19 N          -3.3638    3.7903   20.9954 N.ar    1  UNL1       -0.2125
     20 C          -2.2056    3.1204   20.3174 C.ar    1  UNL1        0.1030
     21 H          -4.3747    5.0612   24.0796 H       1  UNL1        0.1452
     22 H          -5.2516    5.0247   22.6177 H       1  UNL1        0.1452
     23 N           5.9400    4.1297   16.7498 N.am    1  UNL1       -0.3252
     24 C           6.6610    2.8692   17.1254 C.2     1  UNL1        0.2457
     25 O           8.1570    2.8654   17.2359 O.2     1  UNL1       -0.2703
     26 H           6.4486    4.9545   16.5758 H       1  UNL1        0.1453
     27 H           4.9582    4.1323   16.6772 H       1  UNL1        0.1453
     28 N           3.5615   -2.1577   18.1857 N.pl3   1  UNL1       -0.3127
     29 H           2.7759   -2.3771   17.6345 H       1  UNL1        0.1484
     30 C           3.9838   -3.0801   19.2907 C.3     1  UNL1        0.1663
     31 C           4.3957   -4.4877   18.9764 C.3     1  UNL1        0.4135
     32 F           4.8076   -5.8954   18.6622 F       1  UNL1       -0.1682
     33 F           5.8262   -4.0472   18.8786 F       1  UNL1       -0.1682
     34 F           2.9651   -4.9281   19.0743 F       1  UNL1       -0.1682
     35 C           3.9941   -2.5947   20.7099 C.3     1  UNL1        0.0264
     36 C           3.6473   -1.5488   21.7277 C.3     1  UNL1        0.0020
     37 C           4.3588   -2.7998   22.1504 C.3     1  UNL1        0.0020
@<TRIPOS>BOND
     1    23    24   am
     2    24    25    2
     3    24     1    1
     4     1     2   ar
     5     2     3   ar
     6     3     4   ar
     7     4    28    1
     8    30    28    1
     9    30    35    1
    10    35    36    1
    11    36    37    1
    12    30    31    1
    13    31    32    1
    14    31    33    1
    15    31    34    1
    16     4     5   ar
    17     5     6   ar
    18     6     7    1
    19     7     8    2
    20     8     9    1
    21     9    10    1
    22    10    14    1
    23    14    15   ar
    24    15    16   ar
    25    16    17   ar
    26    17    18    1
    27    17    19   ar
    28    19    20   ar
    29    10    11    2
    30    11    12    1
    31    12    13    2
    32     6     1   ar
    33    13     8    1
    34    37    35    1
    35    13     5    1
    36    20    14   ar
    37    23    26    1
    38    23    27    1
    39    28    29    1
    40    18    21    1
    41    18    22    1
@<TRIPOS>MOLECULE
*****
 37 41 0 0 0
SMALL
GASTEIGER

@<TRIPOS>ATOM
      1 C           6.5469   -3.8486   23.7871 C.ar    1  UNL1        0.0899
      2 C           7.3794   -4.2623   22.6100 C.ar    1  UNL1        0.1063
      3 N           7.1479   -3.6316   21.2689 N.ar    1  UNL1       -0.2291
      4 C           6.0838   -2.5872   21.1049 C.ar    1  UNL1        0.1301
      5 C           5.2513   -2.1734   22.2821 C.ar    1  UNL1        0.0503
      6 C           5.4829   -2.8041   23.6232 C.ar    1  UNL1        0.0895
      7 N           4.5130   -2.1983   24.5939 N.2     1  UNL1       -0.2490
      8 C           3.6820   -1.1932   23.8528 C.2     1  UNL1        0.0634
      9 C           2.5689   -0.2900   24.2944 C.3     1  UNL1        0.0721
     10 C           1.9120    0.6286   23.3072 C.2     1  UNL1       -0.0132
     11 C           2.3683    0.6440   21.8783 C.2     1  UNL1       -0.0037
     12 C           3.4815   -0.2592   21.4367 C.2     1  UNL1        0.0010
     13 C           4.1383   -1.1778   22.4240 C.2     1  UNL1        0.0180
     14 C           0.7988    1.5319   23.7487 C.ar    1  UNL1        0.0349
     15 C           0.2095    1.3808   25.1199 C.ar    1  UNL1        0.1030
     16 N          -0.9036    2.2840   25.5615 N.ar    1  UNL1       -0.2125
     17 C          -1.4276    3.3383   24.6319 C.ar    1  UNL1        0.2137
     18 N          -2.5408    4.2415   25.0735 N.pl3   1  UNL1       -0.3274
     19 N          -0.8384    3.4893   23.2608 N.ar    1  UNL1       -0.2125
     20 C           0.2748    2.5861   22.8192 C.ar    1  UNL1        0.1030
     21 H          -2.9275    4.1424   25.9734 H       1  UNL1        0.1452
     22 H          -2.8847    4.9334   24.4634 H       1  UNL1        0.1452
     23 N           6.3306   -3.7761   26.3751 N.am    1  UNL1       -0.3252
     24 C           6.7785   -4.4793   25.1282 C.2     1  UNL1        0.2457
     25 O           7.4581   -5.8133   25.2224 O.2     1  UNL1       -0.2703
     26 H           6.4826   -4.1901   27.2553 H       1  UNL1        0.1453
     27 H           5.8846   -2.9006   26.3133 H       1  UNL1        0.1453
     28 N           5.8523   -1.9564   19.7637 N.pl3   1  UNL1       -0.3127
     29 H           6.4951   -1.2994   19.4112 H       1  UNL1        0.1484
     30 C           4.6413   -2.3270   18.9598 C.3     1  UNL1        0.1663
     31 C           4.0333   -3.6905   19.1044 C.3     1  UNL1        0.4135
     32 F           3.4253   -5.0541   19.2492 F       1  UNL1       -0.1682
     33 F           5.1625   -4.2782   18.3109 F       1  UNL1       -0.1682
     34 F           2.9042   -3.1028   19.8980 F       1  UNL1       -0.1682
     35 C           4.0384   -1.3338   18.0111 C.3     1  UNL1        0.0264
     36 C           3.8934   -0.7868   16.6219 C.3     1  UNL1        0.0020
     37 C           3.1390   -0.1605   17.7570 C.3     1  UNL1        0.0020
@<TRIPOS>BOND
     1    23    24   am
     2    24    25    2
     3    24     1    1
     4     1     2   ar
     5     2     3   ar
     6     3     4   ar
     7     4    28    1
     8    30    28    1
     9    30    35    1
    10    35    36    1
    11    36    37    1
    12    30    31    1
    13    31    32    1
    14    31    33    1
    15    31    34    1
    16     4     5   ar
    17     5     6   ar
    18     6     7    1
    19     7     8    2
    20     8     9    1
    21     9    10    1
    22    10    14    1
    23    14    15   ar
    24    15    16   ar
    25    16    17   ar
    26    17    18    1
    27    17    19   ar
    28    19    20   ar
    29    10    11    2
    30    11    12    1
    31    12    13    2
    32     6     1   ar
    33    13     8    1
    34    37    35    1
    35    13     5    1
    36    20    14   ar
    37    23    26    1
    38    23    27    1
    39    28    29    1
    40    18    21    1
    41    18    22    1
@<TRIPOS>MOLECULE
*****
 37 41 0 0 0
SMALL
GASTEIGER

@<TRIPOS>ATOM
      1 C         -11.7479   -6.3983   18.4189 C.ar    1  UNL1        0.0899
      2 C         -11.9415   -7.6634   17.6366 C.ar    1  UNL1        0.1063
      3 N         -13.2969   -8.0109   17.0960 N.ar    1  UNL1       -0.2291
      4 C         -14.4586   -7.0933   17.3377 C.ar    1  UNL1        0.1301
      5 C         -14.2650   -5.8282   18.1200 C.ar    1  UNL1        0.0503
      6 C         -12.9097   -5.4807   18.6606 C.ar    1  UNL1        0.0895
      7 N         -13.0225   -4.1748   19.3899 N.2     1  UNL1       -0.2490
      8 C         -14.4475   -3.7152   19.3000 C.2     1  UNL1        0.0634
      9 C         -15.1450   -2.4983   19.8315 C.3     1  UNL1        0.0721
     10 C         -16.6105   -2.3032   19.5781 C.2     1  UNL1       -0.0132
     11 C         -17.3785   -3.3251   18.7933 C.2     1  UNL1       -0.0037
     12 C         -16.6809   -4.5420   18.2618 C.2     1  UNL1        0.0010
     13 C         -15.2155   -4.7371   18.5152 C.2     1  UNL1        0.0180
     14 C         -17.3081   -1.0862   20.1096 C.ar    1  UNL1        0.0349
     15 C         -16.5300    0.1686   20.3742 C.ar    1  UNL1        0.1030
     16 N         -17.2276    1.3855   20.9056 N.ar    1  UNL1       -0.2125
     17 C         -18.7032    1.3477   21.1724 C.ar    1  UNL1        0.2137
     18 N         -19.4007    2.5646   21.7039 N.pl3   1  UNL1       -0.3274
     19 N         -19.4813    0.0929   20.9078 N.ar    1  UNL1       -0.2125
     20 C         -18.7837   -1.1241   20.3763 C.ar    1  UNL1        0.1030
     21 H         -18.8901    3.3882   21.8776 H       1  UNL1        0.1452
     22 H         -20.3692    2.5398   21.8790 H       1  UNL1        0.1452
     23 N         -10.0387   -4.6191   19.2329 N.am    1  UNL1       -0.3252
     24 C         -10.3926   -6.0508   18.9594 C.2     1  UNL1        0.2457
     25 O          -9.3910   -7.1351   19.2265 O.2     1  UNL1       -0.2703
     26 H          -9.1491   -4.3910   19.5877 H       1  UNL1        0.1453
     27 H         -10.6960   -3.9074   19.0576 H       1  UNL1        0.1453
     28 N         -15.8141   -7.4409   16.7971 N.pl3   1  UNL1       -0.3127
     29 H         -16.0941   -7.1027   15.9160 H       1  UNL1        0.1484
     30 C         -16.7426   -8.3038   17.5991 C.3     1  UNL1        0.1663
     31 C         -16.3793   -8.6963   19.0004 C.3     1  UNL1        0.4135
     32 F         -16.0159   -9.0888   20.4018 F       1  UNL1       -0.1682
     33 F         -17.0742   -7.4740   19.5230 F       1  UNL1       -0.1682
     34 F         -15.6844   -9.9186   18.4778 F       1  UNL1       -0.1682
     35 C         -18.0347   -8.7742   16.9996 C.3     1  UNL1        0.0264
     36 C         -19.1824   -8.5630   16.0571 C.3     1  UNL1        0.0020
     37 C         -19.1248   -9.8000   16.9036 C.3     1  UNL1        0.0020
@<TRIPOS>BOND
     1    23    24   am
     2    24    25    2
     3    24     1    1
     4     1     2   ar
     5     2     3   ar
     6     3     4   ar
     7     4    28    1
     8    30    28    1
     9    30    35    1
    10    35    36    1
    11    36    37    1
    12    30    31    1
    13    31    32    1
    14    31    33    1
    15    31    34    1
    16     4     5   ar
    17     5     6   ar
    18     6     7    1
    19     7     8    2
    20     8     9    1
    21     9    10    1
    22    10    14    1
    23    14    15   ar
    24    15    16   ar
    25    16    17   ar
    26    17    18    1
    27    17    19   ar
    28    19    20   ar
    29    10    11    2
    30    11    12    1
    31    12    13    2
    32     6     1   ar
    33    13     8    1
    34    37    35    1
    35    13     5    1
    36    20    14   ar
    37    23    26    1
    38    23    27    1
    39    28    29    1
    40    18    21    1
    41    18    22    1
@<TRIPOS>MOLECULE
*****
 37 41 0 0 0
SMALL
GASTEIGER

@<TRIPOS>ATOM
      1 C         -11.6315   -6.5518   18.6437 C.ar    1  UNL1        0.0899
      2 C         -12.1892   -7.8641   18.1782 C.ar    1  UNL1        0.1063
      3 N         -13.6458   -7.9825   17.8402 N.ar    1  UNL1       -0.2291
      4 C         -14.5448   -6.7885   17.9677 C.ar    1  UNL1        0.1301
      5 C         -13.9871   -5.4761   18.4332 C.ar    1  UNL1        0.0503
      6 C         -12.5305   -5.3578   18.7712 C.ar    1  UNL1        0.0895
      7 N         -12.2678   -3.9450   19.2013 N.2     1  UNL1       -0.2490
      8 C         -13.5620   -3.1902   19.1290 C.2     1  UNL1        0.0634
      9 C         -13.9102   -1.7634   19.4342 C.3     1  UNL1        0.0721
     10 C         -15.3211   -1.2830   19.2647 C.2     1  UNL1       -0.0132
     11 C         -16.3837   -2.2294   18.7900 C.2     1  UNL1       -0.0037
     12 C         -16.0355   -3.6561   18.4848 C.2     1  UNL1        0.0010
     13 C         -14.6247   -4.1365   18.6543 C.2     1  UNL1        0.0180
     14 C         -15.6693    0.1438   19.5698 C.ar    1  UNL1        0.0349
     15 C         -16.8317    0.4571   20.4646 C.ar    1  UNL1        0.1030
     16 N         -17.1800    1.8838   20.7698 N.ar    1  UNL1       -0.2125
     17 C         -16.3659    2.9973   20.1802 C.ar    1  UNL1        0.2137
     18 N         -16.7141    4.4239   20.4854 N.pl3   1  UNL1       -0.3274
     19 N         -15.2034    2.6839   19.2854 N.ar    1  UNL1       -0.2125
     20 C         -14.8552    1.2571   18.9803 C.ar    1  UNL1        0.1030
     21 H         -17.4771    4.6296   21.0726 H       1  UNL1        0.1452
     22 H         -16.1798    5.1547   20.0984 H       1  UNL1        0.1452
     23 N          -9.5964   -5.0995   19.3500 N.am    1  UNL1       -0.3252
     24 C         -10.1749   -6.4335   18.9817 C.2     1  UNL1        0.2457
     25 O          -9.2967   -7.6492   18.9514 O.2     1  UNL1       -0.2703
     26 H          -8.6404   -5.0218   19.5718 H       1  UNL1        0.1453
     27 H         -10.1728   -4.3016   19.3699 H       1  UNL1        0.1453
     28 N         -16.0014   -6.9069   17.6296 N.pl3   1  UNL1       -0.3127
     29 H         -16.3530   -6.4855   16.8123 H       1  UNL1        0.1484
     30 C         -16.9225   -7.6674   18.5370 C.3     1  UNL1        0.1663
     31 C         -16.6888   -9.1271   18.7907 C.3     1  UNL1        0.4135
     32 F         -16.4552  -10.5869   19.0444 F       1  UNL1       -0.1682
     33 F         -17.2989   -9.4560   17.4604 F       1  UNL1       -0.1682
     34 F         -16.0788   -8.7983   20.1210 F       1  UNL1       -0.1682
     35 C         -18.0772   -6.9680   19.1908 C.3     1  UNL1        0.0264
     36 C         -18.8890   -5.7255   19.4082 C.3     1  UNL1        0.0020
     37 C         -19.2656   -6.9990   20.1056 C.3     1  UNL1        0.0020
@<TRIPOS>BOND
     1    23    24   am
     2    24    25    2
     3    24     1    1
     4     1     2   ar
     5     2     3   ar
     6     3     4   ar
     7     4    28    1
     8    30    28    1
     9    30    35    1
    10    35    36    1
    11    36    37    1
    12    30    31    1
    13    31    32    1
    14    31    33    1
    15    31    34    1
    16     4     5   ar
    17     5     6   ar
    18     6     7    1
    19     7     8    2
    20     8     9    1
    21     9    10    1
    22    10    14    1
    23    14    15   ar
    24    15    16   ar
    25    16    17   ar
    26    17    18    1
    27    17    19   ar
    28    19    20   ar
    29    10    11    2
    30    11    12    1
    31    12    13    2
    32     6     1   ar
    33    13     8    1
    34    37    35    1
    35    13     5    1
    36    20    14   ar
    37    23    26    1
    38    23    27    1
    39    28    29    1
    40    18    21    1
    41    18    22    1
@<TRIPOS>MOLECULE
*****
 37 41 0 0 0
SMALL
GASTEIGER

@<TRIPOS>ATOM
      1 C           0.9711    1.1373   20.2553 C.ar    1  UNL1        0.0899
      2 C           1.6480    0.3765   19.1540 C.ar    1  UNL1        0.1063
      3 N           2.7235   -0.6171   19.4799 N.ar    1  UNL1       -0.2291
      4 C           3.1221   -0.8498   20.9071 C.ar    1  UNL1        0.1301
      5 C           2.4452   -0.0890   22.0084 C.ar    1  UNL1        0.0503
      6 C           1.3697    0.9045   21.6825 C.ar    1  UNL1        0.0895
      7 N           0.8846    1.5015   22.9702 N.2     1  UNL1       -0.2490
      8 C           1.6602    0.8769   24.0920 C.2     1  UNL1        0.0634
      9 C           1.6127    1.0763   25.5779 C.3     1  UNL1        0.0721
     10 C           2.5298    0.2927   26.4694 C.2     1  UNL1       -0.0132
     11 C           3.4944   -0.6904   25.8749 C.2     1  UNL1       -0.0037
     12 C           3.5418   -0.8897   24.3890 C.2     1  UNL1        0.0010
     13 C           2.6247   -0.1061   23.4976 C.2     1  UNL1        0.0180
     14 C           2.4825    0.4920   27.9554 C.ar    1  UNL1        0.0349
     15 C           3.4807    1.3903   28.6238 C.ar    1  UNL1        0.1030
     16 N           3.4333    1.5896   30.1097 N.ar    1  UNL1       -0.2125
     17 C           2.3877    0.8908   30.9273 C.ar    1  UNL1        0.2137
     18 N           2.3404    1.0901   32.4132 N.pl3   1  UNL1       -0.3274
     19 N           1.3895   -0.0075   30.2589 N.ar    1  UNL1       -0.2125
     20 C           1.4369   -0.2068   28.7729 C.ar    1  UNL1        0.1030
     21 H           2.9956    1.6797   32.8518 H       1  UNL1        0.1452
     22 H           1.6542    0.6314   32.9498 H       1  UNL1        0.1452
     23 N          -1.2226    2.3709   20.8997 N.am    1  UNL1       -0.3252
     24 C          -0.1043    2.1308   19.9293 C.2     1  UNL1        0.2457
     25 O          -0.0614    2.8843   18.6330 O.2     1  UNL1       -0.2703
     26 H          -1.9285    3.0230   20.6857 H       1  UNL1        0.1453
     27 H          -1.2508    1.8764   21.7505 H       1  UNL1        0.1453
     28 N           4.1976   -1.8435   21.2330 N.pl3   1  UNL1       -0.3127
     29 H           4.6073   -1.8495   22.1282 H       1  UNL1        0.1484
     30 C           4.6487   -2.8278   20.1949 C.3     1  UNL1        0.1663
     31 C           3.9198   -4.1279   20.0272 C.3     1  UNL1        0.4135
     32 F           3.1909   -5.4282   19.8595 F       1  UNL1       -0.1682
     33 F           3.5650   -3.7475   18.6203 F       1  UNL1       -0.1682
     34 F           4.2747   -4.5084   21.4341 F       1  UNL1       -0.1682
     35 C           5.8288   -2.5118   19.3246 C.3     1  UNL1        0.0264
     36 C           7.2471   -2.0459   19.1780 C.3     1  UNL1        0.0020
     37 C           6.4546   -2.4305   17.9638 C.3     1  UNL1        0.0020
@<TRIPOS>BOND
     1    23    24   am
     2    24    25    2
     3    24     1    1
     4     1     2   ar
     5     2     3   ar
     6     3     4   ar
     7     4    28    1
     8    30    28    1
     9    30    35    1
    10    35    36    1
    11    36    37    1
    12    30    31    1
    13    31    32    1
    14    31    33    1
    15    31    34    1
    16     4     5   ar
    17     5     6   ar
    18     6     7    1
    19     7     8    2
    20     8     9    1
    21     9    10    1
    22    10    14    1
    23    14    15   ar
    24    15    16   ar
    25    16    17   ar
    26    17    18    1
    27    17    19   ar
    28    19    20   ar
    29    10    11    2
    30    11    12    1
    31    12    13    2
    32     6     1   ar
    33    13     8    1
    34    37    35    1
    35    13     5    1
    36    20    14   ar
    37    23    26    1
    38    23    27    1
    39    28    29    1
    40    18    21    1
    41    18    22    1
@<TRIPOS>MOLECULE
*****
 37 41 0 0 0
SMALL
GASTEIGER

@<TRIPOS>ATOM
      1 C          -3.1952    3.5576   21.9099 C.ar    1  UNL1        0.0899
      2 C          -2.5849    3.4551   20.5435 C.ar    1  UNL1        0.1063
      3 N          -1.1336    3.1067   20.3946 N.ar    1  UNL1       -0.2291
      4 C          -0.2925    2.8609   21.6120 C.ar    1  UNL1        0.1301
      5 C          -0.9027    2.9635   22.9784 C.ar    1  UNL1        0.0503
      6 C          -2.3541    3.3118   23.1274 C.ar    1  UNL1        0.0895
      7 N          -2.6758    3.3408   24.5922 N.2     1  UNL1       -0.2490
      8 C          -1.4232    3.0103   25.3485 C.2     1  UNL1        0.0634
      9 C          -1.1390    2.8917   26.8165 C.3     1  UNL1        0.0721
     10 C           0.2411    2.5398   27.2871 C.2     1  UNL1       -0.0132
     11 C           1.3369    2.3067   26.2898 C.2     1  UNL1       -0.0037
     12 C           1.0527    2.4253   24.8218 C.2     1  UNL1        0.0010
     13 C          -0.3274    2.7772   24.3511 C.2     1  UNL1        0.0180
     14 C           0.5254    2.4212   28.7552 C.ar    1  UNL1        0.0349
     15 C           0.5998    1.0678   29.3977 C.ar    1  UNL1        0.1030
     16 N           0.8841    0.9491   30.8657 N.ar    1  UNL1       -0.2125
     17 C           1.0940    2.1838   31.6913 C.ar    1  UNL1        0.2137
     18 N           1.3783    2.0650   33.1593 N.pl3   1  UNL1       -0.3274
     19 N           1.0195    3.5372   31.0488 N.ar    1  UNL1       -0.2125
     20 C           0.7352    3.6558   29.5807 C.ar    1  UNL1        0.1030
     21 H           1.4271    1.1768   33.5809 H       1  UNL1        0.1452
     22 H           1.5160    2.8754   33.7011 H       1  UNL1        0.1452
     23 N          -5.4806    3.2163   23.0975 N.am    1  UNL1       -0.3252
     24 C          -4.6466    3.9059   22.0589 C.2     1  UNL1        0.2457
     25 O          -5.2639    4.9439   21.1692 O.2     1  UNL1       -0.2703
     26 H          -6.4331    3.4449   23.1952 H       1  UNL1        0.1453
     27 H          -5.0754    2.5351   23.6814 H       1  UNL1        0.1453
     28 N           1.1590    2.5126   21.4630 N.pl3   1  UNL1       -0.3127
     29 H           1.8505    3.1665   21.7148 H       1  UNL1        0.1484
     30 C           1.5567    1.1679   20.9304 C.3     1  UNL1        0.1663
     31 C           1.2414    0.8002   19.5108 C.3     1  UNL1        0.4135
     32 F           0.9260    0.4326   18.0911 F       1  UNL1       -0.1682
     33 F           1.9612    2.0266   19.0333 F       1  UNL1       -0.1682
     34 F           0.5215   -0.4261   19.9883 F       1  UNL1       -0.1682
     35 C           2.2697    0.1909   21.8175 C.3     1  UNL1        0.0264
     36 C           2.6484   -0.2807   23.1902 C.3     1  UNL1        0.0020
     37 C           3.1259   -1.0297   21.9815 C.3     1  UNL1        0.0020
@<TRIPOS>BOND
     1    23    24   am
     2    24    25    2
     3    24     1    1
     4     1     2   ar
     5     2     3   ar
     6     3     4   ar
     7     4    28    1
     8    30    28    1
     9    30    35    1
    10    35    36    1
    11    36    37    1
    12    30    31    1
    13    31    32    1
    14    31    33    1
    15    31    34    1
    16     4     5   ar
    17     5     6   ar
    18     6     7    1
    19     7     8    2
    20     8     9    1
    21     9    10    1
    22    10    14    1
    23    14    15   ar
    24    15    16   ar
    25    16    17   ar
    26    17    18    1
    27    17    19   ar
    28    19    20   ar
    29    10    11    2
    30    11    12    1
    31    12    13    2
    32     6     1   ar
    33    13     8    1
    34    37    35    1
    35    13     5    1
    36    20    14   ar
    37    23    26    1
    38    23    27    1
    39    28    29    1
    40    18    21    1
    41    18    22    1
@<TRIPOS>MOLECULE
*****
 37 41 0 0 0
SMALL
GASTEIGER

@<TRIPOS>ATOM
      1 C           6.7552   -3.9739   24.0968 C.ar    1  UNL1        0.0899
      2 C           7.4085   -4.3890   22.8120 C.ar    1  UNL1        0.1063
      3 N           7.0466   -3.7000   21.5297 N.ar    1  UNL1       -0.2291
      4 C           6.0313   -2.5958   21.5323 C.ar    1  UNL1        0.1301
      5 C           5.3780   -2.1806   22.8171 C.ar    1  UNL1        0.0503
      6 C           5.7399   -2.8696   24.0993 C.ar    1  UNL1        0.0895
      7 N           4.9356   -2.2483   25.2025 N.2     1  UNL1       -0.2490
      8 C           4.0765   -1.1752   24.6020 C.2     1  UNL1        0.0634
      9 C           3.0806   -0.2308   25.2071 C.3     1  UNL1        0.0721
     10 C           2.3582    0.7554   24.3380 C.2     1  UNL1       -0.0132
     11 C           2.6316    0.7972   22.8638 C.2     1  UNL1       -0.0037
     12 C           3.6275   -0.1472   22.2586 C.2     1  UNL1        0.0010
     13 C           4.3499   -1.1334   23.1277 C.2     1  UNL1        0.0180
     14 C           1.3622    1.6999   24.9432 C.ar    1  UNL1        0.0349
     15 C           0.0247    1.1919   25.3937 C.ar    1  UNL1        0.1030
     16 N          -0.9713    2.1363   25.9988 N.ar    1  UNL1       -0.2125
     17 C          -0.6297    3.5887   26.1535 C.ar    1  UNL1        0.2137
     18 N          -1.6256    4.5331   26.7586 N.pl3   1  UNL1       -0.3274
     19 N           0.7079    4.0967   25.7030 N.ar    1  UNL1       -0.2125
     20 C           1.7038    3.1522   25.0978 C.ar    1  UNL1        0.1030
     21 H          -2.5035    4.1997   27.0543 H       1  UNL1        0.1452
     22 H          -1.4014    5.4863   26.8601 H       1  UNL1        0.1452
     23 N           6.1807   -4.6092   26.5495 N.am    1  UNL1       -0.3252
     24 C           7.1171   -4.6629   25.3790 C.2     1  UNL1        0.2457
     25 O           8.4156   -5.4057   25.4908 O.2     1  UNL1       -0.2703
     26 H           6.4183   -5.0615   27.3911 H       1  UNL1        0.1453
     27 H           5.3286   -4.1217   26.4762 H       1  UNL1        0.1453
     28 N           5.6694   -1.9067   20.2499 N.pl3   1  UNL1       -0.3127
     29 H           6.1993   -1.1380   19.9376 H       1  UNL1        0.1484
     30 C           4.5001   -2.3889   19.4435 C.3     1  UNL1        0.1663
     31 C           3.5888   -1.4004   18.7786 C.3     1  UNL1        0.4135
     32 F           2.6774   -0.4119   18.1137 F       1  UNL1       -0.1682
     33 F           4.7044   -0.9860   17.8656 F       1  UNL1       -0.1682
     34 F           2.4732   -1.8149   19.6917 F       1  UNL1       -0.1682
     35 C           4.2423   -3.8598   19.3021 C.3     1  UNL1        0.0264
     36 C           3.4498   -5.0806   19.6651 C.3     1  UNL1        0.0020
     37 C           4.5882   -5.1867   18.6941 C.3     1  UNL1        0.0020
@<TRIPOS>BOND
     1    23    24   am
     2    24    25    2
     3    24     1    1
     4     1     2   ar
     5     2     3   ar
     6     3     4   ar
     7     4    28    1
     8    30    28    1
     9    30    35    1
    10    35    36    1
    11    36    37    1
    12    30    31    1
    13    31    32    1
    14    31    33    1
    15    31    34    1
    16     4     5   ar
    17     5     6   ar
    18     6     7    1
    19     7     8    2
    20     8     9    1
    21     9    10    1
    22    10    14    1
    23    14    15   ar
    24    15    16   ar
    25    16    17   ar
    26    17    18    1
    27    17    19   ar
    28    19    20   ar
    29    10    11    2
    30    11    12    1
    31    12    13    2
    32     6     1   ar
    33    13     8    1
    34    37    35    1
    35    13     5    1
    36    20    14   ar
    37    23    26    1
    38    23    27    1
    39    28    29    1
    40    18    21    1
    41    18    22    1
@<TRIPOS>MOLECULE
*****
 37 41 0 0 0
SMALL
GASTEIGER

@<TRIPOS>ATOM
      1 C          -0.0393    2.1406   20.2877 C.ar    1  UNL1        0.0899
      2 C          -0.9793    2.8500   19.3588 C.ar    1  UNL1        0.1063
      3 N          -2.0606    3.7293   19.9135 N.ar    1  UNL1       -0.2291
      4 C          -2.2018    3.8992   21.3971 C.ar    1  UNL1        0.1301
      5 C          -1.2617    3.1898   22.3261 C.ar    1  UNL1        0.0503
      6 C          -0.1805    2.3105   21.7714 C.ar    1  UNL1        0.0895
      7 N           0.5923    1.7425   22.9247 N.2     1  UNL1       -0.2490
      8 C          -0.0113    2.2708   24.1922 C.2     1  UNL1        0.0634
      9 C           0.3344    2.0529   25.6355 C.3     1  UNL1        0.0721
     10 C          -0.4658    2.7295   26.7087 C.2     1  UNL1       -0.0132
     11 C          -1.6117    3.6240   26.3387 C.2     1  UNL1       -0.0037
     12 C          -1.9574    3.8419   24.8955 C.2     1  UNL1        0.0010
     13 C          -1.1572    3.1653   23.8222 C.2     1  UNL1        0.0180
     14 C          -0.1201    2.5117   28.1520 C.ar    1  UNL1        0.0349
     15 C           0.4803    3.6266   28.9560 C.ar    1  UNL1        0.1030
     16 N           0.8260    3.4088   30.3992 N.ar    1  UNL1       -0.2125
     17 C           0.5712    2.0760   31.0386 C.ar    1  UNL1        0.2137
     18 N           0.9169    1.8582   32.4819 N.pl3   1  UNL1       -0.3274
     19 N          -0.0292    0.9610   30.2347 N.ar    1  UNL1       -0.2125
     20 C          -0.3749    1.1789   28.7913 C.ar    1  UNL1        0.1030
     21 H           1.3110    2.5900   33.0095 H       1  UNL1        0.1452
     22 H           0.7497    0.9834   32.9015 H       1  UNL1        0.1452
     23 N           2.2963    1.0270   20.5214 N.am    1  UNL1       -0.3252
     24 C           1.0420    1.2613   19.7330 C.2     1  UNL1        0.2457
     25 O           0.8688    0.6162   18.3898 O.2     1  UNL1       -0.2703
     26 H           3.0060    0.4499   20.1573 H       1  UNL1        0.1453
     27 H           2.4100    1.4504   21.4029 H       1  UNL1        0.1453
     28 N          -3.2831    4.7786   21.9518 N.pl3   1  UNL1       -0.3127
     29 H          -3.0720    5.6958   22.2405 H       1  UNL1        0.1484
     30 C          -4.6860    4.2603   22.0666 C.3     1  UNL1        0.1663
     31 C          -5.2495    3.9129   23.4126 C.3     1  UNL1        0.4135
     32 F          -5.8130    3.5656   24.7587 F       1  UNL1       -0.1682
     33 F          -4.7347    2.5116   23.2665 F       1  UNL1       -0.1682
     34 F          -5.7644    5.3142   23.5587 F       1  UNL1       -0.1682
     35 C          -5.5255    4.0893   20.8353 C.3     1  UNL1        0.0264
     36 C          -6.6978    4.5010   19.9949 C.3     1  UNL1        0.0020
     37 C          -5.8071    3.3817   19.5431 C.3     1  UNL1        0.0020
@<TRIPOS>BOND
     1    23    24   am
     2    24    25    2
     3    24     1    1
     4     1     2   ar
     5     2     3   ar
     6     3     4   ar
     7     4    28    1
     8    30    28    1
     9    30    35    1
    10    35    36    1
    11    36    37    1
    12    30    31    1
    13    31    32    1
    14    31    33    1
    15    31    34    1
    16     4     5   ar
    17     5     6   ar
    18     6     7    1
    19     7     8    2
    20     8     9    1
    21     9    10    1
    22    10    14    1
    23    14    15   ar
    24    15    16   ar
    25    16    17   ar
    26    17    18    1
    27    17    19   ar
    28    19    20   ar
    29    10    11    2
    30    11    12    1
    31    12    13    2
    32     6     1   ar
    33    13     8    1
    34    37    35    1
    35    13     5    1
    36    20    14   ar
    37    23    26    1
    38    23    27    1
    39    28    29    1
    40    18    21    1
    41    18    22    1
@<TRIPOS>MOLECULE
*****
 37 41 0 0 0
SMALL
GASTEIGER

@<TRIPOS>ATOM
      1 C         -11.6290   -6.3623   18.1805 C.ar    1  UNL1        0.0899
      2 C         -12.5775   -7.5240   18.2100 C.ar    1  UNL1        0.1063
      3 N         -14.0553   -7.2884   18.1078 N.ar    1  UNL1       -0.2291
      4 C         -14.5847   -5.8911   17.9759 C.ar    1  UNL1        0.1301
      5 C         -13.6362   -4.7294   17.9464 C.ar    1  UNL1        0.0503
      6 C         -12.1584   -4.9650   18.0487 C.ar    1  UNL1        0.0895
      7 N         -11.4716   -3.6327   17.9916 N.2     1  UNL1       -0.2490
      8 C         -12.5250   -2.5737   17.8541 C.2     1  UNL1        0.0634
      9 C         -12.4388   -1.0798   17.7508 C.3     1  UNL1        0.0721
     10 C         -13.6904   -0.2637   17.6195 C.2     1  UNL1       -0.0132
     11 C         -15.0283   -0.9415   17.5915 C.2     1  UNL1       -0.0037
     12 C         -15.1145   -2.4354   17.6948 C.2     1  UNL1        0.0010
     13 C         -13.8628   -3.2515   17.8262 C.2     1  UNL1        0.0180
     14 C         -13.6043    1.2304   17.5161 C.ar    1  UNL1        0.0349
     15 C         -12.4320    1.8684   16.8316 C.ar    1  UNL1        0.1030
     16 N         -12.3458    3.3623   16.7282 N.ar    1  UNL1       -0.2125
     17 C         -13.4319    4.2183   17.3094 C.ar    1  UNL1        0.2137
     18 N         -13.3458    5.7122   17.2060 N.pl3   1  UNL1       -0.3274
     19 N         -14.6043    3.5802   17.9939 N.ar    1  UNL1       -0.2125
     20 C         -14.6904    2.0862   18.0972 C.ar    1  UNL1        0.1030
     21 H         -12.5763    6.1310   16.7567 H       1  UNL1        0.1452
     22 H         -14.0586    6.2740   17.5874 H       1  UNL1        0.1452
     23 N          -9.1899   -5.5333   17.8444 N.am    1  UNL1       -0.3252
     24 C         -10.1512   -6.5980   18.2827 C.2     1  UNL1        0.2457
     25 O          -9.6347   -7.8984   18.8234 O.2     1  UNL1       -0.2703
     26 H          -8.2199   -5.6879   17.9116 H       1  UNL1        0.1453
     27 H          -9.5289   -4.6798   17.4896 H       1  UNL1        0.1453
     28 N         -16.0626   -5.6555   17.8737 N.pl3   1  UNL1       -0.3127
     29 H         -16.4689   -5.4485   17.0011 H       1  UNL1        0.1484
     30 C         -16.9215   -5.7353   19.1009 C.3     1  UNL1        0.1663
     31 C         -17.3727   -4.4783   19.7836 C.3     1  UNL1        0.4135
     32 F         -17.8240   -3.2212   20.4664 F       1  UNL1       -0.1682
     33 F         -16.0549   -4.3915   20.4949 F       1  UNL1       -0.1682
     34 F         -18.6905   -4.5650   19.0724 F       1  UNL1       -0.1682
     35 C         -17.3290   -7.0722   19.6453 C.3     1  UNL1        0.0264
     36 C         -18.3954   -8.0005   20.1465 C.3     1  UNL1        0.0020
     37 C         -16.9686   -8.4596   20.0872 C.3     1  UNL1        0.0020
@<TRIPOS>BOND
     1    23    24   am
     2    24    25    2
     3    24     1    1
     4     1     2   ar
     5     2     3   ar
     6     3     4   ar
     7     4    28    1
     8    30    28    1
     9    30    35    1
    10    35    36    1
    11    36    37    1
    12    30    31    1
    13    31    32    1
    14    31    33    1
    15    31    34    1
    16     4     5   ar
    17     5     6   ar
    18     6     7    1
    19     7     8    2
    20     8     9    1
    21     9    10    1
    22    10    14    1
    23    14    15   ar
    24    15    16   ar
    25    16    17   ar
    26    17    18    1
    27    17    19   ar
    28    19    20   ar
    29    10    11    2
    30    11    12    1
    31    12    13    2
    32     6     1   ar
    33    13     8    1
    34    37    35    1
    35    13     5    1
    36    20    14   ar
    37    23    26    1
    38    23    27    1
    39    28    29    1
    40    18    21    1
    41    18    22    1
