@<TRIPOS>MOLECULE
*****
 32 36 0 0 0
SMALL
GASTEIGER

@<TRIPOS>ATOM
      1 C          -8.8521  -17.0578   23.5494 C.3     1  UNL1        0.1066
      2 C         -10.0706  -16.5119   22.8657 C.3     1  UNL1        0.0470
      3 C         -10.3232  -17.3379   21.6393 C.ar    1  UNL1       -0.0106
      4 C         -11.3833  -17.2645   20.5807 C.ar    1  UNL1        0.0544
      5 CL        -12.4456  -16.2081   20.6550 Cl      1  UNL1       -0.0826
      6 C         -11.3811  -18.2475   19.4477 C.ar    1  UNL1        0.0224
      7 C         -10.3188  -19.3039   19.3734 C.ar    1  UNL1        0.0583
      8 CL        -10.3166  -20.2870   18.2404 Cl      1  UNL1       -0.0822
      9 C          -9.2587  -19.3773   20.4321 C.ar    1  UNL1        0.0104
     10 C          -9.2609  -18.3943   21.5650 C.ar    1  UNL1        0.0163
     11 C          -8.3517  -18.2212   22.7455 C.3     1  UNL1        0.2026
     12 N          -5.1142  -14.3779   25.9672 N.3     1  UNL1       -0.3211
     13 C          -6.3725  -15.1927   26.0237 C.3     1  UNL1        0.0670
     14 C          -7.0198  -15.4822   27.3454 C.3     1  UNL1        0.0183
     15 C          -8.2780  -16.2969   27.4018 C.3     1  UNL1        0.0187
     16 C          -8.8887  -16.8222   26.1364 C.3     1  UNL1        0.0723
     17 N          -8.2414  -16.5326   24.8147 N.3     1  UNL1       -0.2692
     18 C          -6.9832  -15.7179   24.7583 C.3     1  UNL1        0.0878
     19 H          -4.8426  -14.1060   26.9120 H       1  UNL1        0.1189
     20 H          -5.2756  -13.5417   25.4059 H       1  UNL1        0.1189
     21 O          -7.1527  -19.0636   23.0658 O.3     1  UNL1       -0.4734
     22 C          -5.8580  -18.8304   22.3452 C.ar    1  UNL1        0.1390
     23 C          -5.6865  -19.3140   20.9356 C.ar    1  UNL1        0.0384
     24 C          -4.3919  -19.0808   20.2149 C.ar    1  UNL1        0.0207
     25 C          -3.2686  -18.3640   20.9038 C.ar    1  UNL1        0.0657
     26 C          -3.4401  -17.8804   22.3133 C.ar    1  UNL1        0.0207
     27 C          -4.7348  -18.1135   23.0340 C.ar    1  UNL1        0.0384
     28 N          -1.9739  -18.1308   20.1831 N.ar    1  UNL1       -0.2864
     29 C          -0.6245  -17.9809   20.8206 C.ar    1  UNL1        0.1022
     30 C           0.3820  -17.7640   19.7299 C.ar    1  UNL1        0.1196
     31 N          -0.3453  -17.7798   18.4181 N.ar    1  UNL1       -0.2220
     32 C          -1.8014  -18.0065   18.6982 C.ar    1  UNL1        0.1828
@<TRIPOS>BOND
     1    13    12    1
     2    13    14    1
     3    14    15    1
     4    15    16    1
     5    16    17    1
     6     1    17    1
     7     1     2    1
     8     2     3    1
     9     3     4   ar
    10     4     5    1
    11     4     6   ar
    12     6     7   ar
    13     7     8    1
    14     7     9   ar
    15     9    10   ar
    16    10    11    1
    17    11    21    1
    18    21    22    1
    19    22    23   ar
    20    23    24   ar
    21    24    25   ar
    22    25    28    1
    23    28    29   ar
    24    29    30   ar
    25    30    31   ar
    26    31    32   ar
    27    25    26   ar
    28    26    27   ar
    29    17    18    1
    30    18    13    1
    31    11     1    1
    32    27    22   ar
    33    10     3   ar
    34    32    28   ar
    35    12    19    1
    36    12    20    1
@<TRIPOS>MOLECULE
*****
 32 36 0 0 0
SMALL
GASTEIGER

@<TRIPOS>ATOM
      1 C           2.0123    0.1411   20.3883 C.3     1  UNL1        0.1066
      2 C           2.2024   -1.1904   19.7243 C.3     1  UNL1        0.0470
      3 C           3.1623   -1.9898   20.5549 C.ar    1  UNL1       -0.0106
      4 C           3.7213   -3.3720   20.3912 C.ar    1  UNL1        0.0544
      5 CL          3.3183   -4.2095   19.2139 Cl      1  UNL1       -0.0826
      6 C           4.6834   -3.9167   21.4049 C.ar    1  UNL1        0.0224
      7 C           5.0865   -3.0792   22.5822 C.ar    1  UNL1        0.0583
      8 CL          6.0487   -3.6240   23.5959 Cl      1  UNL1       -0.0822
      9 C           4.5275   -1.6970   22.7459 C.ar    1  UNL1        0.0104
     10 C           3.5653   -1.1522   21.7322 C.ar    1  UNL1        0.0163
     11 C           2.8546    0.1647   21.6292 C.3     1  UNL1        0.2026
     12 N          -2.3738    2.9040   20.7471 N.3     1  UNL1       -0.3211
     13 C          -1.0590    2.6351   20.0769 C.3     1  UNL1        0.0670
     14 C          -0.6225    3.4788   18.9160 C.3     1  UNL1        0.0183
     15 C           0.6922    3.2098   18.2459 C.3     1  UNL1        0.0187
     16 C           1.5705    2.0973   18.7367 C.3     1  UNL1        0.0723
     17 N           1.1340    1.2536   19.8975 N.3     1  UNL1       -0.2692
     18 C          -0.1807    1.5226   20.5677 C.3     1  UNL1        0.0878
     19 H          -2.8353    3.6891   20.2877 H       1  UNL1        0.1189
     20 H          -2.2149    3.1303   21.7289 H       1  UNL1        0.1189
     21 O           2.9665    1.3050   22.5973 O.3     1  UNL1       -0.4734
     22 C           2.3114    1.2131   23.9435 C.ar    1  UNL1        0.1390
     23 C           3.1393    0.9347   25.1631 C.ar    1  UNL1        0.0384
     24 C           2.4842    0.8428   26.5093 C.ar    1  UNL1        0.0207
     25 C           1.0012    1.0293   26.6360 C.ar    1  UNL1        0.0657
     26 C           0.1734    1.3077   25.4165 C.ar    1  UNL1        0.0207
     27 C           0.8285    1.3996   24.0703 C.ar    1  UNL1        0.0384
     28 N           0.3461    0.9374   27.9823 N.ar    1  UNL1       -0.2864
     29 C           0.6920    1.7584   29.1890 C.ar    1  UNL1        0.1022
     30 C          -0.2102    1.3368   30.3107 C.ar    1  UNL1        0.1196
     31 N          -1.1138    0.2552   29.7972 N.ar    1  UNL1       -0.2220
     32 C          -0.7700    0.0084   28.3582 C.ar    1  UNL1        0.1828
@<TRIPOS>BOND
     1    13    12    1
     2    13    14    1
     3    14    15    1
     4    15    16    1
     5    16    17    1
     6     1    17    1
     7     1     2    1
     8     2     3    1
     9     3     4   ar
    10     4     5    1
    11     4     6   ar
    12     6     7   ar
    13     7     8    1
    14     7     9   ar
    15     9    10   ar
    16    10    11    1
    17    11    21    1
    18    21    22    1
    19    22    23   ar
    20    23    24   ar
    21    24    25   ar
    22    25    28    1
    23    28    29   ar
    24    29    30   ar
    25    30    31   ar
    26    31    32   ar
    27    25    26   ar
    28    26    27   ar
    29    17    18    1
    30    18    13    1
    31    11     1    1
    32    27    22   ar
    33    10     3   ar
    34    32    28   ar
    35    12    19    1
    36    12    20    1
@<TRIPOS>MOLECULE
*****
 32 36 0 0 0
SMALL
GASTEIGER

@<TRIPOS>ATOM
      1 C          -1.3973    3.4161   21.0757 C.3     1  UNL1        0.1066
      2 C          -1.1755    4.4246   22.1637 C.3     1  UNL1        0.0470
      3 C          -0.2637    3.8117   23.1850 C.ar    1  UNL1       -0.0106
      4 C           0.2995    4.3376   24.4719 C.ar    1  UNL1        0.0544
      5 CL         -0.0422    5.7248   24.9287 Cl      1  UNL1       -0.0826
      6 C           1.2045    3.4762   25.3020 C.ar    1  UNL1        0.0224
      7 C           1.5462    2.0889   24.8451 C.ar    1  UNL1        0.0583
      8 CL          2.4512    1.2275   25.6753 Cl      1  UNL1       -0.0822
      9 C           0.9830    1.5630   23.5582 C.ar    1  UNL1        0.0104
     10 C           0.0780    2.4244   22.7282 C.ar    1  UNL1        0.0163
     11 C          -0.6226    2.1799   21.4245 C.3     1  UNL1        0.2026
     12 N          -1.8010    4.3873   15.9871 N.3     1  UNL1       -0.3211
     13 C          -2.4469    4.0954   17.3091 C.3     1  UNL1        0.0670
     14 C          -3.9403    3.9972   17.4089 C.3     1  UNL1        0.0183
     15 C          -4.5860    3.7054   18.7309 C.3     1  UNL1        0.0187
     16 C          -3.7384    3.5117   19.9531 C.3     1  UNL1        0.0723
     17 N          -2.2449    3.6098   19.8534 N.3     1  UNL1       -0.2692
     18 C          -1.5992    3.9017   18.5314 C.3     1  UNL1        0.0878
     19 H          -2.5212    4.4888   15.2719 H       1  UNL1        0.1189
     20 H          -1.1783    3.6194   15.7359 H       1  UNL1        0.1189
     21 O          -0.5595    0.9204   20.6124 O.3     1  UNL1       -0.4734
     22 C           0.7543    0.4443   20.0675 C.ar    1  UNL1        0.1390
     23 C           1.5440   -0.5914   20.8118 C.ar    1  UNL1        0.0384
     24 C           2.8579   -1.0676   20.2670 C.ar    1  UNL1        0.0207
     25 C           3.3822   -0.5081   18.9778 C.ar    1  UNL1        0.0657
     26 C           2.5926    0.5275   18.2335 C.ar    1  UNL1        0.0207
     27 C           1.2787    1.0037   18.7783 C.ar    1  UNL1        0.0384
     28 N           4.6961   -0.9843   18.4329 N.ar    1  UNL1       -0.2864
     29 C           5.3241   -2.3221   18.6892 C.ar    1  UNL1        0.1022
     30 C           6.6288   -2.3709   17.9508 C.ar    1  UNL1        0.1196
     31 N           6.8073   -1.0632   17.2382 N.ar    1  UNL1       -0.2220
     32 C           5.6128   -0.2062   17.5361 C.ar    1  UNL1        0.1828
@<TRIPOS>BOND
     1    13    12    1
     2    13    14    1
     3    14    15    1
     4    15    16    1
     5    16    17    1
     6     1    17    1
     7     1     2    1
     8     2     3    1
     9     3     4   ar
    10     4     5    1
    11     4     6   ar
    12     6     7   ar
    13     7     8    1
    14     7     9   ar
    15     9    10   ar
    16    10    11    1
    17    11    21    1
    18    21    22    1
    19    22    23   ar
    20    23    24   ar
    21    24    25   ar
    22    25    28    1
    23    28    29   ar
    24    29    30   ar
    25    30    31   ar
    26    31    32   ar
    27    25    26   ar
    28    26    27   ar
    29    17    18    1
    30    18    13    1
    31    11     1    1
    32    27    22   ar
    33    10     3   ar
    34    32    28   ar
    35    12    19    1
    36    12    20    1
@<TRIPOS>MOLECULE
*****
 32 36 0 0 0
SMALL
GASTEIGER

@<TRIPOS>ATOM
      1 C           7.3036   -3.5823   22.5098 C.3     1  UNL1        0.1066
      2 C           7.6928   -4.9950   22.8302 C.3     1  UNL1        0.0470
      3 C           7.4912   -5.2092   24.3011 C.ar    1  UNL1       -0.0106
      4 C           7.7091   -6.4046   25.1805 C.ar    1  UNL1        0.0544
      5 CL          8.2230   -7.6850   24.5918 Cl      1  UNL1       -0.0826
      6 C           7.4131   -6.3197   26.6485 C.ar    1  UNL1        0.0224
      7 C           6.8992   -5.0393   27.2372 C.ar    1  UNL1        0.0583
      8 CL          6.6032   -4.9545   28.7053 Cl      1  UNL1       -0.0822
      9 C           6.6813   -3.8439   26.3578 C.ar    1  UNL1        0.0104
     10 C           6.9773   -3.9288   24.8898 C.ar    1  UNL1        0.0163
     11 C           6.8613   -2.9233   23.7827 C.3     1  UNL1        0.2026
     12 N           5.2108   -2.8367   17.8125 N.3     1  UNL1       -0.3211
     13 C           6.3023   -2.5683   18.8059 C.3     1  UNL1        0.0670
     14 C           7.4387   -1.6587   18.4439 C.3     1  UNL1        0.0183
     15 C           8.5301   -1.3903   19.4373 C.3     1  UNL1        0.0187
     16 C           8.4851   -2.0315   20.7926 C.3     1  UNL1        0.0723
     17 N           7.3486   -2.9411   21.1545 N.3     1  UNL1       -0.2692
     18 C           6.2572   -3.2095   20.1612 C.3     1  UNL1        0.0878
     19 H           5.4007   -2.3235   16.9517 H       1  UNL1        0.1189
     20 H           4.3170   -2.5332   18.1992 H       1  UNL1        0.1189
     21 O           6.3865   -1.5075   23.9238 O.3     1  UNL1       -0.4734
     22 C           5.3433   -0.9697   22.9898 C.ar    1  UNL1        0.1390
     23 C           3.9456   -1.5126   23.0337 C.ar    1  UNL1        0.0384
     24 C           2.9023   -0.9748   22.0998 C.ar    1  UNL1        0.0207
     25 C           3.2567    0.1060   21.1218 C.ar    1  UNL1        0.0657
     26 C           4.6543    0.6489   21.0779 C.ar    1  UNL1        0.0207
     27 C           5.6976    0.1111   22.0118 C.ar    1  UNL1        0.0384
     28 N           2.2134    0.6438   20.1878 N.ar    1  UNL1       -0.2864
     29 C           1.2591    1.7630   20.4822 C.ar    1  UNL1        0.1022
     30 C           0.3972    1.9677   19.2718 C.ar    1  UNL1        0.1196
     31 N           0.8187    0.9750   18.2293 N.ar    1  UNL1       -0.2220
     32 C           1.9412    0.1568   18.7954 C.ar    1  UNL1        0.1828
@<TRIPOS>BOND
     1    13    12    1
     2    13    14    1
     3    14    15    1
     4    15    16    1
     5    16    17    1
     6     1    17    1
     7     1     2    1
     8     2     3    1
     9     3     4   ar
    10     4     5    1
    11     4     6   ar
    12     6     7   ar
    13     7     8    1
    14     7     9   ar
    15     9    10   ar
    16    10    11    1
    17    11    21    1
    18    21    22    1
    19    22    23   ar
    20    23    24   ar
    21    24    25   ar
    22    25    28    1
    23    28    29   ar
    24    29    30   ar
    25    30    31   ar
    26    31    32   ar
    27    25    26   ar
    28    26    27   ar
    29    17    18    1
    30    18    13    1
    31    11     1    1
    32    27    22   ar
    33    10     3   ar
    34    32    28   ar
    35    12    19    1
    36    12    20    1
@<TRIPOS>MOLECULE
*****
 32 36 0 0 0
SMALL
GASTEIGER

@<TRIPOS>ATOM
      1 C           2.1584    0.3441   20.6339 C.3     1  UNL1        0.1066
      2 C           2.3656   -0.9255   19.8624 C.3     1  UNL1        0.0470
      3 C           3.2492   -1.8237   20.6764 C.ar    1  UNL1       -0.0106
      4 C           3.7890   -3.1997   20.4216 C.ar    1  UNL1        0.0544
      5 CL          3.4501   -3.9143   19.1470 Cl      1  UNL1       -0.0826
      6 C           4.6677   -3.8613   21.4415 C.ar    1  UNL1        0.0224
      7 C           5.0066   -3.1468   22.7161 C.ar    1  UNL1        0.0583
      8 CL          5.8854   -3.8085   23.7360 Cl      1  UNL1       -0.0822
      9 C           4.4668   -1.7707   22.9709 C.ar    1  UNL1        0.0104
     10 C           3.5881   -1.1092   21.9510 C.ar    1  UNL1        0.0163
     11 C           2.9140    0.2305   21.9247 C.3     1  UNL1        0.2026
     12 N          -2.3694    2.8914   20.5324 N.3     1  UNL1       -0.3211
     13 C          -0.9244    2.7943   20.1414 C.3     1  UNL1        0.0670
     14 C          -0.2986    3.8735   19.3087 C.3     1  UNL1        0.0183
     15 C           1.1463    3.7763   18.9178 C.3     1  UNL1        0.0187
     16 C           1.9653    2.5998   19.3595 C.3     1  UNL1        0.0723
     17 N           1.3394    1.5205   20.1922 N.3     1  UNL1       -0.2692
     18 C          -0.1055    1.6178   20.5831 C.3     1  UNL1        0.0878
     19 H          -2.7684    3.7484   20.1492 H       1  UNL1        0.1189
     20 H          -2.4462    2.9056   21.5494 H       1  UNL1        0.1189
     21 O           2.9832    1.2736   23.0005 O.3     1  UNL1       -0.4734
     22 C           1.7203    1.8326   23.5856 C.ar    1  UNL1        0.1390
     23 C           1.3034    3.2377   23.2663 C.ar    1  UNL1        0.0384
     24 C           0.0405    3.7967   23.8514 C.ar    1  UNL1        0.0207
     25 C          -0.8056    2.9506   24.7560 C.ar    1  UNL1        0.0657
     26 C          -0.3888    1.5456   25.0754 C.ar    1  UNL1        0.0207
     27 C           0.8742    0.9866   24.4903 C.ar    1  UNL1        0.0384
     28 N          -2.0686    3.5097   25.3412 N.ar    1  UNL1       -0.2864
     29 C          -2.2057    4.1565   26.6876 C.ar    1  UNL1        0.1022
     30 C          -3.6380    4.5666   26.8612 C.ar    1  UNL1        0.1196
     31 N          -4.3862    4.1733   25.6221 N.ar    1  UNL1       -0.2220
     32 C          -3.4163    3.5201   24.6826 C.ar    1  UNL1        0.1828
@<TRIPOS>BOND
     1    13    12    1
     2    13    14    1
     3    14    15    1
     4    15    16    1
     5    16    17    1
     6     1    17    1
     7     1     2    1
     8     2     3    1
     9     3     4   ar
    10     4     5    1
    11     4     6   ar
    12     6     7   ar
    13     7     8    1
    14     7     9   ar
    15     9    10   ar
    16    10    11    1
    17    11    21    1
    18    21    22    1
    19    22    23   ar
    20    23    24   ar
    21    24    25   ar
    22    25    28    1
    23    28    29   ar
    24    29    30   ar
    25    30    31   ar
    26    31    32   ar
    27    25    26   ar
    28    26    27   ar
    29    17    18    1
    30    18    13    1
    31    11     1    1
    32    27    22   ar
    33    10     3   ar
    34    32    28   ar
    35    12    19    1
    36    12    20    1
@<TRIPOS>MOLECULE
*****
 32 36 0 0 0
SMALL
GASTEIGER

@<TRIPOS>ATOM
      1 C          -1.6637    3.4365   22.5888 C.3     1  UNL1        0.1066
      2 C          -1.8623    3.2235   24.0602 C.3     1  UNL1        0.0470
      3 C          -0.6442    2.5321   24.5971 C.ar    1  UNL1       -0.0106
      4 C          -0.2785    2.0701   25.9765 C.ar    1  UNL1        0.0544
      5 CL         -1.2299    2.2843   27.1161 Cl      1  UNL1       -0.0826
      6 C           1.0387    1.3937   26.2162 C.ar    1  UNL1        0.0224
      7 C           1.9902    1.1794   25.0766 C.ar    1  UNL1        0.0583
      8 CL          3.3075    0.5030   25.3164 Cl      1  UNL1       -0.0822
      9 C           1.6245    1.6415   23.6972 C.ar    1  UNL1        0.0104
     10 C           0.3073    2.3178   23.4575 C.ar    1  UNL1        0.0163
     11 C          -0.3228    2.8768   22.2163 C.3     1  UNL1        0.2026
     12 N          -5.6476    3.0968   19.2702 N.3     1  UNL1       -0.3211
     13 C          -4.6273    3.9240   19.9947 C.3     1  UNL1        0.0670
     14 C          -4.5786    5.4083   19.7843 C.3     1  UNL1        0.0183
     15 C          -3.5583    6.2354   20.5088 C.3     1  UNL1        0.0187
     16 C          -2.5866    5.5781   21.4436 C.3     1  UNL1        0.0723
     17 N          -2.6353    4.0938   21.6540 N.3     1  UNL1       -0.2692
     18 C          -3.6556    3.2667   20.9295 C.3     1  UNL1        0.0878
     19 H          -6.2205    3.7021   18.6821 H       1  UNL1        0.1189
     20 H          -6.2421    2.6198   19.9481 H       1  UNL1        0.1189
     21 O           0.2819    2.8761   20.8436 O.3     1  UNL1       -0.4734
     22 C           1.1421    1.7288   20.4035 C.ar    1  UNL1        0.1390
     23 C           2.5571    1.9751   19.9706 C.ar    1  UNL1        0.0384
     24 C           3.4173    0.8279   19.5305 C.ar    1  UNL1        0.0207
     25 C           2.8626   -0.5658   19.5232 C.ar    1  UNL1        0.0657
     26 C           1.4478   -0.8121   19.9560 C.ar    1  UNL1        0.0207
     27 C           0.5875    0.3351   20.3962 C.ar    1  UNL1        0.0384
     28 N           3.7229   -1.7130   19.0831 N.ar    1  UNL1       -0.2864
     29 C           3.6203   -3.1288   19.5679 C.ar    1  UNL1        0.1022
     30 C           4.6708   -3.9367   18.8654 C.ar    1  UNL1        0.1196
     31 N           5.4227   -3.0203   17.9462 N.ar    1  UNL1       -0.2220
     32 C           4.8369   -1.6460   18.0808 C.ar    1  UNL1        0.1828
@<TRIPOS>BOND
     1    13    12    1
     2    13    14    1
     3    14    15    1
     4    15    16    1
     5    16    17    1
     6     1    17    1
     7     1     2    1
     8     2     3    1
     9     3     4   ar
    10     4     5    1
    11     4     6   ar
    12     6     7   ar
    13     7     8    1
    14     7     9   ar
    15     9    10   ar
    16    10    11    1
    17    11    21    1
    18    21    22    1
    19    22    23   ar
    20    23    24   ar
    21    24    25   ar
    22    25    28    1
    23    28    29   ar
    24    29    30   ar
    25    30    31   ar
    26    31    32   ar
    27    25    26   ar
    28    26    27   ar
    29    17    18    1
    30    18    13    1
    31    11     1    1
    32    27    22   ar
    33    10     3   ar
    34    32    28   ar
    35    12    19    1
    36    12    20    1
@<TRIPOS>MOLECULE
*****
 32 36 0 0 0
SMALL
GASTEIGER

@<TRIPOS>ATOM
      1 C          -1.2454    3.3679   23.0697 C.3     1  UNL1        0.1066
      2 C          -2.6685    3.5373   23.5125 C.3     1  UNL1        0.0470
      3 C          -3.5307    3.6025   22.2868 C.ar    1  UNL1       -0.0106
      4 C          -5.0114    3.7628   22.1086 C.ar    1  UNL1        0.0544
      5 CL         -5.9016    3.8918   23.3090 Cl      1  UNL1       -0.0826
      6 C          -5.6018    3.7940   20.7301 C.ar    1  UNL1        0.0224
      7 C          -4.7116    3.6649   19.5298 C.ar    1  UNL1        0.0583
      8 CL         -5.3021    3.6961   18.1512 Cl      1  UNL1       -0.0822
      9 C          -3.2309    3.5047   19.7080 C.ar    1  UNL1        0.0104
     10 C          -2.6404    3.4735   21.0865 C.ar    1  UNL1        0.0163
     11 C          -1.2281    3.3285   21.5704 C.3     1  UNL1        0.2026
     12 N           1.6572    0.6061   26.3784 N.3     1  UNL1       -0.3211
     13 C           1.4018    1.8765   25.6228 C.3     1  UNL1        0.0670
     14 C           2.3421    3.0363   25.7660 C.3     1  UNL1        0.0183
     15 C           2.0866    4.3067   25.0105 C.3     1  UNL1        0.0187
     16 C           0.8908    4.4172   24.1117 C.3     1  UNL1        0.0723
     17 N          -0.0495    3.2574   23.9685 N.3     1  UNL1       -0.2692
     18 C           0.2060    1.9870   24.7240 C.3     1  UNL1        0.0878
     19 H           2.5058    0.7065   26.9353 H       1  UNL1        0.1189
     20 H           1.7721   -0.1641   25.7196 H       1  UNL1        0.1189
     21 O          -0.0119    3.1716   20.7065 O.3     1  UNL1       -0.4734
     22 C           0.8289    1.9340   20.8125 C.ar    1  UNL1        0.1390
     23 C           2.1601    1.9884   21.5018 C.ar    1  UNL1        0.0384
     24 C           3.0010    0.7508   21.6079 C.ar    1  UNL1        0.0207
     25 C           2.5106   -0.5413   21.0247 C.ar    1  UNL1        0.0657
     26 C           1.1795   -0.5957   20.3355 C.ar    1  UNL1        0.0207
     27 C           0.3386    0.6419   20.2294 C.ar    1  UNL1        0.0384
     28 N           3.3515   -1.7789   21.1308 N.ar    1  UNL1       -0.2864
     29 C           4.0275   -2.2818   22.3718 C.ar    1  UNL1        0.1022
     30 C           4.7578   -3.5446   22.0225 C.ar    1  UNL1        0.1196
     31 N           4.5330   -3.8222   20.5657 N.ar    1  UNL1       -0.2220
     32 C           3.6639   -2.7310   20.0146 C.ar    1  UNL1        0.1828
@<TRIPOS>BOND
     1    13    12    1
     2    13    14    1
     3    14    15    1
     4    15    16    1
     5    16    17    1
     6     1    17    1
     7     1     2    1
     8     2     3    1
     9     3     4   ar
    10     4     5    1
    11     4     6   ar
    12     6     7   ar
    13     7     8    1
    14     7     9   ar
    15     9    10   ar
    16    10    11    1
    17    11    21    1
    18    21    22    1
    19    22    23   ar
    20    23    24   ar
    21    24    25   ar
    22    25    28    1
    23    28    29   ar
    24    29    30   ar
    25    30    31   ar
    26    31    32   ar
    27    25    26   ar
    28    26    27   ar
    29    17    18    1
    30    18    13    1
    31    11     1    1
    32    27    22   ar
    33    10     3   ar
    34    32    28   ar
    35    12    19    1
    36    12    20    1
@<TRIPOS>MOLECULE
*****
 32 36 0 0 0
SMALL
GASTEIGER

@<TRIPOS>ATOM
      1 C           4.1479   -0.1146   32.0898 C.3     1  UNL1        0.1066
      2 C           4.5195    0.9508   33.0782 C.3     1  UNL1        0.0470
      3 C           3.4003    1.9483   33.1273 C.ar    1  UNL1       -0.0106
      4 C           3.2120    3.2074   33.9205 C.ar    1  UNL1        0.0544
      5 CL          4.2753    3.6562   34.8786 Cl      1  UNL1       -0.0826
      6 C           1.9604    4.0175   33.7557 C.ar    1  UNL1        0.0224
      7 C           0.8972    3.5686   32.7976 C.ar    1  UNL1        0.0583
      8 CL         -0.3544    4.3789   32.6328 Cl      1  UNL1       -0.0822
      9 C           1.0855    2.3096   32.0043 C.ar    1  UNL1        0.0104
     10 C           2.3370    1.4994   32.1691 C.ar    1  UNL1        0.0163
     11 C           2.7991    0.2245   31.5280 C.3     1  UNL1        0.2026
     12 N           6.8870   -2.7923   28.5788 N.3     1  UNL1       -0.3211
     13 C           6.3488   -2.6481   29.9715 C.3     1  UNL1        0.0670
     14 C           6.6419   -3.6986   31.0013 C.3     1  UNL1        0.0183
     15 C           6.1036   -3.5544   32.3940 C.3     1  UNL1        0.0187
     16 C           5.2723   -2.3598   32.7568 C.3     1  UNL1        0.0723
     17 N           4.9792   -1.3093   31.7270 N.3     1  UNL1       -0.2692
     18 C           5.5175   -1.4535   30.3344 C.3     1  UNL1        0.0878
     19 H           7.4252   -3.6560   28.5100 H       1  UNL1        0.1189
     20 H           7.4897   -1.9981   28.3633 H       1  UNL1        0.1189
     21 O           2.0447   -0.5716   30.5047 O.3     1  UNL1       -0.4734
     22 C           1.4540    0.1132   29.3081 C.ar    1  UNL1        0.1390
     23 C          -0.0054   -0.0438   28.9986 C.ar    1  UNL1        0.0384
     24 C          -0.5963    0.6410   27.8019 C.ar    1  UNL1        0.0207
     25 C           0.2722    1.4828   26.9147 C.ar    1  UNL1        0.0657
     26 C           1.7315    1.6398   27.2242 C.ar    1  UNL1        0.0207
     27 C           2.3224    0.9551   28.4209 C.ar    1  UNL1        0.0384
     28 N          -0.3186    2.1676   25.7181 N.ar    1  UNL1       -0.2864
     29 C          -1.5869    2.9682   25.6973 C.ar    1  UNL1        0.1022
     30 C          -1.7971    3.4674   24.2986 C.ar    1  UNL1        0.1196
     31 N          -0.6587    2.9753   23.4548 N.ar    1  UNL1       -0.2220
     32 C           0.2550    2.1720   24.3321 C.ar    1  UNL1        0.1828
@<TRIPOS>BOND
     1    13    12    1
     2    13    14    1
     3    14    15    1
     4    15    16    1
     5    16    17    1
     6     1    17    1
     7     1     2    1
     8     2     3    1
     9     3     4   ar
    10     4     5    1
    11     4     6   ar
    12     6     7   ar
    13     7     8    1
    14     7     9   ar
    15     9    10   ar
    16    10    11    1
    17    11    21    1
    18    21    22    1
    19    22    23   ar
    20    23    24   ar
    21    24    25   ar
    22    25    28    1
    23    28    29   ar
    24    29    30   ar
    25    30    31   ar
    26    31    32   ar
    27    25    26   ar
    28    26    27   ar
    29    17    18    1
    30    18    13    1
    31    11     1    1
    32    27    22   ar
    33    10     3   ar
    34    32    28   ar
    35    12    19    1
    36    12    20    1
@<TRIPOS>MOLECULE
*****
 32 36 0 0 0
SMALL
GASTEIGER

@<TRIPOS>ATOM
      1 C           8.1278   -4.7264   28.8446 C.3     1  UNL1        0.1066
      2 C           8.3665   -6.2023   28.7228 C.3     1  UNL1        0.0470
      3 C           8.4993   -6.5317   27.2654 C.ar    1  UNL1       -0.0106
      4 C           8.7426   -7.8257   26.5470 C.ar    1  UNL1        0.0544
      5 CL          8.8992   -9.0980   27.3259 Cl      1  UNL1       -0.0826
      6 C           8.8294   -7.8474   25.0497 C.ar    1  UNL1        0.0224
      7 C           8.6728   -6.5751   24.2708 C.ar    1  UNL1        0.0583
      8 CL          8.7595   -6.5969   22.7734 Cl      1  UNL1       -0.0822
      9 C           8.4295   -5.2811   24.9892 C.ar    1  UNL1        0.0104
     10 C           8.3427   -5.2593   26.4865 C.ar    1  UNL1        0.0163
     11 C           8.1131   -4.1437   27.4625 C.3     1  UNL1        0.2026
     12 N           5.1279   -3.3541   32.8593 N.3     1  UNL1       -0.3211
     13 C           6.4374   -3.2806   32.1312 C.3     1  UNL1        0.0670
     14 C           7.5562   -2.4473   32.6825 C.3     1  UNL1        0.0183
     15 C           8.8655   -2.3738   31.9544 C.3     1  UNL1        0.0187
     16 C           9.0561   -3.1335   30.6751 C.3     1  UNL1        0.0723
     17 N           7.9373   -3.9667   30.1239 N.3     1  UNL1       -0.2692
     18 C           6.6279   -4.0403   30.8519 C.3     1  UNL1        0.0878
     19 H           5.1747   -2.7812   33.7018 H       1  UNL1        0.1189
     20 H           4.9359   -4.3223   33.1166 H       1  UNL1        0.1189
     21 O           7.9053   -2.6988   27.1171 O.3     1  UNL1       -0.4734
     22 C           6.6632   -1.9905   27.5699 C.ar    1  UNL1        0.1390
     23 C           5.3565   -2.2539   26.8819 C.ar    1  UNL1        0.0384
     24 C           4.1142   -1.5456   27.3348 C.ar    1  UNL1        0.0207
     25 C           4.1787   -0.5738   28.4757 C.ar    1  UNL1        0.0657
     26 C           5.4853   -0.3104   29.1636 C.ar    1  UNL1        0.0207
     27 C           6.7275   -1.0188   28.7108 C.ar    1  UNL1        0.0384
     28 N           2.9364    0.1345   28.9285 N.ar    1  UNL1       -0.2864
     29 C           2.2945    1.3089   28.2512 C.ar    1  UNL1        0.1022
     30 C           1.0793    1.6930   29.0423 C.ar    1  UNL1        0.1196
     31 N           0.9702    0.7560   30.2085 N.ar    1  UNL1       -0.2220
     32 C           2.1179   -0.2072   30.1382 C.ar    1  UNL1        0.1828
@<TRIPOS>BOND
     1    13    12    1
     2    13    14    1
     3    14    15    1
     4    15    16    1
     5    16    17    1
     6     1    17    1
     7     1     2    1
     8     2     3    1
     9     3     4   ar
    10     4     5    1
    11     4     6   ar
    12     6     7   ar
    13     7     8    1
    14     7     9   ar
    15     9    10   ar
    16    10    11    1
    17    11    21    1
    18    21    22    1
    19    22    23   ar
    20    23    24   ar
    21    24    25   ar
    22    25    28    1
    23    28    29   ar
    24    29    30   ar
    25    30    31   ar
    26    31    32   ar
    27    25    26   ar
    28    26    27   ar
    29    17    18    1
    30    18    13    1
    31    11     1    1
    32    27    22   ar
    33    10     3   ar
    34    32    28   ar
    35    12    19    1
    36    12    20    1
