@<TRIPOS>MOLECULE
*****
 29 32 0 0 0
SMALL
GASTEIGER

@<TRIPOS>ATOM
      1 C         -10.2855  -19.7804   19.9962 C.3     1  UNL1        0.0646
      2 C          -8.9737  -19.6357   19.2833 C.3     1  UNL1        0.0759
      3 C          -5.1741  -19.1370   21.6420 C.3     1  UNL1        0.0087
      4 C          -6.4960  -19.1786   22.3496 C.3     1  UNL1        0.0178
      5 C          -7.7626  -19.3448   21.5633 C.3     1  UNL1        0.0721
      6 N          -7.7071  -19.4694   20.0695 N.3     1  UNL1       -0.2726
      7 C          -6.3852  -19.4278   19.3620 C.3     1  UNL1        0.0721
      8 C          -5.1186  -19.2616   20.1482 C.3     1  UNL1        0.0178
      9 C          -3.9075  -18.9708   22.4283 C.3     1  UNL1        0.0475
     10 C          -0.7138  -17.8067   20.5546 C.ar    1  UNL1        0.1747
     11 N          -1.6957  -18.8766   20.9303 N.ar    1  UNL1       -0.2285
     12 C          -2.7347  -18.2607   21.8197 C.ar    1  UNL1        0.0776
     13 C          -2.3949  -16.8101   21.9938 C.ar    1  UNL1        0.0885
     14 N          -1.1460  -16.5295   21.2119 N.ar    1  UNL1       -0.3340
     15 H          -0.6899  -15.6597   21.1424 H       1  UNL1        0.1675
     16 C         -11.4026  -18.8199   19.7138 C.3     1  UNL1        0.2068
     17 O         -11.8300  -17.8372   20.7634 O.3     1  UNL1       -0.4754
     18 C         -10.8541  -17.3842   21.8085 C.ar    1  UNL1        0.1386
     19 C          -9.8002  -16.3742   21.4631 C.ar    1  UNL1        0.0382
     20 C          -8.8243  -15.9212   22.5082 C.ar    1  UNL1        0.0176
     21 C          -8.9022  -16.4782   23.8988 C.ar    1  UNL1        0.0480
     22 C          -9.9561  -17.4881   24.2443 C.ar    1  UNL1        0.0176
     23 C         -10.9321  -17.9412   23.1991 C.ar    1  UNL1        0.0382
     24 N          -7.9263  -16.0252   24.9439 N.pl3   1  UNL1       -0.3075
     25 C          -8.3568  -15.9207   26.3771 C.3     1  UNL1        0.0908
     26 C          -7.3809  -15.4677   27.4222 C.3     1  UNL1        0.0215
     27 C          -5.9745  -15.1191   27.0343 C.3     1  UNL1        0.0035
     28 C          -5.5440  -15.2236   25.6012 C.3     1  UNL1        0.0215
     29 C          -6.5199  -15.6766   24.5560 C.3     1  UNL1        0.0908
@<TRIPOS>BOND
     1    10    11   ar
     2    11    12   ar
     3    12     9    1
     4     9     3    1
     5     3     4    1
     6     4     5    1
     7     5     6    1
     8     6     2    1
     9     2     1    1
    10     1    16    1
    11    16    17    1
    12    17    18    1
    13    18    19   ar
    14    19    20   ar
    15    20    21   ar
    16    21    24    1
    17    24    25    1
    18    25    26    1
    19    26    27    1
    20    27    28    1
    21    28    29    1
    22    21    22   ar
    23    22    23   ar
    24     6     7    1
    25     7     8    1
    26    12    13   ar
    27    13    14   ar
    28    14    10   ar
    29     8     3    1
    30    23    18   ar
    31    29    24    1
    32    14    15    1
@<TRIPOS>MOLECULE
*****
 29 32 0 0 0
SMALL
GASTEIGER

@<TRIPOS>ATOM
      1 C          -2.5640  -20.0126   20.1123 C.3     1  UNL1        0.0646
      2 C          -1.8910  -18.9996   20.9902 C.3     1  UNL1        0.0759
      3 C          -4.3636  -16.2047   23.5051 C.3     1  UNL1        0.0087
      4 C          -4.5523  -17.6878   23.6259 C.3     1  UNL1        0.0178
      5 C          -3.7281  -18.6194   22.7876 C.3     1  UNL1        0.0721
      6 N          -2.7152  -18.0679   21.8285 N.3     1  UNL1       -0.2726
      7 C          -2.5265  -16.5848   21.7077 C.3     1  UNL1        0.0721
      8 C          -3.3507  -15.6531   22.5459 C.3     1  UNL1        0.0178
      9 C          -5.1878  -15.2730   24.3434 C.3     1  UNL1        0.0475
     10 C          -8.9459  -15.6855   25.2218 C.ar    1  UNL1        0.1747
     11 N          -7.5113  -15.5446   25.6366 N.ar    1  UNL1       -0.2285
     12 C          -6.6787  -15.4301   24.3942 C.ar    1  UNL1        0.0776
     13 C          -7.5987  -15.5002   23.2115 C.ar    1  UNL1        0.0885
     14 N          -8.9999  -15.6581   23.7230 N.ar    1  UNL1       -0.3340
     15 H          -9.8124  -15.7309   23.1717 H       1  UNL1        0.1675
     16 C          -3.9923  -19.8154   19.6983 C.3     1  UNL1        0.2068
     17 O          -5.0464  -20.7779   20.1590 O.3     1  UNL1       -0.4754
     18 C          -6.3716  -20.2653   20.6395 C.ar    1  UNL1        0.1386
     19 C          -6.6843  -20.2538   22.1066 C.ar    1  UNL1        0.0382
     20 C          -8.0095  -19.7411   22.5870 C.ar    1  UNL1        0.0176
     21 C          -9.0222  -19.2399   21.6004 C.ar    1  UNL1        0.0480
     22 C          -8.7096  -19.2514   20.1335 C.ar    1  UNL1        0.0176
     23 C          -7.3843  -19.7641   19.6529 C.ar    1  UNL1        0.0382
     24 N         -10.3474  -18.7273   22.0809 N.pl3   1  UNL1       -0.3075
     25 C         -11.2754  -18.0367   21.1259 C.3     1  UNL1        0.0908
     26 C         -12.6007  -17.5240   21.6063 C.3     1  UNL1        0.0215
     27 C         -12.9980  -17.7019   23.0418 C.3     1  UNL1        0.0035
     28 C         -12.0701  -18.3925   23.9968 C.3     1  UNL1        0.0215
     29 C         -10.7447  -18.9052   23.5163 C.3     1  UNL1        0.0908
@<TRIPOS>BOND
     1    10    11   ar
     2    11    12   ar
     3    12     9    1
     4     9     3    1
     5     3     4    1
     6     4     5    1
     7     5     6    1
     8     6     2    1
     9     2     1    1
    10     1    16    1
    11    16    17    1
    12    17    18    1
    13    18    19   ar
    14    19    20   ar
    15    20    21   ar
    16    21    24    1
    17    24    25    1
    18    25    26    1
    19    26    27    1
    20    27    28    1
    21    28    29    1
    22    21    22   ar
    23    22    23   ar
    24     6     7    1
    25     7     8    1
    26    12    13   ar
    27    13    14   ar
    28    14    10   ar
    29     8     3    1
    30    23    18   ar
    31    29    24    1
    32    14    15    1
@<TRIPOS>MOLECULE
*****
 29 32 0 0 0
SMALL
GASTEIGER

@<TRIPOS>ATOM
      1 C         -12.1848  -17.6214   20.5696 C.3     1  UNL1        0.0646
      2 C         -12.4529  -18.0119   21.9928 C.3     1  UNL1        0.0759
      3 C          -9.4370  -17.0594   25.1939 C.3     1  UNL1        0.0087
      4 C         -10.1922  -18.3547   25.2365 C.3     1  UNL1        0.0178
      5 C         -11.1975  -18.6722   24.1695 C.3     1  UNL1        0.0721
      6 N         -11.4476  -17.6943   23.0599 N.3     1  UNL1       -0.2726
      7 C         -10.6924  -16.3990   23.0173 C.3     1  UNL1        0.0721
      8 C          -9.6872  -16.0816   24.0843 C.3     1  UNL1        0.0178
      9 C          -8.4317  -16.7419   26.2610 C.3     1  UNL1        0.0475
     10 C          -5.2446  -15.2379   24.6346 C.ar    1  UNL1        0.1747
     11 N          -6.5173  -16.0258   24.5384 N.ar    1  UNL1       -0.2285
     12 C          -7.1451  -16.0604   25.9003 C.ar    1  UNL1        0.0776
     13 C          -6.2603  -15.2938   26.8381 C.ar    1  UNL1        0.0885
     14 N          -5.0857  -14.7854   26.0559 N.ar    1  UNL1       -0.3340
     15 H          -4.3413  -14.2490   26.4127 H       1  UNL1        0.1675
     16 C         -11.2937  -18.4720   19.7136 C.3     1  UNL1        0.2068
     17 O         -10.5263  -19.6063   20.3254 O.3     1  UNL1       -0.4754
     18 C          -9.0629  -19.4514   20.6157 C.ar    1  UNL1        0.1386
     19 C          -8.0713  -19.4464   19.4901 C.ar    1  UNL1        0.0382
     20 C          -6.6079  -19.2914   19.7804 C.ar    1  UNL1        0.0176
     21 C          -6.1359  -19.1415   21.1963 C.ar    1  UNL1        0.0480
     22 C          -7.1273  -19.1465   22.3219 C.ar    1  UNL1        0.0176
     23 C          -8.5908  -19.3015   22.0316 C.ar    1  UNL1        0.0382
     24 N          -4.6725  -18.9866   21.4866 N.pl3   1  UNL1       -0.3075
     25 C          -4.2236  -18.1772   22.6671 C.3     1  UNL1        0.0908
     26 C          -2.7601  -18.0223   22.9574 C.3     1  UNL1        0.0215
     27 C          -1.7455  -18.6767   22.0672 C.3     1  UNL1        0.0035
     28 C          -2.1944  -19.4860   20.8867 C.3     1  UNL1        0.0215
     29 C          -3.6579  -19.6410   20.5964 C.3     1  UNL1        0.0908
@<TRIPOS>BOND
     1    10    11   ar
     2    11    12   ar
     3    12     9    1
     4     9     3    1
     5     3     4    1
     6     4     5    1
     7     5     6    1
     8     6     2    1
     9     2     1    1
    10     1    16    1
    11    16    17    1
    12    17    18    1
    13    18    19   ar
    14    19    20   ar
    15    20    21   ar
    16    21    24    1
    17    24    25    1
    18    25    26    1
    19    26    27    1
    20    27    28    1
    21    28    29    1
    22    21    22   ar
    23    22    23   ar
    24     6     7    1
    25     7     8    1
    26    12    13   ar
    27    13    14   ar
    28    14    10   ar
    29     8     3    1
    30    23    18   ar
    31    29    24    1
    32    14    15    1
@<TRIPOS>MOLECULE
*****
 29 32 0 0 0
SMALL
GASTEIGER

@<TRIPOS>ATOM
      1 C          -3.1840  -17.7366   23.4182 C.3     1  UNL1        0.0646
      2 C          -3.1819  -18.8310   22.3924 C.3     1  UNL1        0.0759
      3 C          -6.9794  -19.8873   20.2214 C.3     1  UNL1        0.0087
      4 C          -5.9134  -19.0942   19.5253 C.3     1  UNL1        0.0178
      5 C          -4.6476  -18.7421   20.2490 C.3     1  UNL1        0.0721
      6 N          -4.4478  -19.1831   21.6687 N.3     1  UNL1       -0.2726
      7 C          -5.5138  -19.9762   22.3648 C.3     1  UNL1        0.0721
      8 C          -6.7796  -20.3283   21.6411 C.3     1  UNL1        0.0178
      9 C          -8.2452  -20.2394   19.4977 C.3     1  UNL1        0.0475
     10 C         -11.2888  -17.8643   19.8981 C.ar    1  UNL1        0.1747
     11 N          -9.9504  -18.1900   19.3045 N.ar    1  UNL1       -0.2285
     12 C          -9.5228  -19.5278   19.8314 C.ar    1  UNL1        0.0776
     13 C         -10.5970  -20.0288   20.7507 C.ar    1  UNL1        0.0885
     14 N         -11.6885  -19.0008   20.7919 N.ar    1  UNL1       -0.3340
     15 H         -12.5210  -19.0612   21.3139 H       1  UNL1        0.1675
     16 C          -3.7362  -16.3854   23.0723 C.3     1  UNL1        0.2068
     17 O          -4.7085  -15.7136   23.9960 O.3     1  UNL1       -0.4754
     18 C          -6.1682  -16.0507   23.9224 C.ar    1  UNL1        0.1386
     19 C          -7.0863  -15.6568   25.0414 C.ar    1  UNL1        0.0382
     20 C          -8.5460  -15.9939   24.9678 C.ar    1  UNL1        0.0176
     21 C          -9.0878  -16.7249   23.7753 C.ar    1  UNL1        0.0480
     22 C          -8.1698  -17.1189   22.6564 C.ar    1  UNL1        0.0176
     23 C          -6.7100  -16.7818   22.7299 C.ar    1  UNL1        0.0382
     24 N         -10.5475  -17.0620   23.7017 N.pl3   1  UNL1       -0.3075
     25 C         -11.4918  -16.1518   22.9737 C.3     1  UNL1        0.0908
     26 C         -12.9515  -16.4889   22.9001 C.3     1  UNL1        0.0215
     27 C         -13.4671  -17.7362   23.5546 C.3     1  UNL1        0.0035
     28 C         -12.5230  -18.6464   24.2826 C.3     1  UNL1        0.0215
     29 C         -11.0632  -18.3093   24.3562 C.3     1  UNL1        0.0908
@<TRIPOS>BOND
     1    10    11   ar
     2    11    12   ar
     3    12     9    1
     4     9     3    1
     5     3     4    1
     6     4     5    1
     7     5     6    1
     8     6     2    1
     9     2     1    1
    10     1    16    1
    11    16    17    1
    12    17    18    1
    13    18    19   ar
    14    19    20   ar
    15    20    21   ar
    16    21    24    1
    17    24    25    1
    18    25    26    1
    19    26    27    1
    20    27    28    1
    21    28    29    1
    22    21    22   ar
    23    22    23   ar
    24     6     7    1
    25     7     8    1
    26    12    13   ar
    27    13    14   ar
    28    14    10   ar
    29     8     3    1
    30    23    18   ar
    31    29    24    1
    32    14    15    1
@<TRIPOS>MOLECULE
*****
 29 32 0 0 0
SMALL
GASTEIGER

@<TRIPOS>ATOM
      1 C          -8.1059  -15.3914   27.2591 C.3     1  UNL1        0.0646
      2 C          -8.5738  -16.8012   27.0504 C.3     1  UNL1        0.0759
      3 C         -10.4491  -17.9935   23.1374 C.3     1  UNL1        0.0087
      4 C         -10.3054  -19.0021   24.2383 C.3     1  UNL1        0.0178
      5 C          -9.6803  -18.6046   25.5426 C.3     1  UNL1        0.0721
      6 N          -9.1989  -17.1986   25.7460 N.3     1  UNL1       -0.2726
      7 C          -9.3426  -16.1900   24.6451 C.3     1  UNL1        0.0721
      8 C          -9.9677  -16.5875   23.3408 C.3     1  UNL1        0.0178
      9 C         -11.0742  -18.3909   21.8330 C.3     1  UNL1        0.0475
     10 C         -11.5055  -15.7234   19.0467 C.ar    1  UNL1        0.1747
     11 N         -10.6681  -16.7301   19.7783 N.ar    1  UNL1       -0.2285
     12 C         -11.5123  -17.3373   20.8594 C.ar    1  UNL1        0.0776
     13 C         -12.8714  -16.7058   20.7959 C.ar    1  UNL1        0.0885
     14 N         -12.8672  -15.7083   19.6756 N.ar    1  UNL1       -0.3340
     15 H         -13.6251  -15.1431   19.4013 H       1  UNL1        0.1675
     16 C          -6.6464  -15.1069   27.4563 C.3     1  UNL1        0.2068
     17 O          -5.7935  -14.7162   26.2859 O.3     1  UNL1       -0.4754
     18 C          -5.5032  -15.7133   25.2035 C.ar    1  UNL1        0.1386
     19 C          -4.3473  -16.6588   25.3452 C.ar    1  UNL1        0.0382
     20 C          -4.0570  -17.6559   24.2629 C.ar    1  UNL1        0.0176
     21 C          -4.9225  -17.7075   23.0388 C.ar    1  UNL1        0.0480
     22 C          -6.0783  -16.7620   22.8971 C.ar    1  UNL1        0.0176
     23 C          -6.3687  -15.7649   23.9795 C.ar    1  UNL1        0.0382
     24 N          -4.6321  -18.7046   21.9565 N.pl3   1  UNL1       -0.3075
     25 C          -3.2939  -18.7076   21.2788 C.3     1  UNL1        0.0908
     26 C          -3.0035  -19.7046   20.1965 C.3     1  UNL1        0.0215
     27 C          -4.0513  -20.6987   19.7917 C.3     1  UNL1        0.0035
     28 C          -5.3895  -20.6957   20.4693 C.3     1  UNL1        0.0215
     29 C          -5.6800  -19.6986   21.5517 C.3     1  UNL1        0.0908
@<TRIPOS>BOND
     1    10    11   ar
     2    11    12   ar
     3    12     9    1
     4     9     3    1
     5     3     4    1
     6     4     5    1
     7     5     6    1
     8     6     2    1
     9     2     1    1
    10     1    16    1
    11    16    17    1
    12    17    18    1
    13    18    19   ar
    14    19    20   ar
    15    20    21   ar
    16    21    24    1
    17    24    25    1
    18    25    26    1
    19    26    27    1
    20    27    28    1
    21    28    29    1
    22    21    22   ar
    23    22    23   ar
    24     6     7    1
    25     7     8    1
    26    12    13   ar
    27    13    14   ar
    28    14    10   ar
    29     8     3    1
    30    23    18   ar
    31    29    24    1
    32    14    15    1
@<TRIPOS>MOLECULE
*****
 29 32 0 0 0
SMALL
GASTEIGER

@<TRIPOS>ATOM
      1 C          -5.9223  -15.8568   26.8913 C.3     1  UNL1        0.0646
      2 C          -5.6671  -15.3960   25.4868 C.3     1  UNL1        0.0759
      3 C          -4.0693  -18.2829   22.4270 C.3     1  UNL1        0.0087
      4 C          -5.5084  -17.8624   22.3817 C.3     1  UNL1        0.0178
      5 C          -6.0410  -16.9001   23.4016 C.3     1  UNL1        0.0721
      6 N          -5.1344  -16.3584   24.4669 N.3     1  UNL1       -0.2726
      7 C          -3.6953  -16.7789   24.5122 C.3     1  UNL1        0.0721
      8 C          -3.1628  -17.7412   23.4922 C.3     1  UNL1        0.0178
      9 C          -3.5367  -19.2452   21.4070 C.3     1  UNL1        0.0475
     10 C          -0.2488  -18.2510   19.5996 C.ar    1  UNL1        0.1747
     11 N          -0.9842  -18.7053   20.8255 N.ar    1  UNL1       -0.2285
     12 C          -2.4386  -18.8212   20.4773 C.ar    1  UNL1        0.0776
     13 C          -2.6021  -18.4385   19.0362 C.ar    1  UNL1        0.0885
     14 N          -1.2488  -18.0861   18.4937 N.ar    1  UNL1       -0.3340
     15 H          -1.0515  -17.7973   17.5734 H       1  UNL1        0.1675
     16 C          -7.1075  -15.3348   27.6482 C.3     1  UNL1        0.2068
     17 O          -8.4423  -16.0041   27.5059 O.3     1  UNL1       -0.4754
     18 C          -8.9010  -16.4842   26.1610 C.ar    1  UNL1        0.1386
     19 C          -8.9634  -15.5301   25.0052 C.ar    1  UNL1        0.0382
     20 C          -9.4221  -16.0102   23.6602 C.ar    1  UNL1        0.0176
     21 C          -9.8183  -17.4445   23.4709 C.ar    1  UNL1        0.0480
     22 C          -9.7559  -18.3987   24.6266 C.ar    1  UNL1        0.0176
     23 C          -9.2972  -17.9185   25.9717 C.ar    1  UNL1        0.0382
     24 N         -10.2770  -17.9247   22.1259 N.pl3   1  UNL1       -0.3075
     25 C         -10.9386  -16.9718   21.1749 C.3     1  UNL1        0.0908
     26 C         -11.3973  -17.4520   19.8299 C.3     1  UNL1        0.0215
     27 C         -11.1943  -18.8850   19.4358 C.3     1  UNL1        0.0035
     28 C         -10.5327  -19.8378   20.3867 C.3     1  UNL1        0.0215
     29 C         -10.0740  -19.3577   21.7318 C.3     1  UNL1        0.0908
@<TRIPOS>BOND
     1    10    11   ar
     2    11    12   ar
     3    12     9    1
     4     9     3    1
     5     3     4    1
     6     4     5    1
     7     5     6    1
     8     6     2    1
     9     2     1    1
    10     1    16    1
    11    16    17    1
    12    17    18    1
    13    18    19   ar
    14    19    20   ar
    15    20    21   ar
    16    21    24    1
    17    24    25    1
    18    25    26    1
    19    26    27    1
    20    27    28    1
    21    28    29    1
    22    21    22   ar
    23    22    23   ar
    24     6     7    1
    25     7     8    1
    26    12    13   ar
    27    13    14   ar
    28    14    10   ar
    29     8     3    1
    30    23    18   ar
    31    29    24    1
    32    14    15    1
@<TRIPOS>MOLECULE
*****
 29 32 0 0 0
SMALL
GASTEIGER

@<TRIPOS>ATOM
      1 C          -6.7509  -15.8273   27.3649 C.3     1  UNL1        0.0646
      2 C          -5.8086  -15.1720   26.3992 C.3     1  UNL1        0.0759
      3 C          -3.4630  -17.6804   23.4913 C.3     1  UNL1        0.0087
      4 C          -4.2995  -16.5395   22.9929 C.3     1  UNL1        0.0178
      5 C          -5.0813  -15.7034   23.9622 C.3     1  UNL1        0.0721
      6 N          -5.0267  -16.0082   25.4299 N.3     1  UNL1       -0.2726
      7 C          -4.1902  -17.1492   25.9283 C.3     1  UNL1        0.0721
      8 C          -3.4083  -17.9853   24.9590 C.3     1  UNL1        0.0178
      9 C          -2.6810  -18.5166   22.5220 C.3     1  UNL1        0.0475
     10 C          -2.7852  -17.4550   18.7901 C.ar    1  UNL1        0.1747
     11 N          -3.4420  -18.0427   20.0038 N.ar    1  UNL1       -0.2285
     12 C          -2.4459  -18.0231   21.1252 C.ar    1  UNL1        0.0776
     13 C          -1.1735  -17.4231   20.6046 C.ar    1  UNL1        0.0885
     14 N          -1.3831  -17.0720   19.1614 N.ar    1  UNL1       -0.3340
     15 H          -0.7174  -16.6622   18.5629 H       1  UNL1        0.1675
     16 C          -8.2183  -15.5219   27.3052 C.3     1  UNL1        0.2068
     17 O          -8.8273  -15.0131   26.0324 O.3     1  UNL1       -0.4754
     18 C          -8.8596  -15.8879   24.8143 C.ar    1  UNL1        0.1386
     19 C          -9.2923  -17.3195   24.9303 C.ar    1  UNL1        0.0382
     20 C          -9.3246  -18.1942   23.7123 C.ar    1  UNL1        0.0176
     21 C          -8.9242  -17.6375   22.3782 C.ar    1  UNL1        0.0480
     22 C          -8.4915  -16.2060   22.2622 C.ar    1  UNL1        0.0176
     23 C          -8.4592  -15.3312   23.4803 C.ar    1  UNL1        0.0382
     24 N          -8.9565  -18.5123   21.1602 N.pl3   1  UNL1       -0.3075
     25 C         -10.2439  -18.7179   20.4183 C.3     1  UNL1        0.0908
     26 C         -10.2762  -19.5927   19.2003 C.3     1  UNL1        0.0215
     27 C          -9.0211  -20.2619   18.7241 C.3     1  UNL1        0.0035
     28 C          -7.7337  -20.0564   19.4659 C.3     1  UNL1        0.0215
     29 C          -7.7014  -19.1816   20.6840 C.3     1  UNL1        0.0908
@<TRIPOS>BOND
     1    10    11   ar
     2    11    12   ar
     3    12     9    1
     4     9     3    1
     5     3     4    1
     6     4     5    1
     7     5     6    1
     8     6     2    1
     9     2     1    1
    10     1    16    1
    11    16    17    1
    12    17    18    1
    13    18    19   ar
    14    19    20   ar
    15    20    21   ar
    16    21    24    1
    17    24    25    1
    18    25    26    1
    19    26    27    1
    20    27    28    1
    21    28    29    1
    22    21    22   ar
    23    22    23   ar
    24     6     7    1
    25     7     8    1
    26    12    13   ar
    27    13    14   ar
    28    14    10   ar
    29     8     3    1
    30    23    18   ar
    31    29    24    1
    32    14    15    1
@<TRIPOS>MOLECULE
*****
 29 32 0 0 0
SMALL
GASTEIGER

@<TRIPOS>ATOM
      1 C         -11.5717  -18.3342   19.9157 C.3     1  UNL1        0.0646
      2 C         -11.8577  -17.2977   20.9615 C.3     1  UNL1        0.0759
      3 C          -8.4776  -15.4776   23.3093 C.3     1  UNL1        0.0087
      4 C          -9.5623  -16.2326   24.0188 C.3     1  UNL1        0.0178
      5 C         -10.6890  -16.8393   23.2362 C.3     1  UNL1        0.0721
      6 N         -10.7310  -16.6910   21.7441 N.3     1  UNL1       -0.2726
      7 C          -9.6463  -15.9360   21.0346 C.3     1  UNL1        0.0721
      8 C          -8.5196  -15.3293   21.8172 C.3     1  UNL1        0.0178
      9 C          -7.3509  -14.8709   24.0919 C.3     1  UNL1        0.0475
     10 C          -7.4192  -15.8829   27.8384 C.ar    1  UNL1        0.1747
     11 N          -8.1108  -15.3927   26.6009 N.ar    1  UNL1       -0.2285
     12 C          -7.0932  -15.3136   25.5017 C.ar    1  UNL1        0.0776
     13 C          -5.7727  -15.7549   26.0599 C.ar    1  UNL1        0.0885
     14 N          -5.9741  -16.1068   27.5040 N.ar    1  UNL1       -0.3340
     15 H          -5.2799  -16.4282   28.1236 H       1  UNL1        0.1675
     16 C         -10.9511  -19.6427   20.3065 C.3     1  UNL1        0.2068
     17 O         -10.0240  -19.7112   21.4836 O.3     1  UNL1       -0.4754
     18 C          -8.5524  -19.4917   21.2930 C.ar    1  UNL1        0.1386
     19 C          -7.6861  -19.1523   22.4696 C.ar    1  UNL1        0.0382
     20 C          -6.2146  -18.9327   22.2790 C.ar    1  UNL1        0.0176
     21 C          -5.6093  -19.0525   20.9118 C.ar    1  UNL1        0.0480
     22 C          -6.4756  -19.3919   19.7352 C.ar    1  UNL1        0.0176
     23 C          -7.9472  -19.6115   19.9258 C.ar    1  UNL1        0.0382
     24 N          -4.1378  -18.8329   20.7212 N.pl3   1  UNL1       -0.3075
     25 C          -3.5877  -18.5888   19.3472 C.3     1  UNL1        0.0908
     26 C          -2.1162  -18.3692   19.1565 C.3     1  UNL1        0.0215
     27 C          -1.1947  -18.3938   20.3399 C.3     1  UNL1        0.0035
     28 C          -1.7447  -18.6379   21.7138 C.3     1  UNL1        0.0215
     29 C          -3.2163  -18.8575   21.9045 C.3     1  UNL1        0.0908
@<TRIPOS>BOND
     1    10    11   ar
     2    11    12   ar
     3    12     9    1
     4     9     3    1
     5     3     4    1
     6     4     5    1
     7     5     6    1
     8     6     2    1
     9     2     1    1
    10     1    16    1
    11    16    17    1
    12    17    18    1
    13    18    19   ar
    14    19    20   ar
    15    20    21   ar
    16    21    24    1
    17    24    25    1
    18    25    26    1
    19    26    27    1
    20    27    28    1
    21    28    29    1
    22    21    22   ar
    23    22    23   ar
    24     6     7    1
    25     7     8    1
    26    12    13   ar
    27    13    14   ar
    28    14    10   ar
    29     8     3    1
    30    23    18   ar
    31    29    24    1
    32    14    15    1
@<TRIPOS>MOLECULE
*****
 29 32 0 0 0
SMALL
GASTEIGER

@<TRIPOS>ATOM
      1 C           7.8506   -2.9041   20.3561 C.3     1  UNL1        0.0646
      2 C           7.5417   -2.3253   19.0072 C.3     1  UNL1        0.0759
      3 C           4.0069    0.4107   18.4885 C.3     1  UNL1        0.0087
      4 C           4.0672   -0.8870   17.7387 C.3     1  UNL1        0.0178
      5 C           5.2455   -1.7990   17.9116 C.3     1  UNL1        0.0721
      6 N           6.3634   -1.4133   18.8343 N.3     1  UNL1       -0.2726
      7 C           6.3031   -0.1156   19.5841 C.3     1  UNL1        0.0721
      8 C           5.1248    0.7964   19.4112 C.3     1  UNL1        0.0178
      9 C           2.8286    1.3227   18.3156 C.3     1  UNL1        0.0475
     10 C          -0.1675    1.7697   20.7423 C.ar    1  UNL1        0.1747
     11 N           0.9549    2.3407   19.9274 N.ar    1  UNL1       -0.2285
     12 C           1.6484    1.2057   19.2341 C.ar    1  UNL1        0.0776
     13 C           0.9547   -0.0668   19.6205 C.ar    1  UNL1        0.0885
     14 N          -0.1677    0.2817   20.5526 N.ar    1  UNL1       -0.3340
     15 H          -0.7943   -0.3545   20.9672 H       1  UNL1        0.1675
     16 C           7.2003   -4.1844   20.7897 C.3     1  UNL1        0.2068
     17 O           5.7115   -4.2489   20.9611 O.3     1  UNL1       -0.4754
     18 C           5.0140   -3.2534   21.8399 C.ar    1  UNL1        0.1386
     19 C           5.3563   -3.1706   23.2980 C.ar    1  UNL1        0.0382
     20 C           4.6588   -2.1752   24.1769 C.ar    1  UNL1        0.0176
     21 C           3.6188   -1.2624   23.5977 C.ar    1  UNL1        0.0480
     22 C           3.2765   -1.3452   22.1396 C.ar    1  UNL1        0.0176
     23 C           3.9741   -2.3407   21.2607 C.ar    1  UNL1        0.0382
     24 N           2.9213   -0.2670   24.4765 N.pl3   1  UNL1       -0.3075
     25 C           1.8834    0.6477   23.8967 C.3     1  UNL1        0.0908
     26 C           1.1858    1.6432   24.7755 C.3     1  UNL1        0.0215
     27 C           1.5261    1.7241   26.2342 C.3     1  UNL1        0.0035
     28 C           2.5639    0.8094   26.8140 C.3     1  UNL1        0.0215
     29 C           3.2616   -0.1861   25.9351 C.3     1  UNL1        0.0908
@<TRIPOS>BOND
     1    10    11   ar
     2    11    12   ar
     3    12     9    1
     4     9     3    1
     5     3     4    1
     6     4     5    1
     7     5     6    1
     8     6     2    1
     9     2     1    1
    10     1    16    1
    11    16    17    1
    12    17    18    1
    13    18    19   ar
    14    19    20   ar
    15    20    21   ar
    16    21    24    1
    17    24    25    1
    18    25    26    1
    19    26    27    1
    20    27    28    1
    21    28    29    1
    22    21    22   ar
    23    22    23   ar
    24     6     7    1
    25     7     8    1
    26    12    13   ar
    27    13    14   ar
    28    14    10   ar
    29     8     3    1
    30    23    18   ar
    31    29    24    1
    32    14    15    1
