@<TRIPOS>MOLECULE
*****
 28 31 0 0 0
SMALL
GASTEIGER

@<TRIPOS>ATOM
      1 N           7.0315   -4.7072   24.7007 N.pl3   1  UNL1       -0.2782
      2 C           6.0612   -3.5686   24.5910 C.3     1  UNL1        0.0936
      3 C           6.0239   -3.1279   23.1577 C.3     1  UNL1        0.0218
      4 C           5.4011   -2.1519   22.2040 C.3     1  UNL1        0.0061
      5 C           5.9635   -2.4148   20.8385 C.3     1  UNL1        0.0224
      6 C           6.9339   -3.5534   20.9483 C.3     1  UNL1        0.0061
      7 C           6.9712   -3.9941   22.3816 C.3     1  UNL1        0.0218
      8 C           7.5940   -4.9701   23.3352 C.3     1  UNL1        0.0936
      9 C           9.2928   -8.7502   27.0546 C.3     1  UNL1        0.0522
     10 C           8.5092   -7.4735   27.1326 C.ar    1  UNL1        0.0638
     11 C           8.0727   -6.9417   28.4655 C.ar    1  UNL1        0.0351
     12 CA          7.2891   -5.6650   28.5434 C.ar    1  UNL1        0.0993
     13 N           6.9421   -4.9202   27.2885 N.ar    1  UNL1       -0.2125
     14 C           7.3786   -5.4520   25.9556 C.ar    1  UNL1        0.2198
     15 N           8.1622   -6.7287   25.8776 N.ar    1  UNL1       -0.2180
     16 C           6.8525   -5.1332   29.8763 C.2     1  UNL1        0.0906
     17 O           6.4839   -3.6865   30.0222 O.co2   1  UNL1       -0.5430
     18 OXT         6.7846   -6.0478   31.0632 O.co2   1  UNL1       -0.5430
     19 C           5.6164   -1.6700   19.5837 C.ar    1  UNL1       -0.0186
     20 C           6.3686   -0.4247   19.2183 C.ar    1  UNL1       -0.0043
     21 C           6.0216    0.3202   17.9633 C.ar    1  UNL1       -0.0003
     22 C           4.9224   -0.1802   17.0738 C.ar    1  UNL1       -0.0001
     23 C           4.1701   -1.4256   17.4392 C.ar    1  UNL1        0.0035
     24 C           4.5172   -2.1704   18.6941 C.ar    1  UNL1        0.0675
     25 C           3.7650   -3.4156   19.0595 C.3     1  UNL1        0.4183
     26 F           3.0128   -4.6609   19.4249 F       1  UNL1       -0.1659
     27 F           4.7705   -4.2418   18.3136 F       1  UNL1       -0.1659
     28 F           2.7595   -2.5894   19.8054 F       1  UNL1       -0.1659
@<TRIPOS>UNITY_ATOM_ATTR
17 1
charge -1
@<TRIPOS>BOND
     1     9    10    1
     2    10    11   ar
     3    11    12   ar
     4    12    16    1
     5    16    17   ar
     6    16    18   ar
     7    12    13   ar
     8    13    14   ar
     9    14     1    1
    10     1     2    1
    11     3     2    1
    12     3     4    1
    13     4     5    1
    14     5    19    1
    15    19    20   ar
    16    20    21   ar
    17    21    22   ar
    18    22    23   ar
    19    23    24   ar
    20    24    25    1
    21    25    26    1
    22    25    27    1
    23    25    28    1
    24     5     6    1
    25     7     6    1
    26     7     8    1
    27    14    15   ar
    28    15    10   ar
    29     8     1    1
    30     7     3    1
    31    24    19   ar
@<TRIPOS>MOLECULE
*****
 28 31 0 0 0
SMALL
GASTEIGER

@<TRIPOS>ATOM
      1 N           6.6218   -4.0293   25.0516 N.pl3   1  UNL1       -0.2782
      2 C           7.1661   -4.4661   23.7238 C.3     1  UNL1        0.0936
      3 C           6.6054   -3.5564   22.6712 C.3     1  UNL1        0.0218
      4 C           6.5952   -3.2641   21.1999 C.3     1  UNL1        0.0061
      5 C           5.6982   -2.0845   20.9678 C.3     1  UNL1        0.0224
      6 C           5.1539   -1.6478   22.2957 C.3     1  UNL1        0.0061
      7 C           5.7146   -2.5574   23.3483 C.3     1  UNL1        0.0218
      8 C           5.7248   -2.8497   24.8195 C.3     1  UNL1        0.0936
      9 C           6.6827   -3.7843   30.2416 C.3     1  UNL1        0.0522
     10 C           6.9524   -4.5387   28.9735 C.ar    1  UNL1        0.0638
     11 C           7.5222   -5.9250   29.0323 C.ar    1  UNL1        0.0351
     12 CA          7.7919   -6.6794   27.7642 C.ar    1  UNL1        0.0993
     13 N           7.4918   -6.0475   26.4373 N.ar    1  UNL1       -0.2125
     14 C           6.9219   -4.6612   26.3785 C.ar    1  UNL1        0.2198
     15 N           6.6522   -3.9068   27.6466 N.ar    1  UNL1       -0.2180
     16 C           8.3617   -8.0657   27.8229 C.2     1  UNL1        0.0906
     17 O           9.5348   -8.3573   28.7110 O.co2   1  UNL1       -0.5430
     18 OXT         7.7585   -9.1604   26.9935 O.co2   1  UNL1       -0.5430
     19 C           5.3981   -1.4527   19.6410 C.ar    1  UNL1       -0.0186
     20 C           6.0714   -0.1702   19.2516 C.ar    1  UNL1       -0.0043
     21 C           5.7714    0.4618   17.9247 C.ar    1  UNL1       -0.0003
     22 C           4.7978   -0.1888   16.9872 C.ar    1  UNL1       -0.0001
     23 C           4.1244   -1.4714   17.3766 C.ar    1  UNL1        0.0035
     24 C           4.4245   -2.1033   18.7034 C.ar    1  UNL1        0.0675
     25 C           3.7511   -3.3858   19.0929 C.3     1  UNL1        0.4183
     26 F           3.0777   -4.6683   19.4823 F       1  UNL1       -0.1659
     27 F           2.6722   -2.6086   19.7871 F       1  UNL1       -0.1659
     28 F           4.8299   -4.1631   18.3986 F       1  UNL1       -0.1659
@<TRIPOS>UNITY_ATOM_ATTR
17 1
charge -1
@<TRIPOS>BOND
     1     9    10    1
     2    10    11   ar
     3    11    12   ar
     4    12    16    1
     5    16    17   ar
     6    16    18   ar
     7    12    13   ar
     8    13    14   ar
     9    14     1    1
    10     1     2    1
    11     3     2    1
    12     3     4    1
    13     4     5    1
    14     5    19    1
    15    19    20   ar
    16    20    21   ar
    17    21    22   ar
    18    22    23   ar
    19    23    24   ar
    20    24    25    1
    21    25    26    1
    22    25    27    1
    23    25    28    1
    24     5     6    1
    25     7     6    1
    26     7     8    1
    27    14    15   ar
    28    15    10   ar
    29     8     1    1
    30     7     3    1
    31    24    19   ar
@<TRIPOS>MOLECULE
*****
 28 31 0 0 0
SMALL
GASTEIGER

@<TRIPOS>ATOM
      1 N           2.8213    1.7257   33.7079 N.pl3   1  UNL1       -0.2782
      2 C           3.4413    1.0755   32.5068 C.3     1  UNL1        0.0936
      3 C           2.6474    1.4789   31.2998 C.3     1  UNL1        0.0218
      4 C           2.5398    1.3263   29.8115 C.3     1  UNL1        0.0061
      5 C           1.3627    2.1316   29.3467 C.3     1  UNL1        0.0224
      6 C           0.7427    2.7819   30.5480 C.3     1  UNL1        0.0061
      7 C           1.5367    2.3785   31.7550 C.3     1  UNL1        0.0218
      8 C           1.6442    2.5310   33.2433 C.3     1  UNL1        0.0936
      9 C           6.3584    0.0674   37.1342 C.3     1  UNL1        0.0522
     10 C           5.0637    0.7647   36.8382 C.ar    1  UNL1        0.0638
     11 C           4.2431    1.3303   37.9592 C.ar    1  UNL1        0.0351
     12 CA          2.9484    2.0276   37.6631 C.ar    1  UNL1        0.0993
     13 N           2.4746    2.1594   36.2460 N.ar    1  UNL1       -0.2125
     14 C           3.2953    1.5939   35.1250 C.ar    1  UNL1        0.2198
     15 N           4.5899    0.8965   35.4211 N.ar    1  UNL1       -0.2180
     16 C           2.1277    2.5931   38.7840 C.2     1  UNL1        0.0906
     17 O           2.8045    3.2190   39.9673 O.co2   1  UNL1       -0.5430
     18 OXT         0.6302    2.5329   38.7217 O.co2   1  UNL1       -0.5430
     19 C           0.8888    2.2634   27.9298 C.ar    1  UNL1       -0.0186
     20 C           1.4391    3.3488   27.0528 C.ar    1  UNL1       -0.0043
     21 C           0.9652    3.4807   25.6357 C.ar    1  UNL1       -0.0003
     22 C          -0.0591    2.5272   25.0957 C.ar    1  UNL1       -0.0001
     23 C          -0.6095    1.4418   25.9727 C.ar    1  UNL1        0.0035
     24 C          -0.1356    1.3099   27.3897 C.ar    1  UNL1        0.0675
     25 C          -0.6859    0.2246   28.2667 C.3     1  UNL1        0.4183
     26 F          -1.2362   -0.8608   29.1437 F       1  UNL1       -0.1659
     27 F          -1.9540    1.0069   28.4391 F       1  UNL1       -0.1659
     28 F           0.5822   -0.5578   28.0942 F       1  UNL1       -0.1659
@<TRIPOS>UNITY_ATOM_ATTR
17 1
charge -1
@<TRIPOS>BOND
     1     9    10    1
     2    10    11   ar
     3    11    12   ar
     4    12    16    1
     5    16    17   ar
     6    16    18   ar
     7    12    13   ar
     8    13    14   ar
     9    14     1    1
    10     1     2    1
    11     3     2    1
    12     3     4    1
    13     4     5    1
    14     5    19    1
    15    19    20   ar
    16    20    21   ar
    17    21    22   ar
    18    22    23   ar
    19    23    24   ar
    20    24    25    1
    21    25    26    1
    22    25    27    1
    23    25    28    1
    24     5     6    1
    25     7     6    1
    26     7     8    1
    27    14    15   ar
    28    15    10   ar
    29     8     1    1
    30     7     3    1
    31    24    19   ar
@<TRIPOS>MOLECULE
*****
 28 31 0 0 0
SMALL
GASTEIGER

@<TRIPOS>ATOM
      1 N           2.0295    3.0999   33.6682 N.pl3   1  UNL1       -0.2782
      2 C           2.5927    1.9467   32.8917 C.3     1  UNL1        0.0936
      3 C           2.1271    2.0727   31.4714 C.3     1  UNL1        0.0218
      4 C           2.1874    1.4378   30.1138 C.3     1  UNL1        0.0061
      5 C           1.3737    2.2765   29.1732 C.3     1  UNL1        0.0224
      6 C           0.8104    3.4298   29.9497 C.3     1  UNL1        0.0061
      7 C           1.2761    3.3038   31.3700 C.3     1  UNL1        0.0218
      8 C           1.2158    3.9387   32.7277 C.3     1  UNL1        0.0936
      9 C           3.0892    6.4128   37.5284 C.3     1  UNL1        0.0522
     10 C           2.7724    5.0239   37.0588 C.ar    1  UNL1        0.0638
     11 C           2.6687    3.9025   38.0497 C.ar    1  UNL1        0.0351
     12 CA          2.3520    2.5136   37.5800 C.ar    1  UNL1        0.0993
     13 N           2.1389    2.2461   36.1195 N.ar    1  UNL1       -0.2125
     14 C           2.2426    3.3675   35.1286 C.ar    1  UNL1        0.2198
     15 N           2.5593    4.7564   35.5983 N.ar    1  UNL1       -0.2180
     16 C           2.2483    1.3922   38.5708 C.2     1  UNL1        0.0906
     17 O           0.9512    0.6580   38.7394 O.co2   1  UNL1       -0.5430
     18 OXT         3.4416    1.0050   39.3930 O.co2   1  UNL1       -0.5430
     19 C           1.1606    2.0090   27.7128 C.ar    1  UNL1       -0.0186
     20 C           2.1427    2.5269   26.7043 C.ar    1  UNL1       -0.0043
     21 C           1.9297    2.2594   25.2438 C.ar    1  UNL1       -0.0003
     22 C           0.7344    1.4739   24.7918 C.ar    1  UNL1       -0.0001
     23 C          -0.2478    0.9559   25.8004 C.ar    1  UNL1        0.0035
     24 C          -0.0348    1.2235   27.2608 C.ar    1  UNL1        0.0675
     25 C          -1.0169    0.7055   28.2693 C.3     1  UNL1        0.4183
     26 F          -1.9991    0.1876   29.2778 F       1  UNL1       -0.1659
     27 F          -1.9232    1.8659   27.9826 F       1  UNL1       -0.1659
     28 F          -0.1106   -0.4548   28.5559 F       1  UNL1       -0.1659
@<TRIPOS>UNITY_ATOM_ATTR
17 1
charge -1
@<TRIPOS>BOND
     1     9    10    1
     2    10    11   ar
     3    11    12   ar
     4    12    16    1
     5    16    17   ar
     6    16    18   ar
     7    12    13   ar
     8    13    14   ar
     9    14     1    1
    10     1     2    1
    11     3     2    1
    12     3     4    1
    13     4     5    1
    14     5    19    1
    15    19    20   ar
    16    20    21   ar
    17    21    22   ar
    18    22    23   ar
    19    23    24   ar
    20    24    25    1
    21    25    26    1
    22    25    27    1
    23    25    28    1
    24     5     6    1
    25     7     6    1
    26     7     8    1
    27    14    15   ar
    28    15    10   ar
    29     8     1    1
    30     7     3    1
    31    24    19   ar
@<TRIPOS>MOLECULE
*****
 28 31 0 0 0
SMALL
GASTEIGER

@<TRIPOS>ATOM
      1 N           2.8234   -0.3266   23.0716 N.pl3   1  UNL1       -0.2782
      2 C           1.7998    0.7309   23.3611 C.3     1  UNL1        0.0936
      3 C           1.8268    1.0111   24.8344 C.3     1  UNL1        0.0218
      4 C           1.2109    1.8379   25.9239 C.3     1  UNL1        0.0061
      5 C           1.8705    1.4645   27.2184 C.3     1  UNL1        0.0224
      6 C           2.8941    0.4069   26.9288 C.3     1  UNL1        0.0061
      7 C           2.8671    0.1267   25.4555 C.3     1  UNL1        0.0218
      8 C           3.4830   -0.7001   24.3660 C.3     1  UNL1        0.0936
      9 C           2.9276    0.1143   17.8952 C.3     1  UNL1        0.0522
     10 C           3.1851   -0.6882   19.1360 C.ar    1  UNL1        0.0638
     11 C           3.7523   -2.0727   19.0295 C.ar    1  UNL1        0.0351
     12 CA          4.0099   -2.8753   20.2703 C.ar    1  UNL1        0.0993
     13 N           3.7002   -2.2932   21.6176 N.ar    1  UNL1       -0.2125
     14 C           3.1330   -0.9086   21.7242 C.ar    1  UNL1        0.2198
     15 N           2.8755   -0.1061   20.4834 N.ar    1  UNL1       -0.2180
     16 C           4.5771   -4.2598   20.1638 C.2     1  UNL1        0.0906
     17 O           6.0623   -4.4666   20.1999 O.co2   1  UNL1       -0.5430
     18 OXT         3.6591   -5.4375   20.0213 O.co2   1  UNL1       -0.5430
     19 C           1.5609    2.0465   28.5657 C.ar    1  UNL1       -0.0186
     20 C           2.3519    3.2133   29.0785 C.ar    1  UNL1       -0.0043
     21 C           2.0423    3.7953   30.4259 C.ar    1  UNL1       -0.0003
     22 C           0.9417    3.2105   31.2605 C.ar    1  UNL1       -0.0001
     23 C           0.1507    2.0436   30.7477 C.ar    1  UNL1        0.0035
     24 C           0.4603    1.4616   29.4004 C.ar    1  UNL1        0.0675
     25 C          -0.3307    0.2948   28.8877 C.3     1  UNL1        0.4183
     26 F          -1.1216   -0.8720   28.3749 F       1  UNL1       -0.1659
     27 F           0.6912   -0.6464   29.4532 F       1  UNL1       -0.1659
     28 F          -1.3526    1.2361   28.3222 F       1  UNL1       -0.1659
@<TRIPOS>UNITY_ATOM_ATTR
17 1
charge -1
@<TRIPOS>BOND
     1     9    10    1
     2    10    11   ar
     3    11    12   ar
     4    12    16    1
     5    16    17   ar
     6    16    18   ar
     7    12    13   ar
     8    13    14   ar
     9    14     1    1
    10     1     2    1
    11     3     2    1
    12     3     4    1
    13     4     5    1
    14     5    19    1
    15    19    20   ar
    16    20    21   ar
    17    21    22   ar
    18    22    23   ar
    19    23    24   ar
    20    24    25    1
    21    25    26    1
    22    25    27    1
    23    25    28    1
    24     5     6    1
    25     7     6    1
    26     7     8    1
    27    14    15   ar
    28    15    10   ar
    29     8     1    1
    30     7     3    1
    31    24    19   ar
@<TRIPOS>MOLECULE
*****
 28 31 0 0 0
SMALL
GASTEIGER

@<TRIPOS>ATOM
      1 N           5.8593   -3.8856   23.5293 N.pl3   1  UNL1       -0.2782
      2 C           5.1610   -2.6838   24.0933 C.3     1  UNL1        0.0936
      3 C           4.3832   -2.0374   22.9855 C.3     1  UNL1        0.0218
      4 C           3.4709   -0.8951   22.6494 C.3     1  UNL1        0.0061
      5 C           3.1247   -0.9914   21.1930 C.3     1  UNL1        0.0224
      6 C           3.8231   -2.1932   20.6291 C.3     1  UNL1        0.0061
      7 C           4.6008   -2.8396   21.7368 C.3     1  UNL1        0.0218
      8 C           5.5131   -3.9819   22.0729 C.3     1  UNL1        0.0936
      9 C           9.4893   -7.6033   23.5669 C.3     1  UNL1        0.0522
     10 C           8.5628   -6.6849   24.3072 C.ar    1  UNL1        0.0638
     11 C           8.5249   -6.7068   25.8065 C.ar    1  UNL1        0.0351
     12 CA          7.5984   -5.7883   26.5468 C.ar    1  UNL1        0.0993
     13 N           6.7099   -4.8479   25.7877 N.ar    1  UNL1       -0.2125
     14 C           6.7478   -4.8260   24.2883 C.ar    1  UNL1        0.2198
     15 N           7.6743   -5.7445   23.5480 N.ar    1  UNL1       -0.2180
     16 C           7.5604   -5.8101   28.0461 C.2     1  UNL1        0.0906
     17 O           6.3037   -5.4274   28.7701 O.co2   1  UNL1       -0.5430
     18 OXT         8.7791   -6.2147   28.8215 O.co2   1  UNL1       -0.5430
     19 C           2.2362   -0.0510   20.4340 C.ar    1  UNL1       -0.0186
     20 C           0.8634    0.2645   20.9497 C.ar    1  UNL1       -0.0043
     21 C          -0.0252    1.2049   20.1906 C.ar    1  UNL1       -0.0003
     22 C           0.4591    1.8298   18.9159 C.ar    1  UNL1       -0.0001
     23 C           1.8319    1.5142   18.4001 C.ar    1  UNL1        0.0035
     24 C           2.7204    0.5739   19.1592 C.ar    1  UNL1        0.0675
     25 C           4.0932    0.2583   18.6435 C.3     1  UNL1        0.4183
     26 F           5.4659   -0.0572   18.1278 F       1  UNL1       -0.1659
     27 F           3.5035   -0.7229   17.6742 F       1  UNL1       -0.1659
     28 F           4.6828    1.2395   19.6128 F       1  UNL1       -0.1659
@<TRIPOS>UNITY_ATOM_ATTR
17 1
charge -1
@<TRIPOS>BOND
     1     9    10    1
     2    10    11   ar
     3    11    12   ar
     4    12    16    1
     5    16    17   ar
     6    16    18   ar
     7    12    13   ar
     8    13    14   ar
     9    14     1    1
    10     1     2    1
    11     3     2    1
    12     3     4    1
    13     4     5    1
    14     5    19    1
    15    19    20   ar
    16    20    21   ar
    17    21    22   ar
    18    22    23   ar
    19    23    24   ar
    20    24    25    1
    21    25    26    1
    22    25    27    1
    23    25    28    1
    24     5     6    1
    25     7     6    1
    26     7     8    1
    27    14    15   ar
    28    15    10   ar
    29     8     1    1
    30     7     3    1
    31    24    19   ar
@<TRIPOS>MOLECULE
*****
 28 31 0 0 0
SMALL
GASTEIGER

@<TRIPOS>ATOM
      1 N           0.8931    1.4395   19.8764 N.pl3   1  UNL1       -0.2782
      2 C           1.1225    0.5450   21.0584 C.3     1  UNL1        0.0936
      3 C           2.4298   -0.1624   20.8575 C.3     1  UNL1        0.0218
      4 C           3.3796   -1.1524   21.4640 C.3     1  UNL1        0.0061
      5 C           4.5453   -1.3070   20.5326 C.3     1  UNL1        0.0224
      6 C           4.3158   -0.4125   19.3505 C.3     1  UNL1        0.0061
      7 C           3.0084    0.2949   19.5513 C.3     1  UNL1        0.0218
      8 C           2.0586    1.2849   18.9449 C.3     1  UNL1        0.0936
      9 C          -1.7674    4.7506   16.8832 C.3     1  UNL1        0.0522
     10 C          -1.6238    3.9874   18.1666 C.ar    1  UNL1        0.0638
     11 C          -2.6670    4.1167   19.2367 C.ar    1  UNL1        0.0351
     12 CA         -2.5234    3.3536   20.5201 C.ar    1  UNL1        0.0993
     13 N          -1.3367    2.4612   20.7332 N.ar    1  UNL1       -0.2125
     14 C          -0.2936    2.3319   19.6631 C.ar    1  UNL1        0.2198
     15 N          -0.4371    3.0950   18.3798 N.ar    1  UNL1       -0.2180
     16 C          -3.5665    3.4828   21.5902 C.2     1  UNL1        0.0906
     17 O          -3.4508    4.5639   22.6235 O.co2   1  UNL1       -0.5430
     18 OXT        -4.7252    2.5309   21.6271 O.co2   1  UNL1       -0.5430
     19 C           5.7318   -2.1994   20.7458 C.ar    1  UNL1       -0.0186
     20 C           6.9460   -1.6762   21.4543 C.ar    1  UNL1       -0.0043
     21 C           8.1328   -2.5686   21.6675 C.ar    1  UNL1       -0.0003
     22 C           8.1052   -3.9842   21.1722 C.ar    1  UNL1       -0.0001
     23 C           6.8910   -4.5074   20.4636 C.ar    1  UNL1        0.0035
     24 C           5.7044   -3.6150   20.2504 C.ar    1  UNL1        0.0675
     25 C           4.4902   -4.1382   19.5419 C.3     1  UNL1        0.4183
     26 F           3.2760   -4.6614   18.8334 F       1  UNL1       -0.1659
     27 F           5.0535   -3.6720   18.2323 F       1  UNL1       -0.1659
     28 F           3.9268   -4.6044   20.8516 F       1  UNL1       -0.1659
@<TRIPOS>UNITY_ATOM_ATTR
17 1
charge -1
@<TRIPOS>BOND
     1     9    10    1
     2    10    11   ar
     3    11    12   ar
     4    12    16    1
     5    16    17   ar
     6    16    18   ar
     7    12    13   ar
     8    13    14   ar
     9    14     1    1
    10     1     2    1
    11     3     2    1
    12     3     4    1
    13     4     5    1
    14     5    19    1
    15    19    20   ar
    16    20    21   ar
    17    21    22   ar
    18    22    23   ar
    19    23    24   ar
    20    24    25    1
    21    25    26    1
    22    25    27    1
    23    25    28    1
    24     5     6    1
    25     7     6    1
    26     7     8    1
    27    14    15   ar
    28    15    10   ar
    29     8     1    1
    30     7     3    1
    31    24    19   ar
@<TRIPOS>MOLECULE
*****
 28 31 0 0 0
SMALL
GASTEIGER

@<TRIPOS>ATOM
      1 N         -15.0681   -0.5899   19.2764 N.pl3   1  UNL1       -0.2782
      2 C         -15.1151   -1.8497   20.0894 C.3     1  UNL1        0.0936
      3 C         -14.0160   -2.7513   19.6109 C.3     1  UNL1        0.0218
      4 C         -13.3656   -4.0871   19.8176 C.3     1  UNL1        0.0061
      5 C         -12.2374   -4.2102   18.8368 C.3     1  UNL1        0.0224
      6 C         -12.1905   -2.9504   18.0239 C.3     1  UNL1        0.0061
      7 C         -13.2896   -2.0488   18.5023 C.3     1  UNL1        0.0218
      8 C         -13.9400   -0.7130   18.2956 C.3     1  UNL1        0.0936
      9 C         -17.1376    3.7654   17.3405 C.3     1  UNL1        0.0522
     10 C         -17.0226    2.7640   18.4513 C.ar    1  UNL1        0.0638
     11 C         -17.8274    2.9390   19.7050 C.ar    1  UNL1        0.0351
     12 CA        -17.7125    1.9376   20.8158 C.ar    1  UNL1        0.0993
     13 N         -16.7927    0.7613   20.6729 N.ar    1  UNL1       -0.2125
     14 C         -15.9879    0.5864   19.4193 C.ar    1  UNL1        0.2198
     15 N         -16.1029    1.5877   18.3084 N.ar    1  UNL1       -0.2180
     16 C         -18.5172    2.1124   22.0695 C.2     1  UNL1        0.0906
     17 O         -19.9726    2.4654   21.9834 O.co2   1  UNL1       -0.5430
     18 OXT       -17.8667    1.9343   23.4093 O.co2   1  UNL1       -0.5430
     19 C         -11.3177   -5.3864   18.6940 C.ar    1  UNL1       -0.0186
     20 C          -9.9513   -5.3494   19.3117 C.ar    1  UNL1       -0.0043
     21 C          -9.0315   -6.5257   19.1689 C.ar    1  UNL1       -0.0003
     22 C          -9.4781   -7.7390   18.4083 C.ar    1  UNL1       -0.0001
     23 C         -10.8446   -7.7760   17.7905 C.ar    1  UNL1        0.0035
     24 C         -11.7643   -6.5998   17.9334 C.ar    1  UNL1        0.0675
     25 C         -13.1307   -6.6367   17.3157 C.3     1  UNL1        0.4183
     26 F         -14.4971   -6.6737   16.6980 F       1  UNL1       -0.1659
     27 F         -13.6776   -7.2653   18.5630 F       1  UNL1       -0.1659
     28 F         -12.5838   -6.0082   16.0684 F       1  UNL1       -0.1659
@<TRIPOS>UNITY_ATOM_ATTR
17 1
charge -1
@<TRIPOS>BOND
     1     9    10    1
     2    10    11   ar
     3    11    12   ar
     4    12    16    1
     5    16    17   ar
     6    16    18   ar
     7    12    13   ar
     8    13    14   ar
     9    14     1    1
    10     1     2    1
    11     3     2    1
    12     3     4    1
    13     4     5    1
    14     5    19    1
    15    19    20   ar
    16    20    21   ar
    17    21    22   ar
    18    22    23   ar
    19    23    24   ar
    20    24    25    1
    21    25    26    1
    22    25    27    1
    23    25    28    1
    24     5     6    1
    25     7     6    1
    26     7     8    1
    27    14    15   ar
    28    15    10   ar
    29     8     1    1
    30     7     3    1
    31    24    19   ar
@<TRIPOS>MOLECULE
*****
 28 31 0 0 0
SMALL
GASTEIGER

@<TRIPOS>ATOM
      1 N         -14.7607    0.3311   18.9505 N.pl3   1  UNL1       -0.2782
      2 C         -15.0743   -0.9310   19.6981 C.3     1  UNL1        0.0936
      3 C         -14.0048   -1.9343   19.3829 C.3     1  UNL1        0.0218
      4 C         -13.5377   -3.3345   19.6501 C.3     1  UNL1        0.0061
      5 C         -12.2743   -3.5580   18.8728 C.3     1  UNL1        0.0224
      6 C         -11.9607   -2.2959   18.1252 C.3     1  UNL1        0.0061
      7 C         -13.0302   -1.2925   18.4404 C.3     1  UNL1        0.0218
      8 C         -13.4974    0.1076   18.1732 C.3     1  UNL1        0.0936
      9 C         -19.0970    2.9249   17.7386 C.3     1  UNL1        0.0522
     10 C         -17.7366    2.8916   18.3698 C.ar    1  UNL1        0.0638
     11 C         -17.1842    4.1220   19.0262 C.ar    1  UNL1        0.0351
     12 CA        -15.8238    4.0888   19.6573 C.ar    1  UNL1        0.0993
     13 N         -15.0160    2.8251   19.6321 N.ar    1  UNL1       -0.2125
     14 C         -15.5685    1.5947   18.9757 C.ar    1  UNL1        0.2198
     15 N         -16.9289    1.6279   18.3445 N.ar    1  UNL1       -0.2180
     16 C         -15.2713    5.3191   20.3137 C.2     1  UNL1        0.0906
     17 O         -15.9742    6.6345   20.1536 O.co2   1  UNL1       -0.5430
     18 OXT       -14.0159    5.2341   21.1302 O.co2   1  UNL1       -0.5430
     19 C         -11.4665   -4.8215   18.8476 C.ar    1  UNL1       -0.0186
     20 C         -10.0089   -4.7870   19.1999 C.ar    1  UNL1       -0.0043
     21 C          -9.2010   -6.0506   19.1747 C.ar    1  UNL1       -0.0003
     22 C          -9.8508   -7.3488   18.7972 C.ar    1  UNL1       -0.0001
     23 C         -11.3085   -7.3833   18.4449 C.ar    1  UNL1        0.0035
     24 C         -12.1163   -6.1198   18.4701 C.ar    1  UNL1        0.0675
     25 C         -13.5739   -6.1543   18.1178 C.3     1  UNL1        0.4183
     26 F         -15.0315   -6.1888   17.7656 F       1  UNL1       -0.1659
     27 F         -13.2451   -5.7342   16.7159 F       1  UNL1       -0.1659
     28 F         -13.9028   -6.5744   19.5197 F       1  UNL1       -0.1659
@<TRIPOS>UNITY_ATOM_ATTR
17 1
charge -1
@<TRIPOS>BOND
     1     9    10    1
     2    10    11   ar
     3    11    12   ar
     4    12    16    1
     5    16    17   ar
     6    16    18   ar
     7    12    13   ar
     8    13    14   ar
     9    14     1    1
    10     1     2    1
    11     3     2    1
    12     3     4    1
    13     4     5    1
    14     5    19    1
    15    19    20   ar
    16    20    21   ar
    17    21    22   ar
    18    22    23   ar
    19    23    24   ar
    20    24    25    1
    21    25    26    1
    22    25    27    1
    23    25    28    1
    24     5     6    1
    25     7     6    1
    26     7     8    1
    27    14    15   ar
    28    15    10   ar
    29     8     1    1
    30     7     3    1
    31    24    19   ar
