@<TRIPOS>MOLECULE
*****
 20 22 0 0 0
SMALL
GASTEIGER

@<TRIPOS>ATOM
      1 C          -9.6047  -17.9263   21.2189 C.3     1  UNL1        0.1180
      2 C         -10.5740  -18.3524   20.1563 C.3     1  UNL1        0.0911
      3 N         -11.8624  -17.6061   19.9737 N.3     1  UNL1       -0.2946
      4 C         -12.1814  -16.4340   20.8536 C.3     1  UNL1        0.0903
      5 C         -11.2121  -16.0080   21.9161 C.3     1  UNL1        0.1076
      6 N          -9.9237  -16.7542   22.0987 N.pl3   1  UNL1       -0.3070
      7 H         -12.6150  -18.2828   20.1002 H       1  UNL1        0.1233
      8 C          -8.9544  -16.3282   23.1613 C.2     1  UNL1        0.0295
      9 C          -7.7156  -15.5704   22.7862 C.2     1  UNL1        0.0120
     10 C          -6.7462  -15.1444   23.8488 C.2     1  UNL1        0.0216
     11 C          -7.0159  -15.4763   25.2865 C.2     1  UNL1        0.1008
     12 N          -6.2489  -15.1904   26.5435 N.2     1  UNL1       -0.1482
     13 N          -7.0138  -15.7716   27.6955 N.2     1  UNL1       -0.1467
     14 C          -8.2535  -16.4167   27.1505 C.2     1  UNL1        0.1198
     15 C          -8.2548  -16.2341   25.6616 C.2     1  UNL1        0.0238
     16 C          -9.2241  -16.6601   24.5991 C.3     1  UNL1        0.0705
     17 C          -8.3164  -18.6725   21.4014 C.3     1  UNL1        0.1631
     18 O          -7.1124  -18.3008   20.5876 O.3     1  UNL1       -0.3520
     19 C          -6.0942  -20.6850   20.4193 C.3     1  UNL1        0.0346
     20 C          -5.9144  -19.2031   20.5653 C.3     1  UNL1        0.1423
@<TRIPOS>BOND
     1    19    20    1
     2    20    18    1
     3    18    17    1
     4    17     1    1
     5     1     2    1
     6     2     3    1
     7     3     4    1
     8     4     5    1
     9     5     6    1
    10     6     8    1
    11     8     9    2
    12     9    10    1
    13    10    11    2
    14    11    12    1
    15    12    13    2
    16    13    14    1
    17    14    15    2
    18    15    16    1
    19     6     1    1
    20    16     8    1
    21    15    11    1
    22     3     7    1
@<TRIPOS>MOLECULE
*****
 20 22 0 0 0
SMALL
GASTEIGER

@<TRIPOS>ATOM
      1 C          -9.6752  -18.0513   21.3046 C.3     1  UNL1        0.1180
      2 C         -10.6421  -18.4756   20.2392 C.3     1  UNL1        0.0911
      3 N         -11.8159  -17.6048   19.9017 N.3     1  UNL1       -0.2946
      4 C         -12.0227  -16.3096   20.6296 C.3     1  UNL1        0.0903
      5 C         -11.0558  -15.8853   21.6950 C.3     1  UNL1        0.1076
      6 N          -9.8820  -16.7562   22.0325 N.pl3   1  UNL1       -0.3070
      7 H         -12.6532  -18.1664   20.0562 H       1  UNL1        0.1233
      8 C          -8.9151  -16.3318   23.0979 C.2     1  UNL1        0.0295
      9 C          -7.6424  -15.6335   22.7206 C.2     1  UNL1        0.0120
     10 C          -6.6754  -15.2091   23.7861 C.2     1  UNL1        0.0216
     11 C          -6.9814  -15.4832   25.2287 C.2     1  UNL1        0.1008
     12 N          -6.2251  -15.1848   26.4893 N.2     1  UNL1       -0.1482
     13 N          -7.0306  -15.6987   27.6456 N.2     1  UNL1       -0.1467
     14 C          -8.2846  -16.3147   27.0997 C.2     1  UNL1        0.1198
     15 C          -8.2542  -16.1815   25.6060 C.2     1  UNL1        0.0238
     16 C          -9.2210  -16.6058   24.5405 C.3     1  UNL1        0.0705
     17 C          -8.5014  -18.9221   21.6421 C.3     1  UNL1        0.1631
     18 O          -8.6104  -19.9340   22.7440 O.3     1  UNL1       -0.3520
     19 C         -10.0552  -20.0854   24.8979 C.3     1  UNL1        0.0346
     20 C          -9.9333  -20.1824   23.4061 C.3     1  UNL1        0.1423
@<TRIPOS>BOND
     1    19    20    1
     2    20    18    1
     3    18    17    1
     4    17     1    1
     5     1     2    1
     6     2     3    1
     7     3     4    1
     8     4     5    1
     9     5     6    1
    10     6     8    1
    11     8     9    2
    12     9    10    1
    13    10    11    2
    14    11    12    1
    15    12    13    2
    16    13    14    1
    17    14    15    2
    18    15    16    1
    19     6     1    1
    20    16     8    1
    21    15    11    1
    22     3     7    1
@<TRIPOS>MOLECULE
*****
 20 22 0 0 0
SMALL
GASTEIGER

@<TRIPOS>ATOM
      1 C          -6.4573  -18.3619   22.1736 C.3     1  UNL1        0.1180
      2 C          -4.9620  -18.4536   22.2495 C.3     1  UNL1        0.0911
      3 N          -4.1907  -17.4633   23.0707 N.3     1  UNL1       -0.2946
      4 C          -4.9146  -16.3814   23.8160 C.3     1  UNL1        0.0903
      5 C          -6.4099  -16.2898   23.7401 C.3     1  UNL1        0.1076
      6 N          -7.1812  -17.2801   22.9189 N.pl3   1  UNL1       -0.3070
      7 H          -3.5393  -16.9995   22.4375 H       1  UNL1        0.1233
      8 C          -8.6765  -17.1884   22.8430 C.2     1  UNL1        0.0295
      9 C          -9.3219  -16.2560   21.8612 C.2     1  UNL1        0.0120
     10 C         -10.8172  -16.1643   21.7853 C.2     1  UNL1        0.0216
     11 C         -11.6671  -17.0052   22.6913 C.2     1  UNL1        0.1008
     12 N         -13.1542  -17.1284   22.8437 N.2     1  UNL1       -0.1482
     13 N         -13.4278  -18.1370   23.9197 N.2     1  UNL1       -0.1467
     14 C         -12.1099  -18.6371   24.4323 C.2     1  UNL1        0.1198
     15 C         -11.0216  -17.9376   23.6731 C.2     1  UNL1        0.0238
     16 C          -9.5263  -18.0292   23.7489 C.3     1  UNL1        0.0705
     17 C          -7.2286  -19.3522   21.3524 C.3     1  UNL1        0.1631
     18 O          -7.5698  -19.0394   19.9256 O.3     1  UNL1       -0.3520
     19 C         -10.1384  -19.4270   19.9660 C.3     1  UNL1        0.0346
     20 C          -8.8059  -19.6202   19.3052 C.3     1  UNL1        0.1423
@<TRIPOS>BOND
     1    19    20    1
     2    20    18    1
     3    18    17    1
     4    17     1    1
     5     1     2    1
     6     2     3    1
     7     3     4    1
     8     4     5    1
     9     5     6    1
    10     6     8    1
    11     8     9    2
    12     9    10    1
    13    10    11    2
    14    11    12    1
    15    12    13    2
    16    13    14    1
    17    14    15    2
    18    15    16    1
    19     6     1    1
    20    16     8    1
    21    15    11    1
    22     3     7    1
@<TRIPOS>MOLECULE
*****
 20 22 0 0 0
SMALL
GASTEIGER

@<TRIPOS>ATOM
      1 C          -8.1853  -18.2086   21.5667 C.3     1  UNL1        0.1180
      2 C          -9.6667  -18.1415   21.3404 C.3     1  UNL1        0.0911
      3 N         -10.2835  -18.8782   20.1886 N.3     1  UNL1       -0.2946
      4 C          -9.4191  -19.6821   19.2631 C.3     1  UNL1        0.0903
      5 C          -7.9378  -19.7492   19.4894 C.3     1  UNL1        0.1076
      6 N          -7.3210  -19.0124   20.6412 N.pl3   1  UNL1       -0.3070
      7 H         -10.7608  -18.1823   19.6156 H       1  UNL1        0.1233
      8 C          -5.8396  -19.0796   20.8675 C.2     1  UNL1        0.0295
      9 C          -5.3033  -19.4862   22.2080 C.2     1  UNL1        0.0120
     10 C          -3.8219  -19.5534   22.4343 C.2     1  UNL1        0.0216
     11 C          -2.8769  -19.2138   21.3199 C.2     1  UNL1        0.1008
     12 N          -1.3789  -19.1899   21.2466 N.2     1  UNL1       -0.1482
     13 N          -0.9895  -18.7685   19.8607 N.2     1  UNL1       -0.1467
     14 C          -2.2467  -18.5319   19.0776 C.2     1  UNL1        0.1198
     15 C          -3.4133  -18.8072   19.9794 C.2     1  UNL1        0.0238
     16 C          -4.8946  -18.7400   19.7532 C.3     1  UNL1        0.0705
     17 C          -7.5685  -17.4718   22.7184 C.3     1  UNL1        0.1631
     18 O          -7.2892  -16.0023   22.6057 O.3     1  UNL1       -0.3520
     19 C          -5.2022  -15.8666   24.1470 C.3     1  UNL1        0.0346
     20 C          -6.5110  -15.3021   23.6800 C.3     1  UNL1        0.1423
@<TRIPOS>BOND
     1    19    20    1
     2    20    18    1
     3    18    17    1
     4    17     1    1
     5     1     2    1
     6     2     3    1
     7     3     4    1
     8     4     5    1
     9     5     6    1
    10     6     8    1
    11     8     9    2
    12     9    10    1
    13    10    11    2
    14    11    12    1
    15    12    13    2
    16    13    14    1
    17    14    15    2
    18    15    16    1
    19     6     1    1
    20    16     8    1
    21    15    11    1
    22     3     7    1
@<TRIPOS>MOLECULE
*****
 20 22 0 0 0
SMALL
GASTEIGER

@<TRIPOS>ATOM
      1 C         -10.6299  -17.2325   21.2393 C.3     1  UNL1        0.1180
      2 C         -11.2521  -17.8478   20.0210 C.3     1  UNL1        0.0911
      3 N         -10.5720  -18.9910   19.3277 N.3     1  UNL1       -0.2946
      4 C          -9.2698  -19.5188   19.8528 C.3     1  UNL1        0.0903
      5 C          -8.6477  -18.9035   21.0711 C.3     1  UNL1        0.1076
      6 N          -9.3278  -17.7603   21.7644 N.pl3   1  UNL1       -0.3070
      7 H         -10.4033  -18.6941   18.3666 H       1  UNL1        0.1233
      8 C          -8.7057  -17.1450   22.9828 C.2     1  UNL1        0.0295
      9 C          -9.4442  -17.1547   24.2882 C.2     1  UNL1        0.0120
     10 C          -8.8221  -16.5393   25.5066 C.2     1  UNL1        0.0216
     11 C          -7.4613  -15.9144   25.4194 C.2     1  UNL1        0.1008
     12 N          -6.6007  -15.2363   26.4439 N.2     1  UNL1       -0.1482
     13 N          -5.3302  -14.8076   25.7715 N.2     1  UNL1       -0.1467
     14 C          -5.4056  -15.2207   24.3315 C.2     1  UNL1        0.1198
     15 C          -6.7227  -15.9047   24.1138 C.2     1  UNL1        0.0238
     16 C          -7.3449  -16.5200   22.8955 C.3     1  UNL1        0.0705
     17 C         -11.3100  -16.0893   21.9326 C.3     1  UNL1        0.1631
     18 O         -12.5396  -16.3357   22.7558 O.3     1  UNL1       -0.3520
     19 C         -13.9695  -17.9805   24.1699 C.3     1  UNL1        0.0346
     20 C         -12.9367  -17.7383   23.1095 C.3     1  UNL1        0.1423
@<TRIPOS>BOND
     1    19    20    1
     2    20    18    1
     3    18    17    1
     4    17     1    1
     5     1     2    1
     6     2     3    1
     7     3     4    1
     8     4     5    1
     9     5     6    1
    10     6     8    1
    11     8     9    2
    12     9    10    1
    13    10    11    2
    14    11    12    1
    15    12    13    2
    16    13    14    1
    17    14    15    2
    18    15    16    1
    19     6     1    1
    20    16     8    1
    21    15    11    1
    22     3     7    1
@<TRIPOS>MOLECULE
*****
 20 22 0 0 0
SMALL
GASTEIGER

@<TRIPOS>ATOM
      1 C          -6.0033  -16.5881   23.5540 C.3     1  UNL1        0.1180
      2 C          -4.5136  -16.7368   23.6488 C.3     1  UNL1        0.0911
      3 N          -3.8378  -17.9253   23.0316 N.3     1  UNL1       -0.2946
      4 C          -4.6516  -18.9649   22.3197 C.3     1  UNL1        0.0903
      5 C          -6.1412  -18.8162   22.2250 C.3     1  UNL1        0.1076
      6 N          -6.8170  -17.6278   22.8421 N.pl3   1  UNL1       -0.3070
      7 H          -3.3403  -18.4040   23.7825 H       1  UNL1        0.1233
      8 C          -8.3066  -17.4791   22.7474 C.2     1  UNL1        0.0295
      9 C          -9.1691  -17.7983   23.9323 C.2     1  UNL1        0.0120
     10 C         -10.6588  -17.6496   23.8375 C.2     1  UNL1        0.0216
     11 C         -11.2858  -17.1817   22.5577 C.2     1  UNL1        0.1008
     12 N         -12.7146  -16.9417   22.1691 N.2     1  UNL1       -0.1482
     13 N         -12.7351  -16.4742   20.7440 N.2     1  UNL1       -0.1467
     14 C         -11.3190  -16.4252   20.2518 C.2     1  UNL1        0.1198
     15 C         -10.4232  -16.8625   21.3728 C.2     1  UNL1        0.0238
     16 C          -8.9337  -17.0112   21.4676 C.3     1  UNL1        0.0705
     17 C          -6.6790  -15.3997   24.1712 C.3     1  UNL1        0.1631
     18 O          -6.0725  -14.7298   25.3684 O.3     1  UNL1       -0.3520
     19 C          -7.6242  -15.8693   27.1129 C.3     1  UNL1        0.0346
     20 C          -6.2868  -15.3034   26.7378 C.3     1  UNL1        0.1423
@<TRIPOS>BOND
     1    19    20    1
     2    20    18    1
     3    18    17    1
     4    17     1    1
     5     1     2    1
     6     2     3    1
     7     3     4    1
     8     4     5    1
     9     5     6    1
    10     6     8    1
    11     8     9    2
    12     9    10    1
    13    10    11    2
    14    11    12    1
    15    12    13    2
    16    13    14    1
    17    14    15    2
    18    15    16    1
    19     6     1    1
    20    16     8    1
    21    15    11    1
    22     3     7    1
@<TRIPOS>MOLECULE
*****
 20 22 0 0 0
SMALL
GASTEIGER

@<TRIPOS>ATOM
      1 C          -6.9041  -15.9173   24.5929 C.3     1  UNL1        0.1180
      2 C          -5.8046  -15.2836   25.3928 C.3     1  UNL1        0.0911
      3 N          -6.0342  -14.9261   26.8314 N.3     1  UNL1       -0.2946
      4 C          -7.3631  -15.2021   27.4699 C.3     1  UNL1        0.0903
      5 C          -8.4625  -15.8357   26.6700 C.3     1  UNL1        0.1076
      6 N          -8.2329  -16.1933   25.2314 N.pl3   1  UNL1       -0.3070
      7 H          -5.8699  -13.9229   26.9152 H       1  UNL1        0.1233
      8 C          -9.3323  -16.8269   24.4315 C.2     1  UNL1        0.0295
      9 C          -9.7856  -18.2204   24.7518 C.2     1  UNL1        0.0120
     10 C         -10.8851  -18.8540   23.9519 C.2     1  UNL1        0.0216
     11 C         -11.5311  -18.0941   22.8316 C.2     1  UNL1        0.1008
     12 N         -12.6296  -18.4553   21.8762 N.2     1  UNL1       -0.1482
     13 N         -12.8552  -17.2851   20.9654 N.2     1  UNL1       -0.1467
     14 C         -11.8961  -16.2005   21.3579 C.2     1  UNL1        0.1198
     15 C         -11.0778  -16.7005   22.5112 C.2     1  UNL1        0.0238
     16 C          -9.9784  -16.0670   23.3112 C.3     1  UNL1        0.0705
     17 C          -6.6745  -16.2749   23.1543 C.3     1  UNL1        0.1631
     18 O          -5.8419  -17.4720   22.8026 O.3     1  UNL1       -0.3520
     19 C          -7.8140  -18.5124   21.4692 C.3     1  UNL1        0.0346
     20 C          -6.4740  -18.6533   22.1282 C.3     1  UNL1        0.1423
@<TRIPOS>BOND
     1    19    20    1
     2    20    18    1
     3    18    17    1
     4    17     1    1
     5     1     2    1
     6     2     3    1
     7     3     4    1
     8     4     5    1
     9     5     6    1
    10     6     8    1
    11     8     9    2
    12     9    10    1
    13    10    11    2
    14    11    12    1
    15    12    13    2
    16    13    14    1
    17    14    15    2
    18    15    16    1
    19     6     1    1
    20    16     8    1
    21    15    11    1
    22     3     7    1
@<TRIPOS>MOLECULE
*****
 20 22 0 0 0
SMALL
GASTEIGER

@<TRIPOS>ATOM
      1 C          -4.4674  -18.8683   22.3026 C.3     1  UNL1        0.1180
      2 C          -3.0718  -19.2114   21.8726 C.3     1  UNL1        0.0911
      3 N          -2.8505  -20.1590   20.7311 N.3     1  UNL1       -0.2946
      4 C          -4.0245  -20.7635   20.0196 C.3     1  UNL1        0.0903
      5 C          -5.4200  -20.4203   20.4497 C.3     1  UNL1        0.1076
      6 N          -5.6414  -19.4727   21.5912 N.pl3   1  UNL1       -0.3070
      7 H          -2.2958  -20.9339   21.0950 H       1  UNL1        0.1233
      8 C          -7.0369  -19.1296   22.0212 C.2     1  UNL1        0.0295
      9 C          -7.8525  -20.1283   22.7876 C.2     1  UNL1        0.0120
     10 C          -9.2480  -19.7852   23.2176 C.2     1  UNL1        0.0216
     11 C          -9.8278  -18.4433   22.8812 C.2     1  UNL1        0.1008
     12 N         -11.1645  -17.8267   23.1694 N.2     1  UNL1       -0.1482
     13 N         -11.1750  -16.4469   22.5812 N.2     1  UNL1       -0.1467
     14 C          -9.8448  -16.2108   21.9294 C.2     1  UNL1        0.1198
     15 C          -9.0122  -17.4446   22.1148 C.2     1  UNL1        0.0238
     16 C          -7.6167  -17.7878   21.6848 C.3     1  UNL1        0.0705
     17 C          -4.6887  -17.9207   23.4441 C.3     1  UNL1        0.1631
     18 O          -4.6737  -16.4402   23.2037 O.3     1  UNL1       -0.3520
     19 C          -5.3902  -15.4043   25.4759 C.3     1  UNL1        0.0346
     20 C          -5.5788  -15.5426   23.9944 C.3     1  UNL1        0.1423
@<TRIPOS>BOND
     1    19    20    1
     2    20    18    1
     3    18    17    1
     4    17     1    1
     5     1     2    1
     6     2     3    1
     7     3     4    1
     8     4     5    1
     9     5     6    1
    10     6     8    1
    11     8     9    2
    12     9    10    1
    13    10    11    2
    14    11    12    1
    15    12    13    2
    16    13    14    1
    17    14    15    2
    18    15    16    1
    19     6     1    1
    20    16     8    1
    21    15    11    1
    22     3     7    1
@<TRIPOS>MOLECULE
*****
 20 22 0 0 0
SMALL
GASTEIGER

@<TRIPOS>ATOM
      1 C          -8.4176  -17.4158   23.0736 C.3     1  UNL1        0.1180
      2 C          -9.6950  -17.3235   23.8547 C.3     1  UNL1        0.0911
      3 N         -10.4260  -18.5731   24.2472 N.3     1  UNL1       -0.2946
      4 C          -9.8797  -19.9150   23.8588 C.3     1  UNL1        0.0903
      5 C          -8.6024  -20.0073   23.0778 C.3     1  UNL1        0.1076
      6 N          -7.8714  -18.7576   22.6853 N.pl3   1  UNL1       -0.3070
      7 H         -11.3601  -18.5072   23.8428 H       1  UNL1        0.1233
      8 C          -6.5940  -18.8500   21.9042 C.2     1  UNL1        0.0295
      9 C          -6.6362  -19.0557   20.4191 C.2     1  UNL1        0.0120
     10 C          -5.3588  -19.1481   19.6381 C.2     1  UNL1        0.0216
     11 C          -4.0393  -19.0347   20.3424 C.2     1  UNL1        0.1008
     12 N          -2.6265  -19.0867   19.8413 N.2     1  UNL1       -0.1482
     13 N          -1.7111  -18.9131   21.0169 N.2     1  UNL1       -0.1467
     14 C          -2.5582  -18.7538   22.2445 C.2     1  UNL1        0.1198
     15 C          -3.9972  -18.8290   21.8276 C.2     1  UNL1        0.0238
     16 C          -5.2745  -18.7366   22.6085 C.3     1  UNL1        0.0705
     17 C          -7.6867  -16.1662   22.6811 C.3     1  UNL1        0.1631
     18 O          -7.1516  -15.2466   23.7385 O.3     1  UNL1       -0.3520
     19 C          -5.4082  -15.4623   25.6526 C.3     1  UNL1        0.0346
     20 C          -5.7265  -15.3711   24.1897 C.3     1  UNL1        0.1423
@<TRIPOS>BOND
     1    19    20    1
     2    20    18    1
     3    18    17    1
     4    17     1    1
     5     1     2    1
     6     2     3    1
     7     3     4    1
     8     4     5    1
     9     5     6    1
    10     6     8    1
    11     8     9    2
    12     9    10    1
    13    10    11    2
    14    11    12    1
    15    12    13    2
    16    13    14    1
    17    14    15    2
    18    15    16    1
    19     6     1    1
    20    16     8    1
    21    15    11    1
    22     3     7    1
