@<TRIPOS>MOLECULE
*****
 21 23 0 0 0
SMALL
GASTEIGER

@<TRIPOS>ATOM
      1 C          -8.0111  -19.0316   21.7551 C.ar    1  UNL1       -0.0144
      2 C          -8.6317  -19.3913   20.4378 C.ar    1  UNL1        0.0051
      3 S          -7.5258  -19.7137   19.4771 S.2     1  UNL1       -0.0915
      4 C          -6.2217  -19.5533   20.2007 C.ar    1  UNL1        0.0288
      5 C          -4.7999  -19.7366   19.7595 C.ar    1  UNL1        0.0065
      6 C          -3.6780  -19.4983   20.7262 C.ar    1  UNL1        0.0005
      7 C          -3.9780  -19.0767   22.1341 C.ar    1  UNL1        0.0000
      8 C          -5.3998  -18.8934   22.5754 C.ar    1  UNL1        0.0002
      9 C          -6.5217  -19.1317   21.6086 C.ar    1  UNL1        0.0025
     10 C          -9.7330  -19.5902   23.6189 C.3     1  UNL1        0.0111
     11 C          -8.7502  -18.6405   23.0004 C.3     1  UNL1        0.0632
     12 C          -8.5067  -17.2998   23.6273 C.ar    1  UNL1        0.0698
     13 C          -9.0089  -16.8483   24.9667 C.ar    1  UNL1        0.0519
     14 S          -8.5308  -15.4446   25.1920 S.2     1  UNL1       -0.0643
     15 C          -7.7331  -15.0283   23.9919 C.ar    1  UNL1        0.1341
     16 N          -7.7183  -16.1749   23.0248 N.ar    1  UNL1       -0.2403
     17 C         -10.1004  -19.4231   20.1344 C.3     1  UNL1        0.0499
     18 C         -10.8190  -18.1572   19.7723 C.3     1  UNL1        0.0774
     19 N         -11.4193  -17.3016   20.8482 N.3     1  UNL1       -0.2700
     20 C         -12.5818  -17.8092   21.6490 C.3     1  UNL1        0.0897
     21 C         -10.8572  -15.9384   21.1234 C.3     1  UNL1        0.0897
@<TRIPOS>BOND
     1    11    10    1
     2    11    12    1
     3    12    13   ar
     4    13    14   ar
     5    14    15   ar
     6    15    16   ar
     7    11     1    1
     8     1     2   ar
     9     2    17    1
    10    17    18    1
    11    18    19    1
    12    19    20    1
    13    19    21    1
    14     2     3   ar
    15     3     4   ar
    16     4     5   ar
    17     5     6   ar
    18     6     7   ar
    19     7     8   ar
    20     8     9   ar
    21    16    12   ar
    22     9     1   ar
    23     9     4   ar
@<TRIPOS>MOLECULE
*****
 21 23 0 0 0
SMALL
GASTEIGER

@<TRIPOS>ATOM
      1 C          -8.5881  -17.2450   24.0946 C.ar    1  UNL1       -0.0144
      2 C          -7.5649  -17.1474   23.0021 C.ar    1  UNL1        0.0051
      3 S          -6.4276  -16.3090   23.5058 S.2     1  UNL1       -0.0915
      4 C          -6.7479  -15.8885   24.9096 C.ar    1  UNL1        0.0288
      5 C          -5.9962  -15.0537   25.9035 C.ar    1  UNL1        0.0065
      6 C          -6.5798  -14.7973   27.2613 C.ar    1  UNL1        0.0005
      7 C          -7.9150  -15.3757   27.6252 C.ar    1  UNL1        0.0000
      8 C          -8.6667  -16.2106   26.6313 C.ar    1  UNL1        0.0002
      9 C          -8.0832  -16.4670   25.2735 C.ar    1  UNL1        0.0025
     10 C         -10.1631  -19.1143   24.9752 C.3     1  UNL1        0.0111
     11 C          -9.8880  -17.9899   24.0211 C.3     1  UNL1        0.0632
     12 C         -10.9128  -17.6105   22.9937 C.ar    1  UNL1        0.0698
     13 C         -11.1549  -16.2308   22.4574 C.ar    1  UNL1        0.0519
     14 S         -12.2672  -16.3118   21.4544 S.2     1  UNL1       -0.0643
     15 C         -12.7128  -17.7416   21.3708 C.ar    1  UNL1        0.1341
     16 N         -11.8757  -18.5443   22.3222 N.ar    1  UNL1       -0.2403
     17 C          -7.6620  -17.7774   21.6443 C.3     1  UNL1        0.0499
     18 C          -6.9659  -19.0773   21.3692 C.3     1  UNL1        0.0774
     19 N          -5.4779  -19.1064   21.1822 N.3     1  UNL1       -0.2700
     20 C          -4.8906  -18.9329   19.8128 C.3     1  UNL1        0.0897
     21 C          -4.5773  -19.3090   22.3644 C.3     1  UNL1        0.0897
@<TRIPOS>BOND
     1    11    10    1
     2    11    12    1
     3    12    13   ar
     4    13    14   ar
     5    14    15   ar
     6    15    16   ar
     7    11     1    1
     8     1     2   ar
     9     2    17    1
    10    17    18    1
    11    18    19    1
    12    19    20    1
    13    19    21    1
    14     2     3   ar
    15     3     4   ar
    16     4     5   ar
    17     5     6   ar
    18     6     7   ar
    19     7     8   ar
    20     8     9   ar
    21    16    12   ar
    22     9     1   ar
    23     9     4   ar
@<TRIPOS>MOLECULE
*****
 21 23 0 0 0
SMALL
GASTEIGER

@<TRIPOS>ATOM
      1 C          -8.0656  -18.4145   22.3822 C.ar    1  UNL1       -0.0144
      2 C          -7.5443  -17.2698   23.1995 C.ar    1  UNL1        0.0051
      3 S          -6.0491  -17.2582   23.0800 S.2     1  UNL1       -0.0915
      4 C          -5.6464  -18.3956   22.1889 C.ar    1  UNL1        0.0288
      5 C          -4.3058  -18.8728   21.7144 C.ar    1  UNL1        0.0065
      6 C          -4.2116  -20.0648   20.8087 C.ar    1  UNL1        0.0005
      7 C          -5.4579  -20.7794   20.3774 C.ar    1  UNL1        0.0000
      8 C          -6.7984  -20.3022   20.8519 C.ar    1  UNL1        0.0002
      9 C          -6.8927  -19.1102   21.7576 C.ar    1  UNL1        0.0025
     10 C         -10.0114  -20.0859   22.7952 C.3     1  UNL1        0.0111
     11 C          -9.5069  -18.7964   22.2183 C.3     1  UNL1        0.0632
     12 C         -10.4437  -17.8889   21.4774 C.ar    1  UNL1        0.0698
     13 C         -11.6299  -17.1799   22.0606 C.ar    1  UNL1        0.0519
     14 S         -12.2780  -16.3840   20.9669 S.2     1  UNL1       -0.0643
     15 C         -11.4925  -16.6010   19.7077 C.ar    1  UNL1        0.1341
     16 N         -10.3587  -17.5312   20.0232 N.ar    1  UNL1       -0.2403
     17 C          -8.3727  -16.3061   23.9964 C.3     1  UNL1        0.0499
     18 C          -7.7112  -15.1793   24.7330 C.3     1  UNL1        0.0774
     19 N          -7.1696  -15.4017   26.1141 N.3     1  UNL1       -0.2700
     20 C          -5.6884  -15.3855   26.3504 C.3     1  UNL1        0.0897
     21 C          -8.1091  -15.6404   27.2587 C.3     1  UNL1        0.0897
@<TRIPOS>BOND
     1    11    10    1
     2    11    12    1
     3    12    13   ar
     4    13    14   ar
     5    14    15   ar
     6    15    16   ar
     7    11     1    1
     8     1     2   ar
     9     2    17    1
    10    17    18    1
    11    18    19    1
    12    19    20    1
    13    19    21    1
    14     2     3   ar
    15     3     4   ar
    16     4     5   ar
    17     5     6   ar
    18     6     7   ar
    19     7     8   ar
    20     8     9   ar
    21    16    12   ar
    22     9     1   ar
    23     9     4   ar
@<TRIPOS>MOLECULE
*****
 21 23 0 0 0
SMALL
GASTEIGER

@<TRIPOS>ATOM
      1 C          -8.5335  -17.0789   22.7510 C.ar    1  UNL1       -0.0144
      2 C          -7.8932  -18.3144   22.1912 C.ar    1  UNL1        0.0051
      3 S          -8.9677  -19.1461   21.5558 S.2     1  UNL1       -0.0915
      4 C         -10.2721  -18.4246   21.7230 C.ar    1  UNL1        0.0288
      5 C         -11.6696  -18.7659   21.2980 C.ar    1  UNL1        0.0065
      6 C         -12.7986  -17.8296   21.6117 C.ar    1  UNL1        0.0005
      7 C         -12.5303  -16.5519   22.3504 C.ar    1  UNL1        0.0000
      8 C         -11.1328  -16.2106   22.7753 C.ar    1  UNL1        0.0002
      9 C         -10.0038  -17.1469   22.4616 C.ar    1  UNL1        0.0025
     10 C          -7.2208  -14.8373   22.6991 C.3     1  UNL1        0.0111
     11 C          -7.8275  -15.9699   23.4733 C.3     1  UNL1        0.0632
     12 C          -7.7282  -15.9934   24.9698 C.ar    1  UNL1        0.0698
     13 C          -6.5886  -15.4600   25.7863 C.ar    1  UNL1        0.0519
     14 S          -6.9072  -15.6914   27.2337 S.2     1  UNL1       -0.0643
     15 C          -8.2437  -16.3677   27.3118 C.ar    1  UNL1        0.1341
     16 N          -8.7512  -16.5544   25.9126 N.ar    1  UNL1       -0.2403
     17 C          -6.4345  -18.6580   22.2554 C.3     1  UNL1        0.0499
     18 C          -5.7219  -19.1369   21.0255 C.3     1  UNL1        0.0774
     19 N          -4.2663  -18.8290   20.8342 N.3     1  UNL1       -0.2700
     20 C          -3.3897  -18.5790   22.0255 C.3     1  UNL1        0.0897
     21 C          -3.6873  -18.7711   19.4517 C.3     1  UNL1        0.0897
@<TRIPOS>BOND
     1    11    10    1
     2    11    12    1
     3    12    13   ar
     4    13    14   ar
     5    14    15   ar
     6    15    16   ar
     7    11     1    1
     8     1     2   ar
     9     2    17    1
    10    17    18    1
    11    18    19    1
    12    19    20    1
    13    19    21    1
    14     2     3   ar
    15     3     4   ar
    16     4     5   ar
    17     5     6   ar
    18     6     7   ar
    19     7     8   ar
    20     8     9   ar
    21    16    12   ar
    22     9     1   ar
    23     9     4   ar
@<TRIPOS>MOLECULE
*****
 21 23 0 0 0
SMALL
GASTEIGER

@<TRIPOS>ATOM
      1 C          -7.3004  -18.7489   21.6782 C.ar    1  UNL1       -0.0144
      2 C          -7.9484  -19.4222   20.5048 C.ar    1  UNL1        0.0051
      3 S          -6.8729  -20.0955   19.7048 S.2     1  UNL1       -0.0915
      4 C          -5.5603  -19.8384   20.3837 C.ar    1  UNL1        0.0288
      5 C          -4.1586  -20.2545   20.0490 C.ar    1  UNL1        0.0065
      6 C          -3.0212  -19.8384   20.9338 C.ar    1  UNL1        0.0005
      7 C          -3.2854  -19.0062   22.1535 C.ar    1  UNL1        0.0000
      8 C          -4.6871  -18.5900   22.4883 C.ar    1  UNL1        0.0002
      9 C          -5.8245  -19.0061   21.6034 C.ar    1  UNL1        0.0025
     10 C          -7.6273  -16.5260   22.9829 C.3     1  UNL1        0.0111
     11 C          -8.0047  -17.9574   22.7400 C.3     1  UNL1        0.0632
     12 C          -9.0864  -18.5970   23.5589 C.ar    1  UNL1        0.0698
     13 C         -10.2444  -17.8890   24.1974 C.ar    1  UNL1        0.0519
     14 S         -11.0737  -18.9115   24.9162 S.2     1  UNL1       -0.0643
     15 C         -10.4284  -20.2515   24.7220 C.ar    1  UNL1        0.1341
     16 N          -9.2001  -20.0572   23.8831 N.ar    1  UNL1       -0.2403
     17 C          -9.4143  -19.4222   20.1871 C.3     1  UNL1        0.0499
     18 C         -10.0806  -18.1619   19.7204 C.3     1  UNL1        0.0774
     19 N         -11.0117  -17.4228   20.6350 N.3     1  UNL1       -0.2700
     20 C         -10.7413  -15.9884   20.9811 C.3     1  UNL1        0.0897
     21 C         -12.2132  -18.1178   21.2036 C.3     1  UNL1        0.0897
@<TRIPOS>BOND
     1    11    10    1
     2    11    12    1
     3    12    13   ar
     4    13    14   ar
     5    14    15   ar
     6    15    16   ar
     7    11     1    1
     8     1     2   ar
     9     2    17    1
    10    17    18    1
    11    18    19    1
    12    19    20    1
    13    19    21    1
    14     2     3   ar
    15     3     4   ar
    16     4     5   ar
    17     5     6   ar
    18     6     7   ar
    19     7     8   ar
    20     8     9   ar
    21    16    12   ar
    22     9     1   ar
    23     9     4   ar
@<TRIPOS>MOLECULE
*****
 21 23 0 0 0
SMALL
GASTEIGER

@<TRIPOS>ATOM
      1 C          -6.6665  -17.5022   22.8468 C.ar    1  UNL1       -0.0144
      2 C          -7.4228  -18.7002   22.3542 C.ar    1  UNL1        0.0051
      3 S          -6.4247  -19.7293   21.9130 S.2     1  UNL1       -0.0915
      4 C          -5.0514  -19.1673   22.1331 C.ar    1  UNL1        0.0288
      5 C          -3.6842  -19.7311   21.8825 C.ar    1  UNL1        0.0065
      6 C          -2.4665  -18.9185   22.2090 C.ar    1  UNL1        0.0005
      7 C          -2.6159  -17.5421   22.7861 C.ar    1  UNL1        0.0000
      8 C          -3.9831  -16.9783   23.0367 C.ar    1  UNL1        0.0002
      9 C          -5.2009  -17.7909   22.7102 C.ar    1  UNL1        0.0025
     10 C          -7.8439  -15.2224   22.4387 C.3     1  UNL1        0.0111
     11 C          -7.2698  -16.2375   23.3822 C.3     1  UNL1        0.0632
     12 C          -7.2991  -15.9879   24.8609 C.ar    1  UNL1        0.0698
     13 C          -8.4908  -16.1448   25.7582 C.ar    1  UNL1        0.0519
     14 S          -8.0700  -15.7914   27.1538 S.2     1  UNL1       -0.0643
     15 C          -6.6183  -15.4159   27.1192 C.ar    1  UNL1        0.1341
     16 N          -6.1417  -15.5373   25.7020 N.ar    1  UNL1       -0.2403
     17 C          -8.9153  -18.8439   22.3103 C.3     1  UNL1        0.0499
     18 C          -9.6977  -18.2079   21.1998 C.3     1  UNL1        0.0774
     19 N         -10.8222  -17.2674   21.5177 N.3     1  UNL1       -0.2700
     20 C         -11.6862  -16.7315   20.4147 C.3     1  UNL1        0.0897
     21 C         -11.0827  -16.8629   22.9384 C.3     1  UNL1        0.0897
@<TRIPOS>BOND
     1    11    10    1
     2    11    12    1
     3    12    13   ar
     4    13    14   ar
     5    14    15   ar
     6    15    16   ar
     7    11     1    1
     8     1     2   ar
     9     2    17    1
    10    17    18    1
    11    18    19    1
    12    19    20    1
    13    19    21    1
    14     2     3   ar
    15     3     4   ar
    16     4     5   ar
    17     5     6   ar
    18     6     7   ar
    19     7     8   ar
    20     8     9   ar
    21    16    12   ar
    22     9     1   ar
    23     9     4   ar
@<TRIPOS>MOLECULE
*****
 21 23 0 0 0
SMALL
GASTEIGER

@<TRIPOS>ATOM
      1 C          -6.8102  -18.3046   22.1350 C.ar    1  UNL1       -0.0144
      2 C          -8.2395  -18.0541   21.7554 C.ar    1  UNL1        0.0051
      3 S          -8.7049  -16.8288   22.4848 S.2     1  UNL1       -0.0915
      4 C          -7.5631  -16.3220   23.3152 C.ar    1  UNL1        0.0288
      5 C          -7.4385  -15.1478   24.2402 C.ar    1  UNL1        0.0065
      6 C          -6.1429  -14.8858   24.9491 C.ar    1  UNL1        0.0005
      7 C          -4.9718  -15.7980   24.7330 C.ar    1  UNL1        0.0000
      8 C          -5.0965  -16.9721   23.8080 C.ar    1  UNL1        0.0002
      9 C          -6.3921  -17.2341   23.0991 C.ar    1  UNL1        0.0025
     10 C          -6.3983  -20.8494   21.8109 C.3     1  UNL1        0.0111
     11 C          -5.9499  -19.4284   21.6380 C.3     1  UNL1        0.0632
     12 C          -4.6412  -19.1313   20.9680 C.ar    1  UNL1        0.0698
     13 C          -3.2790  -19.3983   21.5364 C.ar    1  UNL1        0.0519
     14 S          -2.2608  -18.9470   20.5316 S.2     1  UNL1       -0.0643
     15 C          -2.9936  -18.4010   19.3422 C.ar    1  UNL1        0.1341
     16 N          -4.4649  -18.5149   19.6119 N.ar    1  UNL1       -0.2403
     17 C          -9.0596  -18.8833   20.8120 C.3     1  UNL1        0.0499
     18 C         -10.5110  -19.1307   21.0986 C.3     1  UNL1        0.0774
     19 N         -11.5141  -18.0353   20.8891 N.3     1  UNL1       -0.2700
     20 C         -11.3679  -17.0962   19.7286 C.3     1  UNL1        0.0897
     21 C         -12.6635  -17.8790   21.8402 C.3     1  UNL1        0.0897
@<TRIPOS>BOND
     1    11    10    1
     2    11    12    1
     3    12    13   ar
     4    13    14   ar
     5    14    15   ar
     6    15    16   ar
     7    11     1    1
     8     1     2   ar
     9     2    17    1
    10    17    18    1
    11    18    19    1
    12    19    20    1
    13    19    21    1
    14     2     3   ar
    15     3     4   ar
    16     4     5   ar
    17     5     6   ar
    18     6     7   ar
    19     7     8   ar
    20     8     9   ar
    21    16    12   ar
    22     9     1   ar
    23     9     4   ar
@<TRIPOS>MOLECULE
*****
 21 23 0 0 0
SMALL
GASTEIGER

@<TRIPOS>ATOM
      1 C          -6.1051  -18.3765   22.2700 C.ar    1  UNL1       -0.0144
      2 C          -4.6332  -18.6380   22.3925 C.ar    1  UNL1        0.0051
      3 S          -4.0617  -17.6320   23.3471 S.2     1  UNL1       -0.0915
      4 C          -5.1804  -16.7487   23.8146 C.ar    1  UNL1        0.0288
      5 C          -5.2121  -15.5850   24.7604 C.ar    1  UNL1        0.0065
      6 C          -6.5069  -14.8814   25.0405 C.ar    1  UNL1        0.0005
      7 C          -7.7699  -15.3415   24.3747 C.ar    1  UNL1        0.0000
      8 C          -7.7381  -16.5053   23.4289 C.ar    1  UNL1        0.0002
      9 C          -6.4433  -17.2089   23.1489 C.ar    1  UNL1        0.0025
     10 C          -6.6652  -19.5953   20.0449 C.3     1  UNL1        0.0111
     11 C          -7.0696  -19.1473   21.4182 C.3     1  UNL1        0.0632
     12 C          -8.4385  -19.4701   21.9394 C.ar    1  UNL1        0.0698
     13 C          -9.7330  -19.2475   21.2151 C.ar    1  UNL1        0.0519
     14 S         -10.8478  -19.7121   22.1047 S.2     1  UNL1       -0.0643
     15 C         -10.2424  -20.2218   23.3788 C.ar    1  UNL1        0.1341
     16 N          -8.7533  -20.0723   23.2767 N.ar    1  UNL1       -0.2403
     17 C          -3.8673  -19.7161   21.6847 C.3     1  UNL1        0.0499
     18 C          -2.4243  -19.5044   21.3342 C.3     1  UNL1        0.0774
     19 N          -2.0542  -18.6086   20.1894 N.3     1  UNL1       -0.2700
     20 C          -0.6576  -18.0728   20.0775 C.3     1  UNL1        0.0897
     21 C          -3.0806  -18.2488   19.1565 C.3     1  UNL1        0.0897
@<TRIPOS>BOND
     1    11    10    1
     2    11    12    1
     3    12    13   ar
     4    13    14   ar
     5    14    15   ar
     6    15    16   ar
     7    11     1    1
     8     1     2   ar
     9     2    17    1
    10    17    18    1
    11    18    19    1
    12    19    20    1
    13    19    21    1
    14     2     3   ar
    15     3     4   ar
    16     4     5   ar
    17     5     6   ar
    18     6     7   ar
    19     7     8   ar
    20     8     9   ar
    21    16    12   ar
    22     9     1   ar
    23     9     4   ar
@<TRIPOS>MOLECULE
*****
 21 23 0 0 0
SMALL
GASTEIGER

@<TRIPOS>ATOM
      1 C          -6.3720  -18.5511   21.7430 C.ar    1  UNL1       -0.0144
      2 C          -6.7948  -17.4658   22.6882 C.ar    1  UNL1        0.0051
      3 S          -8.2420  -17.1660   22.4321 S.2     1  UNL1       -0.0915
      4 C          -8.7137  -18.0660   21.3286 C.ar    1  UNL1        0.0288
      5 C         -10.0462  -18.2166   20.6567 C.ar    1  UNL1        0.0065
      6 C         -10.2230  -19.2232   19.5588 C.ar    1  UNL1        0.0005
      7 C          -9.0672  -20.0793   19.1329 C.ar    1  UNL1        0.0000
      8 C          -7.7347  -19.9287   19.8049 C.ar    1  UNL1        0.0002
      9 C          -7.5579  -18.9220   20.9028 C.ar    1  UNL1        0.0025
     10 C          -4.7281  -20.4846   22.2992 C.3     1  UNL1        0.0111
     11 C          -5.0035  -19.1588   21.6537 C.3     1  UNL1        0.0632
     12 C          -3.9105  -18.4409   20.9191 C.ar    1  UNL1        0.0698
     13 C          -3.5550  -18.6199   19.4729 C.ar    1  UNL1        0.0519
     14 S          -2.4058  -17.7075   19.1617 S.2     1  UNL1       -0.0643
     15 C          -2.0510  -16.9646   20.4155 C.ar    1  UNL1        0.1341
     16 N          -2.9810  -17.4179   21.5017 N.ar    1  UNL1       -0.2403
     17 C          -5.9233  -16.7976   23.7100 C.3     1  UNL1        0.0499
     18 C          -6.3344  -15.4818   24.3011 C.3     1  UNL1        0.0774
     19 N          -7.0440  -15.4419   25.6221 N.3     1  UNL1       -0.2700
     20 C          -6.2542  -15.4140   26.8971 C.3     1  UNL1        0.0897
     21 C          -8.5432  -15.4298   25.6680 C.3     1  UNL1        0.0897
@<TRIPOS>BOND
     1    11    10    1
     2    11    12    1
     3    12    13   ar
     4    13    14   ar
     5    14    15   ar
     6    15    16   ar
     7    11     1    1
     8     1     2   ar
     9     2    17    1
    10    17    18    1
    11    18    19    1
    12    19    20    1
    13    19    21    1
    14     2     3   ar
    15     3     4   ar
    16     4     5   ar
    17     5     6   ar
    18     6     7   ar
    19     7     8   ar
    20     8     9   ar
    21    16    12   ar
    22     9     1   ar
    23     9     4   ar
