@<TRIPOS>MOLECULE
*****
 32 35 0 0 0
SMALL
GASTEIGER

@<TRIPOS>ATOM
      1 C          -6.2466  -16.7109   23.4352 C.3     1  UNL1        0.2026
      2 C          -6.9980  -16.2036   24.6302 C.ar    1  UNL1        0.0146
      3 C          -8.4650  -16.0466   24.9010 C.ar    1  UNL1       -0.0011
      4 C          -8.9301  -15.4994   26.2179 C.ar    1  UNL1       -0.0002
      5 C          -7.9284  -15.1092   27.2639 C.ar    1  UNL1       -0.0003
      6 C          -6.4614  -15.2661   26.9931 C.ar    1  UNL1       -0.0044
      7 C          -5.9962  -15.8134   25.6763 C.ar    1  UNL1       -0.0213
      8 C          -4.6257  -16.0795   25.1277 C.3     1  UNL1        0.0461
      9 C          -4.7805  -16.6342   23.7426 C.3     1  UNL1        0.1066
     10 N          -3.6649  -17.0408   22.8260 N.3     1  UNL1       -0.2692
     11 C          -2.7956  -15.9952   22.1929 C.3     1  UNL1        0.0723
     12 C          -1.6800  -16.4018   21.2762 C.3     1  UNL1        0.0187
     13 C          -1.4338  -17.8540   20.9927 C.3     1  UNL1        0.0183
     14 C          -2.3032  -18.8996   21.6258 C.3     1  UNL1        0.0670
     15 N          -2.0570  -20.3519   21.3423 N.3     1  UNL1       -0.3211
     16 C          -3.4187  -18.4930   22.5425 C.3     1  UNL1        0.0878
     17 H          -2.7359  -20.9176   21.8517 H       1  UNL1        0.1189
     18 H          -1.1142  -20.6015   21.6408 H       1  UNL1        0.1189
     19 O          -6.8547  -17.2077   22.1571 O.3     1  UNL1       -0.4733
     20 C         -10.6833  -17.9986   21.4742 C.ar    1  UNL1        0.0546
     21 C         -10.8442  -19.2884   22.2229 C.ar    1  UNL1        0.0149
     22 C          -9.6753  -19.8846   22.9497 C.ar    1  UNL1        0.0044
     23 C          -8.3454  -19.1910   22.9278 C.ar    1  UNL1        0.0370
     24 C          -8.1844  -17.9013   22.1791 C.ar    1  UNL1        0.1402
     25 C          -9.3534  -17.3050   21.4523 C.ar    1  UNL1        0.0516
     26 N         -12.8565  -15.5231   19.2609 N.am    1  UNL1       -0.3131
     27 C         -11.6877  -16.1194   19.9877 C.2     1  UNL1        0.3013
     28 O         -10.3545  -15.4329   19.9547 O.2     1  UNL1       -0.2527
     29 N         -11.8521  -17.4023   20.7474 N.am    1  UNL1       -0.2684
     30 H         -12.7485  -14.6811   18.7622 H       1  UNL1        0.1465
     31 H         -13.7316  -15.9737   19.2825 H       1  UNL1        0.1465
     32 H         -12.7272  -17.8529   20.7691 H       1  UNL1        0.1564
@<TRIPOS>BOND
     1    26    27   am
     2    27    28    2
     3    27    29   am
     4    29    20    1
     5    20    21   ar
     6    21    22   ar
     7    22    23   ar
     8    23    24   ar
     9    24    19    1
    10     1    19    1
    11     1     2    1
    12     2     3   ar
    13     3     4   ar
    14     4     5   ar
    15     5     6   ar
    16     6     7   ar
    17     7     8    1
    18     8     9    1
    19     9    10    1
    20    10    11    1
    21    11    12    1
    22    12    13    1
    23    13    14    1
    24    14    15    1
    25    14    16    1
    26    24    25   ar
    27    25    20   ar
    28     9     1    1
    29    16    10    1
    30     7     2   ar
    31    26    30    1
    32    26    31    1
    33    29    32    1
    34    15    17    1
    35    15    18    1
@<TRIPOS>MOLECULE
*****
 32 35 0 0 0
SMALL
GASTEIGER

@<TRIPOS>ATOM
      1 C          -8.5104  -18.2567   22.7083 C.3     1  UNL1        0.2026
      2 C          -9.3961  -18.3384   21.5005 C.ar    1  UNL1        0.0146
      3 C          -9.5014  -19.3520   20.3998 C.ar    1  UNL1       -0.0011
      4 C         -10.5040  -19.1635   19.3002 C.ar    1  UNL1       -0.0002
      5 C         -11.4013  -17.9615   19.3012 C.ar    1  UNL1       -0.0003
      6 C         -11.2960  -16.9479   20.4019 C.ar    1  UNL1       -0.0044
      7 C         -10.2933  -17.1363   21.5015 C.ar    1  UNL1       -0.0213
      8 C          -9.9622  -16.3118   22.7100 C.3     1  UNL1        0.0461
      9 C          -8.8603  -17.0042   23.4559 C.3     1  UNL1        0.1066
     10 N          -8.2206  -16.5278   24.7263 N.3     1  UNL1       -0.2692
     11 C          -8.8377  -16.8684   26.0503 C.3     1  UNL1        0.0723
     12 C          -8.1980  -16.3920   27.3207 C.3     1  UNL1        0.0187
     13 C          -6.9412  -15.5750   27.2670 C.3     1  UNL1        0.0183
     14 C          -6.3241  -15.2344   25.9429 C.3     1  UNL1        0.0670
     15 N          -5.0673  -14.4173   25.8892 N.3     1  UNL1       -0.3211
     16 C          -6.9638  -15.7108   24.6726 C.3     1  UNL1        0.0878
     17 H          -4.7908  -14.2824   24.9167 H       1  UNL1        0.1189
     18 H          -4.3236  -14.9041   26.3897 H       1  UNL1        0.1189
     19 O          -7.4594  -19.2527   23.0999 O.3     1  UNL1       -0.4733
     20 C          -3.8618  -19.0700   21.4345 C.ar    1  UNL1        0.0546
     21 C          -4.0055  -20.0829   20.3375 C.ar    1  UNL1        0.0149
     22 C          -5.3005  -20.8190   20.1613 C.ar    1  UNL1        0.0044
     23 C          -6.4518  -20.5423   21.0821 C.ar    1  UNL1        0.0370
     24 C          -6.3082  -19.5295   22.1791 C.ar    1  UNL1        0.1402
     25 C          -5.0131  -18.7933   22.3553 C.ar    1  UNL1        0.0516
     26 N          -0.8305  -16.5995   20.7577 N.am    1  UNL1       -0.3131
     27 C          -2.1254  -17.3357   20.5816 C.2     1  UNL1        0.3013
     28 O          -2.9790  -17.0740   19.3762 O.2     1  UNL1       -0.2527
     29 N          -2.5668  -18.3338   21.6107 N.am    1  UNL1       -0.2684
     30 H          -0.5408  -15.9445   20.0822 H       1  UNL1        0.1465
     31 H          -0.2702  -16.7713   21.5488 H       1  UNL1        0.1465
     32 H          -2.0066  -18.5056   22.4018 H       1  UNL1        0.1564
@<TRIPOS>BOND
     1    26    27   am
     2    27    28    2
     3    27    29   am
     4    29    20    1
     5    20    21   ar
     6    21    22   ar
     7    22    23   ar
     8    23    24   ar
     9    24    19    1
    10     1    19    1
    11     1     2    1
    12     2     3   ar
    13     3     4   ar
    14     4     5   ar
    15     5     6   ar
    16     6     7   ar
    17     7     8    1
    18     8     9    1
    19     9    10    1
    20    10    11    1
    21    11    12    1
    22    12    13    1
    23    13    14    1
    24    14    15    1
    25    14    16    1
    26    24    25   ar
    27    25    20   ar
    28     9     1    1
    29    16    10    1
    30     7     2   ar
    31    26    30    1
    32    26    31    1
    33    29    32    1
    34    15    17    1
    35    15    18    1
@<TRIPOS>MOLECULE
*****
 32 35 0 0 0
SMALL
GASTEIGER

@<TRIPOS>ATOM
      1 C          -5.8231  -18.3122   22.2881 C.3     1  UNL1        0.2026
      2 C          -4.4009  -18.5264   21.8622 C.ar    1  UNL1        0.0146
      3 C          -3.1533  -17.7256   22.0907 C.ar    1  UNL1       -0.0011
      4 C          -1.8450  -18.1993   21.5304 C.ar    1  UNL1       -0.0002
      5 C          -1.7843  -19.4737   20.7416 C.ar    1  UNL1       -0.0003
      6 C          -3.0319  -20.2744   20.5131 C.ar    1  UNL1       -0.0044
      7 C          -4.3402  -19.8008   21.0734 C.ar    1  UNL1       -0.0213
      8 C          -5.7249  -20.3741   21.0118 C.3     1  UNL1        0.0461
      9 C          -6.6414  -19.4542   21.7625 C.3     1  UNL1        0.1066
     10 N          -8.1171  -19.6430   21.9541 N.3     1  UNL1       -0.2692
     11 C          -9.0481  -19.5107   20.7854 C.3     1  UNL1        0.0723
     12 C         -10.5237  -19.6995   20.9770 C.3     1  UNL1        0.0187
     13 C         -11.0685  -20.0207   22.3371 C.3     1  UNL1        0.0183
     14 C         -10.1375  -20.1531   23.5058 C.3     1  UNL1        0.0670
     15 N         -10.6822  -20.4743   24.8660 N.3     1  UNL1       -0.3211
     16 C          -8.6618  -19.9642   23.3142 C.3     1  UNL1        0.0878
     17 H          -9.9148  -20.5261   25.5360 H       1  UNL1        0.1189
     18 H         -11.1675  -21.3708   24.8349 H       1  UNL1        0.1189
     19 O          -6.3368  -17.1585   23.0975 O.3     1  UNL1       -0.4733
     20 C          -9.8976  -16.0161   21.7686 C.ar    1  UNL1        0.0546
     21 C         -10.7167  -16.1289   23.0201 C.ar    1  UNL1        0.0149
     22 C         -10.0759  -16.5849   24.2974 C.ar    1  UNL1        0.0044
     23 C          -8.6160  -16.9281   24.3232 C.ar    1  UNL1        0.0370
     24 C          -7.7967  -16.8153   23.0717 C.ar    1  UNL1        0.1402
     25 C          -8.4376  -16.3593   21.7944 C.ar    1  UNL1        0.0516
     26 N         -12.5340  -15.6197   18.8289 N.am    1  UNL1       -0.3131
     27 C         -11.8932  -16.0757   20.1062 C.2     1  UNL1        0.3013
     28 O         -12.6074  -17.0473   20.9984 O.2     1  UNL1       -0.2527
     29 N         -10.5383  -15.5601   20.4913 N.am    1  UNL1       -0.2684
     30 H         -13.4233  -15.9581   18.5762 H       1  UNL1        0.1465
     31 H         -12.0653  -14.9820   18.2433 H       1  UNL1        0.1465
     32 H         -10.0696  -14.9224   19.9058 H       1  UNL1        0.1564
@<TRIPOS>BOND
     1    26    27   am
     2    27    28    2
     3    27    29   am
     4    29    20    1
     5    20    21   ar
     6    21    22   ar
     7    22    23   ar
     8    23    24   ar
     9    24    19    1
    10     1    19    1
    11     1     2    1
    12     2     3   ar
    13     3     4   ar
    14     4     5   ar
    15     5     6   ar
    16     6     7   ar
    17     7     8    1
    18     8     9    1
    19     9    10    1
    20    10    11    1
    21    11    12    1
    22    12    13    1
    23    13    14    1
    24    14    15    1
    25    14    16    1
    26    24    25   ar
    27    25    20   ar
    28     9     1    1
    29    16    10    1
    30     7     2   ar
    31    26    30    1
    32    26    31    1
    33    29    32    1
    34    15    17    1
    35    15    18    1
@<TRIPOS>MOLECULE
*****
 32 35 0 0 0
SMALL
GASTEIGER

@<TRIPOS>ATOM
      1 C          -6.8821  -18.9011   20.3795 C.3     1  UNL1        0.2026
      2 C          -7.6925  -19.8411   19.5370 C.ar    1  UNL1        0.0146
      3 C          -9.0795  -19.7428   18.9745 C.ar    1  UNL1       -0.0011
      4 C          -9.6357  -20.8657   18.1500 C.ar    1  UNL1       -0.0002
      5 C          -8.8050  -22.0868   17.8881 C.ar    1  UNL1       -0.0003
      6 C          -7.4179  -22.1851   18.4506 C.ar    1  UNL1       -0.0044
      7 C          -6.8617  -21.0622   19.2750 C.ar    1  UNL1       -0.0213
      8 C          -5.5379  -20.8770   19.9556 C.3     1  UNL1        0.0461
      9 C          -5.5505  -19.5413   20.6382 C.3     1  UNL1        0.1066
     10 N          -4.4285  -18.9498   21.4390 N.3     1  UNL1       -0.2692
     11 C          -4.6800  -18.4595   22.8341 C.3     1  UNL1        0.0723
     12 C          -3.5580  -17.8679   23.6348 C.3     1  UNL1        0.0187
     13 C          -2.1845  -17.7667   23.0405 C.3     1  UNL1        0.0183
     14 C          -1.9330  -18.2569   21.6454 C.3     1  UNL1        0.0670
     15 N          -0.5595  -18.1557   21.0510 N.3     1  UNL1       -0.3211
     16 C          -3.0550  -18.8485   20.8446 C.3     1  UNL1        0.0878
     17 H          -0.5704  -18.5332   20.1035 H       1  UNL1        0.1189
     18 H           0.0979  -18.6876   21.6213 H       1  UNL1        0.1189
     19 O          -7.3255  -17.5570   20.8760 O.3     1  UNL1       -0.4733
     20 C          -8.5688  -16.2640   24.4162 C.ar    1  UNL1        0.0546
     21 C          -9.6776  -17.2339   24.6987 C.ar    1  UNL1        0.0149
     22 C         -10.0024  -18.3114   23.7071 C.ar    1  UNL1        0.0044
     23 C          -9.2184  -18.4192   22.4328 C.ar    1  UNL1        0.0370
     24 C          -8.1095  -17.4493   22.1502 C.ar    1  UNL1        0.1402
     25 C          -7.7848  -16.3717   23.1419 C.ar    1  UNL1        0.0516
     26 N          -7.8428  -14.4337   27.8618 N.am    1  UNL1       -0.3131
     27 C          -8.1676  -15.5112   26.8702 C.2     1  UNL1        0.3013
     28 O          -8.4161  -16.9136   27.3410 O.2     1  UNL1       -0.2527
     29 N          -8.2439  -15.1864   25.4078 N.am    1  UNL1       -0.2684
     30 H          -7.7927  -14.6469   28.8217 H       1  UNL1        0.1465
     31 H          -7.6797  -13.5133   27.5529 H       1  UNL1        0.1465
     32 H          -8.0808  -14.2660   25.0988 H       1  UNL1        0.1564
@<TRIPOS>BOND
     1    26    27   am
     2    27    28    2
     3    27    29   am
     4    29    20    1
     5    20    21   ar
     6    21    22   ar
     7    22    23   ar
     8    23    24   ar
     9    24    19    1
    10     1    19    1
    11     1     2    1
    12     2     3   ar
    13     3     4   ar
    14     4     5   ar
    15     5     6   ar
    16     6     7   ar
    17     7     8    1
    18     8     9    1
    19     9    10    1
    20    10    11    1
    21    11    12    1
    22    12    13    1
    23    13    14    1
    24    14    15    1
    25    14    16    1
    26    24    25   ar
    27    25    20   ar
    28     9     1    1
    29    16    10    1
    30     7     2   ar
    31    26    30    1
    32    26    31    1
    33    29    32    1
    34    15    17    1
    35    15    18    1
@<TRIPOS>MOLECULE
*****
 32 35 0 0 0
SMALL
GASTEIGER

@<TRIPOS>ATOM
      1 C          -6.8895  -18.8349   20.3785 C.3     1  UNL1        0.2026
      2 C          -7.6951  -19.8026   19.5633 C.ar    1  UNL1        0.0146
      3 C          -9.0798  -19.7242   18.9918 C.ar    1  UNL1       -0.0011
      4 C          -9.6312  -20.8739   18.2018 C.ar    1  UNL1       -0.0002
      5 C          -8.7981  -22.1019   17.9833 C.ar    1  UNL1       -0.0003
      6 C          -7.4134  -22.1803   18.5548 C.ar    1  UNL1       -0.0044
      7 C          -6.8620  -21.0307   19.3448 C.ar    1  UNL1       -0.0213
      8 C          -5.5414  -20.8219   20.0249 C.3     1  UNL1        0.0461
      9 C          -5.5584  -19.4649   20.6637 C.3     1  UNL1        0.1066
     10 N          -4.4406  -18.8464   21.4498 N.3     1  UNL1       -0.2692
     11 C          -4.6190  -18.5633   22.9120 C.3     1  UNL1        0.0723
     12 C          -3.5012  -17.9448   23.6981 C.3     1  UNL1        0.0187
     13 C          -2.2049  -17.6094   23.0220 C.3     1  UNL1        0.0183
     14 C          -2.0265  -17.8924   21.5598 C.3     1  UNL1        0.0670
     15 N          -0.7302  -17.5570   20.8837 N.3     1  UNL1       -0.3211
     16 C          -3.1443  -18.5109   20.7737 C.3     1  UNL1        0.0878
     17 H          -0.7841  -17.8146   19.8982 H       1  UNL1        0.1189
     18 H           0.0289  -18.0726   21.3289 H       1  UNL1        0.1189
     19 O          -7.3364  -17.4759   20.8292 O.3     1  UNL1       -0.4733
     20 C         -10.0505  -17.7379   23.7128 C.ar    1  UNL1        0.0546
     21 C          -9.3679  -16.9820   24.8140 C.ar    1  UNL1        0.0149
     22 C          -8.0083  -16.3907   24.5869 C.ar    1  UNL1        0.0044
     23 C          -7.3311  -16.5553   23.2587 C.ar    1  UNL1        0.0370
     24 C          -8.0136  -17.3112   22.1574 C.ar    1  UNL1        0.1402
     25 C          -9.3733  -17.9025   22.3845 C.ar    1  UNL1        0.0516
     26 N         -13.9908  -18.2084   23.6643 N.am    1  UNL1       -0.3131
     27 C         -12.6311  -17.6171   23.4374 C.2     1  UNL1        0.3013
     28 O         -12.4923  -16.3137   22.7081 O.2     1  UNL1       -0.2527
     29 N         -11.4102  -18.3292   23.9397 N.am    1  UNL1       -0.2684
     30 H         -14.7921  -17.7409   23.3346 H       1  UNL1        0.1465
     31 H         -14.0820  -19.0638   24.1430 H       1  UNL1        0.1465
     32 H         -11.5014  -19.1847   24.4184 H       1  UNL1        0.1564
@<TRIPOS>BOND
     1    26    27   am
     2    27    28    2
     3    27    29   am
     4    29    20    1
     5    20    21   ar
     6    21    22   ar
     7    22    23   ar
     8    23    24   ar
     9    24    19    1
    10     1    19    1
    11     1     2    1
    12     2     3   ar
    13     3     4   ar
    14     4     5   ar
    15     5     6   ar
    16     6     7   ar
    17     7     8    1
    18     8     9    1
    19     9    10    1
    20    10    11    1
    21    11    12    1
    22    12    13    1
    23    13    14    1
    24    14    15    1
    25    14    16    1
    26    24    25   ar
    27    25    20   ar
    28     9     1    1
    29    16    10    1
    30     7     2   ar
    31    26    30    1
    32    26    31    1
    33    29    32    1
    34    15    17    1
    35    15    18    1
@<TRIPOS>MOLECULE
*****
 32 35 0 0 0
SMALL
GASTEIGER

@<TRIPOS>ATOM
      1 C          -8.9810  -17.2180   22.2386 C.3     1  UNL1        0.2026
      2 C         -10.4331  -17.5734   22.1159 C.ar    1  UNL1        0.0146
      3 C         -11.2487  -18.0790   20.9630 C.ar    1  UNL1       -0.0011
      4 C         -12.7127  -18.3516   21.1426 C.ar    1  UNL1       -0.0002
      5 C         -13.3611  -18.1187   22.4751 C.ar    1  UNL1       -0.0003
      6 C         -12.5455  -17.6132   23.6279 C.ar    1  UNL1       -0.0044
      7 C         -11.0815  -17.3405   23.4483 C.ar    1  UNL1       -0.0213
      8 C         -10.0300  -16.8412   24.3945 C.3     1  UNL1        0.0461
      9 C          -8.7319  -16.7655   23.6468 C.3     1  UNL1        0.1066
     10 N          -7.4157  -16.3162   24.2088 N.3     1  UNL1       -0.2692
     11 C          -7.3531  -15.7096   25.5792 C.3     1  UNL1        0.0723
     12 C          -6.0369  -15.2602   26.1411 C.3     1  UNL1        0.0187
     13 C          -4.7833  -15.4176   25.3326 C.3     1  UNL1        0.0183
     14 C          -4.8459  -16.0242   23.9622 C.3     1  UNL1        0.0670
     15 N          -3.5922  -16.1815   23.1537 N.3     1  UNL1       -0.3211
     16 C          -6.1621  -16.4735   23.4003 C.3     1  UNL1        0.0878
     17 H          -3.8184  -16.6081   22.2552 H       1  UNL1        0.1189
     18 H          -2.9354  -16.7777   23.6573 H       1  UNL1        0.1189
     19 O          -7.9576  -17.3007   21.1450 O.3     1  UNL1       -0.4733
     20 C          -4.8477  -19.5656   20.1711 C.ar    1  UNL1        0.0546
     21 C          -5.1468  -20.8097   20.9539 C.ar    1  UNL1        0.0149
     22 C          -6.3829  -20.8841   21.8004 C.ar    1  UNL1        0.0044
     23 C          -7.3198  -19.7144   21.8641 C.ar    1  UNL1        0.0370
     24 C          -7.0208  -18.4703   21.0813 C.ar    1  UNL1        0.1402
     25 C          -5.7846  -18.3960   20.2348 C.ar    1  UNL1        0.0516
     26 N          -1.3698  -18.3289   18.7135 N.am    1  UNL1       -0.3131
     27 C          -2.6059  -18.4034   19.5599 C.2     1  UNL1        0.3013
     28 O          -2.8361  -17.3902   20.6418 O.2     1  UNL1       -0.2527
     29 N          -3.6116  -19.4911   19.3246 N.am    1  UNL1       -0.2684
     30 H          -0.7097  -17.6150   18.8679 H       1  UNL1        0.1465
     31 H          -1.2186  -18.9939   18.0034 H       1  UNL1        0.1465
     32 H          -3.4605  -20.1561   18.6145 H       1  UNL1        0.1564
@<TRIPOS>BOND
     1    26    27   am
     2    27    28    2
     3    27    29   am
     4    29    20    1
     5    20    21   ar
     6    21    22   ar
     7    22    23   ar
     8    23    24   ar
     9    24    19    1
    10     1    19    1
    11     1     2    1
    12     2     3   ar
    13     3     4   ar
    14     4     5   ar
    15     5     6   ar
    16     6     7   ar
    17     7     8    1
    18     8     9    1
    19     9    10    1
    20    10    11    1
    21    11    12    1
    22    12    13    1
    23    13    14    1
    24    14    15    1
    25    14    16    1
    26    24    25   ar
    27    25    20   ar
    28     9     1    1
    29    16    10    1
    30     7     2   ar
    31    26    30    1
    32    26    31    1
    33    29    32    1
    34    15    17    1
    35    15    18    1
@<TRIPOS>MOLECULE
*****
 32 35 0 0 0
SMALL
GASTEIGER

@<TRIPOS>ATOM
      1 C          -6.1522  -17.9883   22.6986 C.3     1  UNL1        0.2026
      2 C          -4.6596  -18.0775   22.5788 C.ar    1  UNL1        0.0146
      3 C          -3.5607  -17.1544   23.0148 C.ar    1  UNL1       -0.0011
      4 C          -2.1289  -17.5167   22.7532 C.ar    1  UNL1       -0.0002
      5 C          -1.7959  -18.8022   22.0556 C.ar    1  UNL1       -0.0003
      6 C          -2.8948  -19.7254   21.6196 C.ar    1  UNL1       -0.0044
      7 C          -4.3267  -19.3630   21.8812 C.ar    1  UNL1       -0.0213
      8 C          -5.6134  -20.0682   21.5698 C.3     1  UNL1        0.0461
      9 C          -6.7417  -19.2186   22.0750 C.3     1  UNL1        0.1066
     10 N          -8.2029  -19.5424   21.9743 N.3     1  UNL1       -0.2692
     11 C          -8.9087  -20.1905   23.1283 C.3     1  UNL1        0.0723
     12 C         -10.3699  -20.5143   23.0276 C.3     1  UNL1        0.0187
     13 C         -11.1252  -20.1900   21.7729 C.3     1  UNL1        0.0183
     14 C         -10.4193  -19.5420   20.6189 C.3     1  UNL1        0.0670
     15 N         -11.1747  -19.2177   19.3641 N.3     1  UNL1       -0.3211
     16 C          -8.9582  -19.2181   20.7196 C.3     1  UNL1        0.0878
     17 H         -10.5437  -18.7844   18.6899 H       1  UNL1        0.1189
     18 H         -11.9345  -18.5729   19.5817 H       1  UNL1        0.1189
     19 O          -6.9203  -16.8658   23.3309 O.3     1  UNL1       -0.4733
     20 C         -10.8875  -16.7750   23.2705 C.ar    1  UNL1        0.0546
     21 C         -11.1341  -15.9988   22.0109 C.ar    1  UNL1        0.0149
     22 C          -9.9761  -15.5116   21.1913 C.ar    1  UNL1        0.0044
     23 C          -8.5716  -15.8005   21.6313 C.ar    1  UNL1        0.0370
     24 C          -8.3249  -16.5768   22.8909 C.ar    1  UNL1        0.1402
     25 C          -9.4829  -17.0640   23.7105 C.ar    1  UNL1        0.0516
     26 N         -14.4442  -18.2500   24.2317 N.am    1  UNL1       -0.3131
     27 C         -13.2863  -17.7627   23.4122 C.2     1  UNL1        0.3013
     28 O         -13.3693  -17.7759   21.9145 O.2     1  UNL1       -0.2527
     29 N         -12.0454  -17.2623   24.0902 N.am    1  UNL1       -0.2684
     30 H         -15.2586  -18.5785   23.7867 H       1  UNL1        0.1465
     31 H         -14.3898  -18.2414   25.2147 H       1  UNL1        0.1465
     32 H         -11.9909  -17.2537   25.0731 H       1  UNL1        0.1564
@<TRIPOS>BOND
     1    26    27   am
     2    27    28    2
     3    27    29   am
     4    29    20    1
     5    20    21   ar
     6    21    22   ar
     7    22    23   ar
     8    23    24   ar
     9    24    19    1
    10     1    19    1
    11     1     2    1
    12     2     3   ar
    13     3     4   ar
    14     4     5   ar
    15     5     6   ar
    16     6     7   ar
    17     7     8    1
    18     8     9    1
    19     9    10    1
    20    10    11    1
    21    11    12    1
    22    12    13    1
    23    13    14    1
    24    14    15    1
    25    14    16    1
    26    24    25   ar
    27    25    20   ar
    28     9     1    1
    29    16    10    1
    30     7     2   ar
    31    26    30    1
    32    26    31    1
    33    29    32    1
    34    15    17    1
    35    15    18    1
@<TRIPOS>MOLECULE
*****
 32 35 0 0 0
SMALL
GASTEIGER

@<TRIPOS>ATOM
      1 C           6.0140   -2.8884   22.9068 C.3     1  UNL1        0.2026
      2 C           5.5310   -3.1861   21.5183 C.ar    1  UNL1        0.0146
      3 C           6.1355   -3.9708   20.3919 C.ar    1  UNL1       -0.0011
      4 C           5.4035   -4.0982   19.0889 C.ar    1  UNL1       -0.0002
      5 C           4.0668   -3.4408   18.9123 C.ar    1  UNL1       -0.0003
      6 C           3.4622   -2.6561   20.0386 C.ar    1  UNL1       -0.0044
      7 C           4.1943   -2.5287   21.3416 C.ar    1  UNL1       -0.0213
      8 C           3.8513   -1.8248   22.6210 C.3     1  UNL1        0.0461
      9 C           4.9759   -2.0471   23.5883 C.3     1  UNL1        0.1066
     10 N           5.0495   -1.5205   24.9909 N.3     1  UNL1       -0.2692
     11 C           6.3359   -0.9515   25.5119 C.3     1  UNL1        0.0723
     12 C           6.4095   -0.4249   26.9145 C.3     1  UNL1        0.0187
     13 C           5.1967   -0.4673   27.7961 C.3     1  UNL1        0.0183
     14 C           3.9103   -1.0363   27.2752 C.3     1  UNL1        0.0670
     15 N           2.6975   -1.0788   28.1568 N.3     1  UNL1       -0.3211
     16 C           3.8367   -1.5629   25.8726 C.3     1  UNL1        0.0878
     17 H           1.9192   -1.4939   27.6447 H       1  UNL1        0.1189
     18 H           2.4504   -0.1309   28.4411 H       1  UNL1        0.1189
     19 O           7.3080   -3.3509   23.5082 O.3     1  UNL1       -0.4733
     20 C           6.8117   -5.8660   26.5378 C.ar    1  UNL1        0.0546
     21 C           7.4256   -7.1132   25.9742 C.ar    1  UNL1        0.0149
     22 C           8.0002   -7.1063   24.5887 C.ar    1  UNL1        0.0044
     23 C           7.9610   -5.8523   23.7667 C.ar    1  UNL1        0.0370
     24 C           7.3472   -4.6050   24.3302 C.ar    1  UNL1        0.1402
     25 C           6.7725   -4.6119   25.7158 C.ar    1  UNL1        0.0516
     26 N           6.5481   -5.6116   30.4895 N.am    1  UNL1       -0.3131
     27 C           7.1227   -5.6048   29.1039 C.2     1  UNL1        0.3013
     28 O           8.5830   -5.3300   28.8990 O.2     1  UNL1       -0.2527
     29 N           6.2370   -5.8728   27.9233 N.am    1  UNL1       -0.2684
     30 H           7.1294   -5.4357   31.2643 H       1  UNL1        0.1465
     31 H           5.5897   -5.7919   30.6240 H       1  UNL1        0.1465
     32 H           5.2786   -6.0531   28.0578 H       1  UNL1        0.1564
@<TRIPOS>BOND
     1    26    27   am
     2    27    28    2
     3    27    29   am
     4    29    20    1
     5    20    21   ar
     6    21    22   ar
     7    22    23   ar
     8    23    24   ar
     9    24    19    1
    10     1    19    1
    11     1     2    1
    12     2     3   ar
    13     3     4   ar
    14     4     5   ar
    15     5     6   ar
    16     6     7   ar
    17     7     8    1
    18     8     9    1
    19     9    10    1
    20    10    11    1
    21    11    12    1
    22    12    13    1
    23    13    14    1
    24    14    15    1
    25    14    16    1
    26    24    25   ar
    27    25    20   ar
    28     9     1    1
    29    16    10    1
    30     7     2   ar
    31    26    30    1
    32    26    31    1
    33    29    32    1
    34    15    17    1
    35    15    18    1
@<TRIPOS>MOLECULE
*****
 32 35 0 0 0
SMALL
GASTEIGER

@<TRIPOS>ATOM
      1 C          -7.2923  -18.1946   21.3549 C.3     1  UNL1        0.2026
      2 C          -6.1407  -19.0247   20.8705 C.ar    1  UNL1        0.0146
      3 C          -4.6721  -18.7389   20.7641 C.ar    1  UNL1       -0.0011
      4 C          -3.7410  -19.7863   20.2294 C.ar    1  UNL1       -0.0002
      5 C          -4.2785  -21.1195   19.8009 C.ar    1  UNL1       -0.0003
      6 C          -5.7472  -21.4053   19.9073 C.ar    1  UNL1       -0.0044
      7 C          -6.6782  -20.3579   20.4421 C.ar    1  UNL1       -0.0213
      8 C          -8.1621  -20.3517   20.6617 C.3     1  UNL1        0.0461
      9 C          -8.5416  -19.0147   21.2259 C.3     1  UNL1        0.1066
     10 N          -9.9271  -18.5750   21.5961 N.3     1  UNL1       -0.2692
     11 C         -10.5614  -19.0782   22.8587 C.3     1  UNL1        0.0723
     12 C         -11.9469  -18.6385   23.2289 C.3     1  UNL1        0.0187
     13 C         -12.6981  -17.6957   22.3364 C.3     1  UNL1        0.0183
     14 C         -12.0638  -17.1925   21.0737 C.3     1  UNL1        0.0670
     15 N         -12.8150  -16.2495   20.1811 N.3     1  UNL1       -0.3211
     16 C         -10.6783  -17.6321   20.7035 C.3     1  UNL1        0.0878
     17 H         -12.2376  -16.0123   19.3744 H       1  UNL1        0.1189
     18 H         -13.0422  -15.4001   20.6982 H       1  UNL1        0.1189
     19 O          -7.2092  -16.7907   21.8767 O.3     1  UNL1       -0.4733
     20 C          -6.4577  -15.4499   25.5356 C.ar    1  UNL1        0.0546
     21 C          -5.0578  -15.9492   25.7385 C.ar    1  UNL1        0.0149
     22 C          -4.3751  -16.7289   24.6541 C.ar    1  UNL1        0.0044
     23 C          -5.0922  -17.0095   23.3669 C.ar    1  UNL1        0.0370
     24 C          -6.4921  -16.5102   23.1639 C.ar    1  UNL1        0.1402
     25 C          -7.1748  -15.7304   24.2484 C.ar    1  UNL1        0.0516
     26 N          -8.9477  -14.5105   28.4796 N.am    1  UNL1       -0.3131
     27 C          -8.2649  -15.2902   27.3953 C.2     1  UNL1        0.3013
     28 O          -8.7066  -16.6899   27.0862 O.2     1  UNL1       -0.2527
     29 N          -7.1404  -14.6701   26.6200 N.am    1  UNL1       -0.2684
     30 H          -9.6857  -14.9175   28.9884 H       1  UNL1        0.1465
     31 H          -8.6578  -13.5917   28.6824 H       1  UNL1        0.1465
     32 H          -6.8505  -13.7514   26.8228 H       1  UNL1        0.1564
@<TRIPOS>BOND
     1    26    27   am
     2    27    28    2
     3    27    29   am
     4    29    20    1
     5    20    21   ar
     6    21    22   ar
     7    22    23   ar
     8    23    24   ar
     9    24    19    1
    10     1    19    1
    11     1     2    1
    12     2     3   ar
    13     3     4   ar
    14     4     5   ar
    15     5     6   ar
    16     6     7   ar
    17     7     8    1
    18     8     9    1
    19     9    10    1
    20    10    11    1
    21    11    12    1
    22    12    13    1
    23    13    14    1
    24    14    15    1
    25    14    16    1
    26    24    25   ar
    27    25    20   ar
    28     9     1    1
    29    16    10    1
    30     7     2   ar
    31    26    30    1
    32    26    31    1
    33    29    32    1
    34    15    17    1
    35    15    18    1
