@<TRIPOS>MOLECULE
*****
 27 30 0 0 0
SMALL
GASTEIGER

@<TRIPOS>ATOM
      1 C          -8.3242  -17.1492   23.7544 C.ar    1  UNL1        0.0686
      2 C          -7.3072  -17.6108   22.7531 C.ar    1  UNL1        0.1144
      3 N          -5.9583  -17.1431   23.2133 N.ar    1  UNL1       -0.2064
      4 C          -6.1417  -16.3925   24.4990 C.ar    1  UNL1        0.0838
      5 C          -5.1661  -15.7060   25.4084 C.ar    1  UNL1        0.0195
      6 C          -5.6528  -15.0234   26.6522 C.ar    1  UNL1        0.0082
      7 C          -7.1151  -15.0271   26.9866 C.ar    1  UNL1        0.0347
      8 BR         -7.6017  -14.3444   28.2304 Br      1  UNL1       -0.0490
      9 C          -8.0906  -15.7136   26.0772 C.ar    1  UNL1        0.0095
     10 C          -7.6039  -16.3962   24.8334 C.ar    1  UNL1        0.0328
     11 C         -14.2359  -18.1404   23.4898 C.3     1  UNL1        0.0897
     12 N         -12.7580  -17.8926   23.5559 N.3     1  UNL1       -0.2686
     13 C         -11.8983  -18.7221   24.4630 C.3     1  UNL1        0.0938
     14 C         -10.4203  -18.4743   24.5291 C.3     1  UNL1        0.1082
     15 N          -9.8021  -17.3970   23.6882 N.pl3   1  UNL1       -0.3034
     16 C         -10.6619  -16.5675   22.7811 C.3     1  UNL1        0.1082
     17 C         -12.1398  -16.8153   22.7150 C.3     1  UNL1        0.0938
     18 S          -4.6548  -17.3838   22.5112 S.O2    1  UNL1        0.0860
     19 O          -5.1078  -18.7657   22.1439 O.2     1  UNL1       -0.1476
     20 O          -4.2018  -16.0018   22.8784 O.2     1  UNL1       -0.1476
     21 C          -3.3513  -17.6243   21.8090 C.ar    1  UNL1        0.1278
     22 C          -3.0349  -18.9838   21.2597 C.ar    1  UNL1        0.0227
     23 C          -1.7315  -19.2243   20.5576 C.ar    1  UNL1        0.0310
     24 C          -0.7442  -18.1053   20.4047 C.ar    1  UNL1        0.1402
     25 F           0.5592  -18.3459   19.7026 F       1  UNL1       -0.2042
     26 C          -1.0606  -16.7459   20.9541 C.ar    1  UNL1        0.0310
     27 C          -2.3641  -16.5054   21.6562 C.ar    1  UNL1        0.0227
@<TRIPOS>BOND
     1    11    12    1
     2    12    13    1
     3    13    14    1
     4    14    15    1
     5    15     1    1
     6     1     2   ar
     7     2     3   ar
     8     3    18    1
     9    18    19    2
    10    18    20    2
    11    18    21    1
    12    21    22   ar
    13    22    23   ar
    14    23    24   ar
    15    24    25    1
    16    24    26   ar
    17    26    27   ar
    18     3     4   ar
    19     4     5   ar
    20     5     6   ar
    21     6     7   ar
    22     7     8    1
    23     7     9   ar
    24     9    10   ar
    25    15    16    1
    26    16    17    1
    27    17    12    1
    28    10     1   ar
    29    27    21   ar
    30    10     4   ar
@<TRIPOS>MOLECULE
*****
 27 30 0 0 0
SMALL
GASTEIGER

@<TRIPOS>ATOM
      1 C          -1.2899    3.1209   20.6125 C.ar    1  UNL1        0.0686
      2 C          -0.5836    1.7982   20.5737 C.ar    1  UNL1        0.1144
      3 N           0.6026    1.9326   19.6655 N.ar    1  UNL1       -0.2064
      4 C           0.6295    3.3385   19.1431 C.ar    1  UNL1        0.0838
      5 C           1.5679    4.0447   18.2101 C.ar    1  UNL1        0.0195
      6 C           1.3366    5.4854   17.8624 C.ar    1  UNL1        0.0082
      7 C           0.1670    6.2198   18.4477 C.ar    1  UNL1        0.0347
      8 BR         -0.0643    7.6606   18.0999 Br      1  UNL1       -0.0490
      9 C          -0.7714    5.5136   19.3807 C.ar    1  UNL1        0.0095
     10 C          -0.5402    4.0729   19.7284 C.ar    1  UNL1        0.0328
     11 C          -6.2441    4.3827   23.7533 C.3     1  UNL1        0.0897
     12 N          -5.0055    4.0673   22.9681 N.3     1  UNL1       -0.2686
     13 C          -5.1186    3.5544   21.5631 C.3     1  UNL1        0.0938
     14 C          -3.8800    3.2389   20.7779 C.3     1  UNL1        0.1082
     15 N          -2.5285    3.4364   21.3977 N.pl3   1  UNL1       -0.3034
     16 C          -2.4154    3.9493   22.8028 C.3     1  UNL1        0.1082
     17 C          -3.6540    4.2647   23.5880 C.3     1  UNL1        0.0938
     18 S           1.5888    0.8511   19.3373 S.O2    1  UNL1        0.0860
     19 O           2.2975    1.1036   20.6349 O.2     1  UNL1       -0.1476
     20 O           0.8801    0.5987   18.0396 O.2     1  UNL1       -0.1476
     21 C           2.5751   -0.2304   19.0091 C.ar    1  UNL1        0.1278
     22 C           2.7669   -1.3817   19.9512 C.ar    1  UNL1        0.0227
     23 C           3.7530   -2.4632   19.6229 C.ar    1  UNL1        0.0310
     24 C           4.5475   -2.3933   18.3524 C.ar    1  UNL1        0.1402
     25 F           5.5337   -3.4748   18.0242 F       1  UNL1       -0.2042
     26 C           4.3557   -1.2420   17.4103 C.ar    1  UNL1        0.0310
     27 C           3.3695   -0.1605   17.7386 C.ar    1  UNL1        0.0227
@<TRIPOS>BOND
     1    11    12    1
     2    12    13    1
     3    13    14    1
     4    14    15    1
     5    15     1    1
     6     1     2   ar
     7     2     3   ar
     8     3    18    1
     9    18    19    2
    10    18    20    2
    11    18    21    1
    12    21    22   ar
    13    22    23   ar
    14    23    24   ar
    15    24    25    1
    16    24    26   ar
    17    26    27   ar
    18     3     4   ar
    19     4     5   ar
    20     5     6   ar
    21     6     7   ar
    22     7     8    1
    23     7     9   ar
    24     9    10   ar
    25    15    16    1
    26    16    17    1
    27    17    12    1
    28    10     1   ar
    29    27    21   ar
    30    10     4   ar
@<TRIPOS>MOLECULE
*****
 27 30 0 0 0
SMALL
GASTEIGER

@<TRIPOS>ATOM
      1 C           2.7857    1.8307   33.5556 C.ar    1  UNL1        0.0686
      2 C           3.2623    0.9242   32.4596 C.ar    1  UNL1        0.1144
      3 N           4.2426   -0.0440   33.0524 N.ar    1  UNL1       -0.2064
      4 C           4.3719    0.2640   34.5147 C.ar    1  UNL1        0.0838
      5 C           5.1932   -0.3609   35.6033 C.ar    1  UNL1        0.0195
      6 C           5.1141    0.1729   37.0028 C.ar    1  UNL1        0.0082
      7 C           4.2137    1.3315   37.3138 C.ar    1  UNL1        0.0347
      8 BR          4.1346    1.8653   38.7134 Br      1  UNL1       -0.0490
      9 C           3.3924    1.9564   36.2253 C.ar    1  UNL1        0.0095
     10 C           3.4715    1.4226   34.8257 C.ar    1  UNL1        0.0328
     11 C          -1.1694    6.3035   32.9632 C.3     1  UNL1        0.0897
     12 N          -0.1807    5.1853   33.1113 N.3     1  UNL1       -0.2686
     13 C           0.7368    5.1476   34.2973 C.3     1  UNL1        0.0938
     14 C           1.7256    4.0294   34.4454 C.3     1  UNL1        0.1082
     15 N           1.7969    2.9489   33.4075 N.pl3   1  UNL1       -0.3034
     16 C           0.8794    2.9866   32.2214 C.3     1  UNL1        0.1082
     17 C          -0.1094    4.1048   32.0733 C.3     1  UNL1        0.0938
     18 S           4.9665   -1.1298   32.3127 S.O2    1  UNL1        0.0860
     19 O           6.1204   -0.2006   32.0781 O.2     1  UNL1       -0.1476
     20 O           3.8126   -2.0590   32.5473 O.2     1  UNL1       -0.1476
     21 C           5.6904   -2.2156   31.5730 C.ar    1  UNL1        0.1278
     22 C           6.2151   -3.4083   32.3161 C.ar    1  UNL1        0.0227
     23 C           6.9389   -4.4939   31.5764 C.ar    1  UNL1        0.0310
     24 C           7.1382   -4.3870   30.0935 C.ar    1  UNL1        0.1402
     25 F           7.8620   -5.4728   29.3539 F       1  UNL1       -0.2042
     26 C           6.6135   -3.1943   29.3504 C.ar    1  UNL1        0.0310
     27 C           5.8896   -2.1086   30.0902 C.ar    1  UNL1        0.0227
@<TRIPOS>BOND
     1    11    12    1
     2    12    13    1
     3    13    14    1
     4    14    15    1
     5    15     1    1
     6     1     2   ar
     7     2     3   ar
     8     3    18    1
     9    18    19    2
    10    18    20    2
    11    18    21    1
    12    21    22   ar
    13    22    23   ar
    14    23    24   ar
    15    24    25    1
    16    24    26   ar
    17    26    27   ar
    18     3     4   ar
    19     4     5   ar
    20     5     6   ar
    21     6     7   ar
    22     7     8    1
    23     7     9   ar
    24     9    10   ar
    25    15    16    1
    26    16    17    1
    27    17    12    1
    28    10     1   ar
    29    27    21   ar
    30    10     4   ar
@<TRIPOS>MOLECULE
*****
 27 30 0 0 0
SMALL
GASTEIGER

@<TRIPOS>ATOM
      1 C          -1.4032    3.2002   20.8929 C.ar    1  UNL1        0.0686
      2 C          -0.5820    2.4274   19.9038 C.ar    1  UNL1        0.1144
      3 N           0.3940    1.5845   20.6698 N.ar    1  UNL1       -0.2064
      4 C           0.1761    1.8364   22.1324 C.ar    1  UNL1        0.0838
      5 C           0.8456    1.2854   23.3564 C.ar    1  UNL1        0.0195
      6 C           0.4043    1.7330   24.7183 C.ar    1  UNL1        0.0082
      7 C          -0.7065    2.7316   24.8562 C.ar    1  UNL1        0.0347
      8 BR         -1.1478    3.1793   26.2182 Br      1  UNL1       -0.0490
      9 C          -1.3760    3.2826   23.6322 C.ar    1  UNL1        0.0095
     10 C          -0.9347    2.8349   22.2703 C.ar    1  UNL1        0.0328
     11 C          -5.7916    7.0730   19.5722 C.3     1  UNL1        0.0897
     12 N          -4.6945    6.1048   19.9024 N.3     1  UNL1       -0.2686
     13 C          -4.8872    4.6387   19.6510 C.3     1  UNL1        0.0938
     14 C          -3.7901    3.6705   19.9812 C.3     1  UNL1        0.1082
     15 N          -2.5003    4.1684   20.5628 N.pl3   1  UNL1       -0.3034
     16 C          -2.3075    5.6346   20.8142 C.3     1  UNL1        0.1082
     17 C          -3.4046    6.6028   20.4840 C.3     1  UNL1        0.0938
     18 S           1.4097    0.6532   20.0773 S.O2    1  UNL1        0.0860
     19 O           0.5201   -0.5140   20.3868 O.2     1  UNL1       -0.1476
     20 O           2.2995    1.8205   19.7678 O.2     1  UNL1       -0.1476
     21 C           2.4255   -0.2780   19.4848 C.ar    1  UNL1        0.1278
     22 C           3.0859    0.0631   18.1819 C.ar    1  UNL1        0.0227
     23 C           4.1016   -0.8681   17.5895 C.ar    1  UNL1        0.0310
     24 C           4.4570   -2.1406   18.2999 C.ar    1  UNL1        0.1402
     25 F           5.4727   -3.0718   17.7074 F       1  UNL1       -0.2042
     26 C           3.7966   -2.4817   19.6027 C.ar    1  UNL1        0.0310
     27 C           2.7808   -1.5504   20.1952 C.ar    1  UNL1        0.0227
@<TRIPOS>BOND
     1    11    12    1
     2    12    13    1
     3    13    14    1
     4    14    15    1
     5    15     1    1
     6     1     2   ar
     7     2     3   ar
     8     3    18    1
     9    18    19    2
    10    18    20    2
    11    18    21    1
    12    21    22   ar
    13    22    23   ar
    14    23    24   ar
    15    24    25    1
    16    24    26   ar
    17    26    27   ar
    18     3     4   ar
    19     4     5   ar
    20     5     6   ar
    21     6     7   ar
    22     7     8    1
    23     7     9   ar
    24     9    10   ar
    25    15    16    1
    26    16    17    1
    27    17    12    1
    28    10     1   ar
    29    27    21   ar
    30    10     4   ar
@<TRIPOS>MOLECULE
*****
 27 30 0 0 0
SMALL
GASTEIGER

@<TRIPOS>ATOM
      1 C          -1.1568    3.1470   21.5495 C.ar    1  UNL1        0.0686
      2 C          -0.1576    2.0283   21.5448 C.ar    1  UNL1        0.1144
      3 N           0.3510    1.8671   20.1429 N.ar    1  UNL1       -0.2064
      4 C          -0.3338    2.8862   19.2812 C.ar    1  UNL1        0.0838
      5 C          -0.2292    3.1960   17.8173 C.ar    1  UNL1        0.0195
      6 C          -1.0565    4.2969   17.2228 C.ar    1  UNL1        0.0082
      7 C          -1.9884    5.0880   18.0921 C.ar    1  UNL1        0.0347
      8 BR         -2.8157    6.1890   17.4975 Br      1  UNL1       -0.0490
      9 C          -2.0930    4.7782   19.5560 C.ar    1  UNL1        0.0095
     10 C          -1.2657    3.6772   20.1505 C.ar    1  UNL1        0.0328
     11 C          -4.1864    5.1497   26.3256 C.3     1  UNL1        0.0897
     12 N          -3.4290    4.6490   25.1316 N.3     1  UNL1       -0.2686
     13 C          -1.9291    4.6444   25.1427 C.3     1  UNL1        0.0938
     14 C          -1.1717    4.1438   23.9487 C.3     1  UNL1        0.1082
     15 N          -1.9142    3.6477   22.7435 N.pl3   1  UNL1       -0.3034
     16 C          -3.4142    3.6523   22.7324 C.3     1  UNL1        0.1082
     17 C          -4.1716    4.1530   23.9264 C.3     1  UNL1        0.0938
     18 S           1.3662    0.8630   19.6833 S.O2    1  UNL1        0.0860
     19 O           2.3055    1.9764   19.3256 O.2     1  UNL1       -0.1476
     20 O           0.4270   -0.2505   20.0410 O.2     1  UNL1       -0.1476
     21 C           2.3814   -0.1411   19.2237 C.ar    1  UNL1        0.1278
     22 C           3.0788    0.0452   17.9089 C.ar    1  UNL1        0.0227
     23 C           4.0939   -0.9589   17.4494 C.ar    1  UNL1        0.0310
     24 C           4.4117   -2.1495   18.3048 C.ar    1  UNL1        0.1402
     25 F           5.4269   -3.1535   17.8452 F       1  UNL1       -0.2042
     26 C           3.7143   -2.3358   19.6197 C.ar    1  UNL1        0.0310
     27 C           2.6992   -1.3316   20.0791 C.ar    1  UNL1        0.0227
@<TRIPOS>BOND
     1    11    12    1
     2    12    13    1
     3    13    14    1
     4    14    15    1
     5    15     1    1
     6     1     2   ar
     7     2     3   ar
     8     3    18    1
     9    18    19    2
    10    18    20    2
    11    18    21    1
    12    21    22   ar
    13    22    23   ar
    14    23    24   ar
    15    24    25    1
    16    24    26   ar
    17    26    27   ar
    18     3     4   ar
    19     4     5   ar
    20     5     6   ar
    21     6     7   ar
    22     7     8    1
    23     7     9   ar
    24     9    10   ar
    25    15    16    1
    26    16    17    1
    27    17    12    1
    28    10     1   ar
    29    27    21   ar
    30    10     4   ar
@<TRIPOS>MOLECULE
*****
 27 30 0 0 0
SMALL
GASTEIGER

@<TRIPOS>ATOM
      1 C          -1.3672    2.5724   26.5330 C.ar    1  UNL1        0.0686
      2 C          -2.6671    3.2056   26.9319 C.ar    1  UNL1        0.1144
      3 N          -3.2856    3.8069   25.7048 N.ar    1  UNL1       -0.2064
      4 C          -2.3680    3.5453   24.5474 C.ar    1  UNL1        0.0838
      5 C          -2.4588    3.9033   23.0936 C.ar    1  UNL1        0.0195
      6 C          -1.3640    3.4983   22.1517 C.ar    1  UNL1        0.0082
      7 C          -0.1783    2.7353   22.6635 C.ar    1  UNL1        0.0347
      8 BR          0.9165    2.3303   21.7215 Br      1  UNL1       -0.0490
      9 C          -0.0875    2.3773   24.1173 C.ar    1  UNL1        0.0095
     10 C          -1.1823    2.7823   25.0593 C.ar    1  UNL1        0.0328
     11 C           2.4270   -0.2967   30.1898 C.3     1  UNL1        0.0897
     12 N           1.4785    0.4205   29.2756 N.3     1  UNL1       -0.2686
     13 C           1.8604    1.7475   28.6899 C.3     1  UNL1        0.0938
     14 C           0.9119    2.4648   27.7756 C.3     1  UNL1        0.1082
     15 N          -0.4186    1.8551   27.4472 N.pl3   1  UNL1       -0.3034
     16 C          -0.8006    0.5281   28.0330 C.3     1  UNL1        0.1082
     17 C           0.1479   -0.1892   28.9472 C.3     1  UNL1        0.0938
     18 S          -4.5924    4.5410   25.6454 S.O2    1  UNL1        0.0860
     19 O          -3.8954    5.8128   26.0281 O.2     1  UNL1       -0.1476
     20 O          -5.2894    3.2691   25.2627 O.2     1  UNL1       -0.1476
     21 C          -5.8992    5.2750   25.5860 C.ar    1  UNL1        0.1278
     22 C          -6.3660    6.0724   26.7675 C.ar    1  UNL1        0.0227
     23 C          -7.6728    6.8063   26.7081 C.ar    1  UNL1        0.0310
     24 C          -8.5129    6.7429   25.4670 C.ar    1  UNL1        0.1402
     25 F          -9.8197    7.4768   25.4076 F       1  UNL1       -0.2042
     26 C          -8.0461    5.9454   24.2854 C.ar    1  UNL1        0.0310
     27 C          -6.7393    5.2114   24.3449 C.ar    1  UNL1        0.0227
@<TRIPOS>BOND
     1    11    12    1
     2    12    13    1
     3    13    14    1
     4    14    15    1
     5    15     1    1
     6     1     2   ar
     7     2     3   ar
     8     3    18    1
     9    18    19    2
    10    18    20    2
    11    18    21    1
    12    21    22   ar
    13    22    23   ar
    14    23    24   ar
    15    24    25    1
    16    24    26   ar
    17    26    27   ar
    18     3     4   ar
    19     4     5   ar
    20     5     6   ar
    21     6     7   ar
    22     7     8    1
    23     7     9   ar
    24     9    10   ar
    25    15    16    1
    26    16    17    1
    27    17    12    1
    28    10     1   ar
    29    27    21   ar
    30    10     4   ar
@<TRIPOS>MOLECULE
*****
 27 30 0 0 0
SMALL
GASTEIGER

@<TRIPOS>ATOM
      1 C           2.6366   -0.1000   23.5875 C.ar    1  UNL1        0.0686
      2 C           1.6979    0.9618   23.0962 C.ar    1  UNL1        0.1144
      3 N           1.5251    0.7795   21.6173 N.ar    1  UNL1       -0.2064
      4 C           2.3570   -0.3949   21.1947 C.ar    1  UNL1        0.0838
      5 C           2.5777   -1.0396   19.8584 C.ar    1  UNL1        0.0195
      6 C           3.4854   -2.2278   19.7398 C.ar    1  UNL1        0.0082
      7 C           4.1723   -2.7714   20.9574 C.ar    1  UNL1        0.0347
      8 BR          5.0801   -3.9597   20.8387 Br      1  UNL1       -0.0490
      9 C           3.9516   -2.1267   22.2937 C.ar    1  UNL1        0.0095
     10 C           3.0439   -0.9385   22.4123 C.ar    1  UNL1        0.0328
     11 C           4.4447   -0.8598   29.2579 C.3     1  UNL1        0.0897
     12 N           3.9927   -0.6699   27.8403 N.3     1  UNL1       -0.2686
     13 C           4.5099   -1.5736   26.7607 C.3     1  UNL1        0.0938
     14 C           4.0579   -1.3836   25.3431 C.3     1  UNL1        0.1082
     15 N           3.0886   -0.2900   25.0051 N.pl3   1  UNL1       -0.3034
     16 C           2.5714    0.6139   26.0848 C.3     1  UNL1        0.1082
     17 C           3.0234    0.4239   27.5024 C.3     1  UNL1        0.0938
     18 S           0.6704    1.6235   20.7189 S.O2    1  UNL1        0.0860
     19 O          -0.3473    0.5236   20.6537 O.2     1  UNL1       -0.1476
     20 O           1.6882    2.7235   20.7841 O.2     1  UNL1       -0.1476
     21 C          -0.1842    2.4676   19.8204 C.ar    1  UNL1        0.1278
     22 C          -1.4592    3.0628   20.3400 C.ar    1  UNL1        0.0227
     23 C          -2.3137    3.9068   19.4416 C.ar    1  UNL1        0.0310
     24 C          -1.8933    4.1557   18.0233 C.ar    1  UNL1        0.1402
     25 F          -2.7478    4.9997   17.1249 F       1  UNL1       -0.2042
     26 C          -0.6183    3.5605   17.5037 C.ar    1  UNL1        0.0310
     27 C           0.2363    2.7164   18.4022 C.ar    1  UNL1        0.0227
@<TRIPOS>BOND
     1    11    12    1
     2    12    13    1
     3    13    14    1
     4    14    15    1
     5    15     1    1
     6     1     2   ar
     7     2     3   ar
     8     3    18    1
     9    18    19    2
    10    18    20    2
    11    18    21    1
    12    21    22   ar
    13    22    23   ar
    14    23    24   ar
    15    24    25    1
    16    24    26   ar
    17    26    27   ar
    18     3     4   ar
    19     4     5   ar
    20     5     6   ar
    21     6     7   ar
    22     7     8    1
    23     7     9   ar
    24     9    10   ar
    25    15    16    1
    26    16    17    1
    27    17    12    1
    28    10     1   ar
    29    27    21   ar
    30    10     4   ar
@<TRIPOS>MOLECULE
*****
 27 30 0 0 0
SMALL
GASTEIGER

@<TRIPOS>ATOM
      1 C           6.9534   -3.6722   26.6026 C.ar    1  UNL1        0.0686
      2 C           6.3044   -2.9007   25.4919 C.ar    1  UNL1        0.1144
      3 N           6.4928   -3.6728   24.2197 N.ar    1  UNL1       -0.2064
      4 C           7.2582   -4.9214   24.5441 C.ar    1  UNL1        0.0838
      5 C           7.7327   -6.0585   23.6888 C.ar    1  UNL1        0.0195
      6 C           8.4918   -7.1954   24.3062 C.ar    1  UNL1        0.0082
      7 C           8.7765   -7.1950   25.7790 C.ar    1  UNL1        0.0347
      8 BR          9.5357   -8.3319   26.3964 Br      1  UNL1       -0.0490
      9 C           8.3020   -6.0578   26.6343 C.ar    1  UNL1        0.0095
     10 C           7.5428   -4.9210   26.0169 C.ar    1  UNL1        0.0328
     11 C           7.1558   -2.0482   32.3751 C.3     1  UNL1        0.0897
     12 N           7.1052   -2.4542   30.9320 N.3     1  UNL1       -0.2686
     13 C           7.5607   -1.5001   29.8680 C.3     1  UNL1        0.0938
     14 C           7.5101   -1.9061   28.4249 C.3     1  UNL1        0.1082
     15 N           7.0040   -3.2662   28.0457 N.pl3   1  UNL1       -0.3034
     16 C           6.5484   -4.2204   29.1098 C.3     1  UNL1        0.1082
     17 C           6.5991   -3.8144   30.5529 C.3     1  UNL1        0.0938
     18 S           6.0020   -3.2674   22.8615 S.O2    1  UNL1        0.0860
     19 O           4.6484   -3.8276   23.1834 O.2     1  UNL1       -0.1476
     20 O           7.3557   -2.7072   22.5395 O.2     1  UNL1       -0.1476
     21 C           5.5113   -2.8620   21.5032 C.ar    1  UNL1        0.1278
     22 C           6.3583   -3.1189   20.2921 C.ar    1  UNL1        0.0227
     23 C           5.8675   -2.7135   18.9340 C.ar    1  UNL1        0.0310
     24 C           4.5297   -2.0511   18.7867 C.ar    1  UNL1        0.1402
     25 F           4.0390   -1.6457   17.4285 F       1  UNL1       -0.2042
     26 C           3.6827   -1.7943   19.9978 C.ar    1  UNL1        0.0310
     27 C           4.1735   -2.1997   21.3560 C.ar    1  UNL1        0.0227
@<TRIPOS>BOND
     1    11    12    1
     2    12    13    1
     3    13    14    1
     4    14    15    1
     5    15     1    1
     6     1     2   ar
     7     2     3   ar
     8     3    18    1
     9    18    19    2
    10    18    20    2
    11    18    21    1
    12    21    22   ar
    13    22    23   ar
    14    23    24   ar
    15    24    25    1
    16    24    26   ar
    17    26    27   ar
    18     3     4   ar
    19     4     5   ar
    20     5     6   ar
    21     6     7   ar
    22     7     8    1
    23     7     9   ar
    24     9    10   ar
    25    15    16    1
    26    16    17    1
    27    17    12    1
    28    10     1   ar
    29    27    21   ar
    30    10     4   ar
@<TRIPOS>MOLECULE
*****
 27 30 0 0 0
SMALL
GASTEIGER

@<TRIPOS>ATOM
      1 C           2.3621    3.4328   34.5764 C.ar    1  UNL1        0.0686
      2 C           2.3734    2.6742   33.2824 C.ar    1  UNL1        0.1144
      3 N           1.2884    3.2313   32.4092 N.ar    1  UNL1       -0.2064
      4 C           0.6067    4.3341   33.1634 C.ar    1  UNL1        0.0838
      5 C          -0.5326    5.2410   32.8036 C.ar    1  UNL1        0.0195
      6 C          -1.0084    6.2724   33.7833 C.ar    1  UNL1        0.0082
      7 C          -0.3448    6.3970   35.1227 C.ar    1  UNL1        0.0347
      8 BR         -0.8205    7.4285   36.1024 Br      1  UNL1       -0.0490
      9 C           0.7945    5.4901   35.4825 C.ar    1  UNL1        0.0095
     10 C           1.2702    4.4587   34.5029 C.ar    1  UNL1        0.0328
     11 C           6.0392    2.5235   39.2297 C.3     1  UNL1        0.0897
     12 N           5.1199    2.7508   38.0664 N.3     1  UNL1       -0.2686
     13 C           3.7164    2.2232   38.1053 C.3     1  UNL1        0.0938
     14 C           2.7971    2.4505   36.9420 C.3     1  UNL1        0.1082
     15 N           3.2814    3.2055   35.7397 N.pl3   1  UNL1       -0.3034
     16 C           4.6850    3.7331   35.7008 C.3     1  UNL1        0.1082
     17 C           5.6043    3.5058   36.8641 C.3     1  UNL1        0.0938
     18 S           0.9454    2.7670   31.0247 S.O2    1  UNL1        0.0860
     19 O           1.8291    3.8331   30.4482 O.2     1  UNL1       -0.1476
     20 O           0.0617    1.7008   31.6012 O.2     1  UNL1       -0.1476
     21 C           0.6024    2.3026   29.6402 C.ar    1  UNL1        0.1278
     22 C          -0.1372    1.0125   29.4435 C.ar    1  UNL1        0.0227
     23 C          -0.4802    0.5483   28.0591 C.ar    1  UNL1        0.0310
     24 C          -0.0836    1.3741   26.8712 C.ar    1  UNL1        0.1402
     25 F          -0.4267    0.9097   25.4868 F       1  UNL1       -0.2042
     26 C           0.6560    2.6641   27.0680 C.ar    1  UNL1        0.0310
     27 C           0.9990    3.1284   28.4524 C.ar    1  UNL1        0.0227
@<TRIPOS>BOND
     1    11    12    1
     2    12    13    1
     3    13    14    1
     4    14    15    1
     5    15     1    1
     6     1     2   ar
     7     2     3   ar
     8     3    18    1
     9    18    19    2
    10    18    20    2
    11    18    21    1
    12    21    22   ar
    13    22    23   ar
    14    23    24   ar
    15    24    25    1
    16    24    26   ar
    17    26    27   ar
    18     3     4   ar
    19     4     5   ar
    20     5     6   ar
    21     6     7   ar
    22     7     8    1
    23     7     9   ar
    24     9    10   ar
    25    15    16    1
    26    16    17    1
    27    17    12    1
    28    10     1   ar
    29    27    21   ar
    30    10     4   ar
