@<TRIPOS>MOLECULE
*****
 38 41 0 0 0
SMALL
GASTEIGER

@<TRIPOS>ATOM
      1 C           7.0270   -4.5726   29.6570 C.ar    1  UNL1        0.0067
      2 C           6.5385   -3.5796   28.6445 C.ar    1  UNL1        0.0156
      3 C           6.6816   -3.8698   27.1798 C.ar    1  UNL1        0.0673
      4 C           7.3130   -5.1531   26.7277 C.ar    1  UNL1        0.0295
      5 C           7.8014   -6.1461   27.7403 C.ar    1  UNL1        0.0315
      6 C           7.6584   -5.8558   29.2049 C.ar    1  UNL1        0.1362
      7 F           8.1468   -6.8489   30.2175 F       1  UNL1       -0.2045
      8 C           7.3185   -5.1637   25.2277 C.ar    1  UNL1        0.0875
      9 C           6.6904   -3.8870   24.7528 C.ar    1  UNL1        0.0939
     10 N           6.2968   -3.0873   25.9592 N.ar    1  UNL1       -0.2745
     11 C           5.6346   -1.7414   25.9473 C.ar    1  UNL1        0.2371
     12 N           6.4249   -0.5137   26.2909 N.ar    1  UNL1       -0.2072
     13 C           5.7628    0.8322   26.2790 C.ar    1  UNL1        0.1332
     14 C           4.3104    0.9503   25.9234 C.ar    1  UNL1        0.1784
     15 F           3.6482    2.2962   25.9114 F       1  UNL1       -0.2009
     16 C           3.5201   -0.2774   25.5797 C.ar    1  UNL1        0.1332
     17 N           4.1821   -1.6233   25.5917 N.ar    1  UNL1       -0.2072
     18 C           6.4910   -3.4813   23.3225 C.ar    1  UNL1        0.0982
     19 C           5.1305   -3.5775   22.6983 C.ar    1  UNL1        0.0220
     20 C           4.9311   -3.1718   21.2681 C.ar    1  UNL1        0.0231
     21 C           6.0923   -2.6698   20.4621 C.ar    1  UNL1        0.1410
     22 C           7.4528   -2.5736   21.0862 C.ar    1  UNL1        0.1187
     23 N           7.6522   -2.9793   22.5165 N.ar    1  UNL1       -0.2409
     24 S           5.8929   -2.2641   19.0317 S.O2    1  UNL1        0.0619
     25 O           7.0733   -1.3436   19.1283 O.2     1  UNL1       -0.1529
     26 O           4.7125   -3.1846   18.9353 O.2     1  UNL1       -0.1529
     27 N           5.6934   -1.8584   17.6015 N.3     1  UNL1       -0.1723
     28 H           5.0605   -2.5424   17.1870 H       1  UNL1        0.1491
     29 C           5.1392   -0.5030   17.2767 C.3     1  UNL1        0.1701
     30 C           6.0358    0.5581   16.7110 C.3     1  UNL1        0.0278
     31 C           3.6882   -0.2086   17.5175 C.3     1  UNL1        0.4118
     32 F           2.2372    0.0858   17.7584 F       1  UNL1       -0.1685
     33 F           4.0542    0.6129   18.7181 F       1  UNL1       -0.1685
     34 F           3.3223   -1.0300   16.3170 F       1  UNL1       -0.1685
     35 C           6.1489   -3.0559   31.5750 C.3     1  UNL1        0.0051
     36 C           6.8839   -4.2823   31.1217 C.3     1  UNL1        0.0287
     37 C           7.8574   -6.2589   24.3558 C.1     1  UNL1        0.1020
     38 N           8.3964   -7.3540   23.4838 N.1     1  UNL1       -0.1908
@<TRIPOS>BOND
     1    35    36    1
     2    36     1    1
     3     1     2   ar
     4     2     3   ar
     5     3     4   ar
     6     4     5   ar
     7     5     6   ar
     8     6     7    1
     9     4     8   ar
    10     8    37    1
    11    37    38    3
    12     8     9   ar
    13     9    18    1
    14    18    19   ar
    15    19    20   ar
    16    20    21   ar
    17    21    24    1
    18    24    25    2
    19    24    26    2
    20    24    27    1
    21    27    29    1
    22    29    30    1
    23    29    31    1
    24    31    32    1
    25    31    33    1
    26    31    34    1
    27    21    22   ar
    28    22    23   ar
    29     9    10   ar
    30    10    11    1
    31    11    12   ar
    32    12    13   ar
    33    13    14   ar
    34    14    15    1
    35    14    16   ar
    36    16    17   ar
    37     6     1   ar
    38    23    18   ar
    39    17    11   ar
    40    10     3   ar
    41    27    28    1
@<TRIPOS>MOLECULE
*****
 38 41 0 0 0
SMALL
GASTEIGER

@<TRIPOS>ATOM
      1 C           1.6725   -0.1523   20.8497 C.ar    1  UNL1        0.0067
      2 C           1.4550    0.4676   22.1982 C.ar    1  UNL1        0.0156
      3 C           2.2885    0.0325   23.3669 C.ar    1  UNL1        0.0673
      4 C           3.3395   -1.0225   23.1873 C.ar    1  UNL1        0.0295
      5 C           3.5570   -1.6424   21.8388 C.ar    1  UNL1        0.0315
      6 C           2.7235   -1.2073   20.6701 C.ar    1  UNL1        0.1362
      7 F           2.9410   -1.8273   19.3216 F       1  UNL1       -0.2045
      8 C           4.0025   -1.2470   24.5139 C.ar    1  UNL1        0.0875
      9 C           3.3612   -0.3307   25.5136 C.ar    1  UNL1        0.0939
     10 N           2.3019    0.4601   24.8047 N.ar    1  UNL1       -0.2745
     11 C           1.4123    1.4965   25.4247 C.ar    1  UNL1        0.2371
     12 N          -0.0749    1.3009   25.4320 N.ar    1  UNL1       -0.2072
     13 C          -0.9646    2.3373   26.0520 C.ar    1  UNL1        0.1332
     14 C          -0.3671    3.5692   26.6646 C.ar    1  UNL1        0.1784
     15 F          -1.2568    4.6056   27.2846 F       1  UNL1       -0.2009
     16 C           1.1201    3.7648   26.6572 C.ar    1  UNL1        0.1332
     17 N           2.0098    2.7284   26.0373 N.ar    1  UNL1       -0.2072
     18 C           3.7169   -0.2240   26.9669 C.ar    1  UNL1        0.0982
     19 C           4.9729    0.4833   27.3817 C.ar    1  UNL1        0.0220
     20 C           5.3285    0.5900   28.8350 C.ar    1  UNL1        0.0231
     21 C           4.4281   -0.0107   29.8735 C.ar    1  UNL1        0.1410
     22 C           3.1721   -0.7180   29.4587 C.ar    1  UNL1        0.1187
     23 N           2.8165   -0.8247   28.0054 N.ar    1  UNL1       -0.2409
     24 S           4.7838    0.0960   31.3269 S.O2    1  UNL1        0.0619
     25 O           3.3403   -0.0834   31.6933 O.2     1  UNL1       -0.1529
     26 O           6.2272    0.2755   30.9604 O.2     1  UNL1       -0.1529
     27 N           5.1395    0.2028   32.7802 N.3     1  UNL1       -0.1723
     28 H           4.4907    0.8724   33.1937 H       1  UNL1        0.1491
     29 C           5.1138   -1.0188   33.6502 C.3     1  UNL1        0.1701
     30 C           4.6603   -0.9146   35.0762 C.3     1  UNL1        0.0278
     31 C           5.5418   -2.3447   33.0944 C.3     1  UNL1        0.4118
     32 F           5.9698   -3.6706   32.5385 F       1  UNL1       -0.1685
     33 F           4.1146   -2.8064   33.0970 F       1  UNL1       -0.1685
     34 F           6.9689   -1.8829   33.0918 F       1  UNL1       -0.1685
     35 C           1.4646    1.0624   18.5626 C.3     1  UNL1        0.0051
     36 C           0.8391    0.2828   19.6810 C.3     1  UNL1        0.0287
     37 C           5.1119   -2.2174   24.7921 C.1     1  UNL1        0.1020
     38 N           6.2214   -3.1879   25.0703 N.1     1  UNL1       -0.1908
@<TRIPOS>BOND
     1    35    36    1
     2    36     1    1
     3     1     2   ar
     4     2     3   ar
     5     3     4   ar
     6     4     5   ar
     7     5     6   ar
     8     6     7    1
     9     4     8   ar
    10     8    37    1
    11    37    38    3
    12     8     9   ar
    13     9    18    1
    14    18    19   ar
    15    19    20   ar
    16    20    21   ar
    17    21    24    1
    18    24    25    2
    19    24    26    2
    20    24    27    1
    21    27    29    1
    22    29    30    1
    23    29    31    1
    24    31    32    1
    25    31    33    1
    26    31    34    1
    27    21    22   ar
    28    22    23   ar
    29     9    10   ar
    30    10    11    1
    31    11    12   ar
    32    12    13   ar
    33    13    14   ar
    34    14    15    1
    35    14    16   ar
    36    16    17   ar
    37     6     1   ar
    38    23    18   ar
    39    17    11   ar
    40    10     3   ar
    41    27    28    1
@<TRIPOS>MOLECULE
*****
 38 41 0 0 0
SMALL
GASTEIGER

@<TRIPOS>ATOM
      1 C           7.0771   -4.9733   29.5672 C.ar    1  UNL1        0.0067
      2 C           6.3657   -3.8241   28.9166 C.ar    1  UNL1        0.0156
      3 C           6.3624   -3.6931   27.4224 C.ar    1  UNL1        0.0673
      4 C           7.0707   -4.7112   26.5787 C.ar    1  UNL1        0.0295
      5 C           7.7822   -5.8603   27.2293 C.ar    1  UNL1        0.0315
      6 C           7.7854   -5.9913   28.7235 C.ar    1  UNL1        0.1362
      7 F           8.4969   -7.1405   29.3741 F       1  UNL1       -0.2045
      8 C           6.8971   -4.3228   25.1403 C.ar    1  UNL1        0.0875
      9 C           6.0815   -3.0647   25.0950 C.ar    1  UNL1        0.0939
     10 N           5.7511   -2.6755   26.5054 N.ar    1  UNL1       -0.2745
     11 C           4.9500   -1.4788   26.9252 C.ar    1  UNL1        0.2371
     12 N           5.5401   -0.1044   26.8131 N.ar    1  UNL1       -0.2072
     13 C           4.7391    1.0923   27.2328 C.ar    1  UNL1        0.1332
     14 C           3.3478    0.9145   27.7647 C.ar    1  UNL1        0.1784
     15 F           2.5467    2.1112   28.1844 F       1  UNL1       -0.2009
     16 C           2.7577   -0.4599   27.8768 C.ar    1  UNL1        0.1332
     17 N           3.5587   -1.6566   27.4570 N.ar    1  UNL1       -0.2072
     18 C           5.6689   -2.3256   23.8566 C.ar    1  UNL1        0.0982
     19 C           4.5124   -2.8193   23.0388 C.ar    1  UNL1        0.0220
     20 C           4.0999   -2.0801   21.8005 C.ar    1  UNL1        0.0231
     21 C           4.8437   -0.8473   21.3800 C.ar    1  UNL1        0.1410
     22 C           6.0002   -0.3536   22.1978 C.ar    1  UNL1        0.1187
     23 N           6.4128   -1.0928   23.4361 N.ar    1  UNL1       -0.2409
     24 S           4.4311   -0.1082   20.1416 S.O2    1  UNL1        0.0619
     25 O           4.0652   -1.4078   19.4879 O.2     1  UNL1       -0.1529
     26 O           4.7969    1.1913   20.7954 O.2     1  UNL1       -0.1529
     27 N           4.0185    0.6309   18.9033 N.3     1  UNL1       -0.1723
     28 H           3.8884   -0.0686   18.1725 H       1  UNL1        0.1491
     29 C           2.7826    1.4810   18.9140 C.3     1  UNL1        0.1701
     30 C           2.8538    2.9135   18.4750 C.3     1  UNL1        0.0278
     31 C           1.4756    0.8985   19.3636 C.3     1  UNL1        0.4118
     32 F           0.1684    0.3159   19.8133 F       1  UNL1       -0.1685
     33 F           1.3206    0.2203   18.0346 F       1  UNL1       -0.1685
     34 F           1.6305    1.5766   20.6926 F       1  UNL1       -0.1685
     35 C           6.9001   -3.8886   31.9214 C.3     1  UNL1        0.0051
     36 C           7.0804   -5.1043   31.0615 C.3     1  UNL1        0.0287
     37 C           7.4432   -5.0627   23.9552 C.1     1  UNL1        0.1020
     38 N           7.9893   -5.8026   22.7701 N.1     1  UNL1       -0.1908
@<TRIPOS>BOND
     1    35    36    1
     2    36     1    1
     3     1     2   ar
     4     2     3   ar
     5     3     4   ar
     6     4     5   ar
     7     5     6   ar
     8     6     7    1
     9     4     8   ar
    10     8    37    1
    11    37    38    3
    12     8     9   ar
    13     9    18    1
    14    18    19   ar
    15    19    20   ar
    16    20    21   ar
    17    21    24    1
    18    24    25    2
    19    24    26    2
    20    24    27    1
    21    27    29    1
    22    29    30    1
    23    29    31    1
    24    31    32    1
    25    31    33    1
    26    31    34    1
    27    21    22   ar
    28    22    23   ar
    29     9    10   ar
    30    10    11    1
    31    11    12   ar
    32    12    13   ar
    33    13    14   ar
    34    14    15    1
    35    14    16   ar
    36    16    17   ar
    37     6     1   ar
    38    23    18   ar
    39    17    11   ar
    40    10     3   ar
    41    27    28    1
@<TRIPOS>MOLECULE
*****
 38 41 0 0 0
SMALL
GASTEIGER

@<TRIPOS>ATOM
      1 C           4.0246    2.3020   37.2890 C.ar    1  UNL1        0.0067
      2 C           4.1311    1.5075   36.0212 C.ar    1  UNL1        0.0156
      3 C           3.2987    1.8802   34.8303 C.ar    1  UNL1        0.0673
      4 C           2.3598    3.0475   34.9072 C.ar    1  UNL1        0.0295
      5 C           2.2534    3.8420   36.1750 C.ar    1  UNL1        0.0315
      6 C           3.0857    3.4693   37.3659 C.ar    1  UNL1        0.1362
      7 F           2.9792    4.2639   38.6337 F       1  UNL1       -0.2045
      8 C           1.6711    3.1765   33.5809 C.ar    1  UNL1        0.0875
      9 C           2.1844    2.0889   32.6843 C.ar    1  UNL1        0.0939
     10 N           3.1903    1.2877   33.4565 N.ar    1  UNL1       -0.2745
     11 C           3.9537    0.1023   32.9447 C.ar    1  UNL1        0.2371
     12 N           3.7140   -1.2558   33.5348 N.ar    1  UNL1       -0.2072
     13 C           4.4773   -2.4412   33.0231 C.ar    1  UNL1        0.1332
     14 C           5.4804   -2.2686   31.9213 C.ar    1  UNL1        0.1784
     15 F           6.2439   -3.4541   31.4095 F       1  UNL1       -0.2009
     16 C           5.7201   -0.9106   31.3312 C.ar    1  UNL1        0.1332
     17 N           4.9568    0.2749   31.8429 N.ar    1  UNL1       -0.2072
     18 C           1.7652    1.8454   31.2648 C.ar    1  UNL1        0.0982
     19 C           2.6993    2.1783   30.1393 C.ar    1  UNL1        0.0220
     20 C           2.2802    1.9347   28.7199 C.ar    1  UNL1        0.0231
     21 C           0.9269    1.3583   28.4258 C.ar    1  UNL1        0.1410
     22 C          -0.0071    1.0253   29.5512 C.ar    1  UNL1        0.1187
     23 N           0.4120    1.2689   30.9707 N.ar    1  UNL1       -0.2409
     24 S           0.5078    1.1147   27.0062 S.O2    1  UNL1        0.0619
     25 O           1.9173    1.3494   26.5498 O.2     1  UNL1       -0.1529
     26 O          -0.9016    0.8800   27.4627 O.2     1  UNL1       -0.1529
     27 N           0.0887    0.8712   25.5868 N.3     1  UNL1       -0.1723
     28 H          -0.8492    0.4715   25.6211 H       1  UNL1        0.1491
     29 C           0.0381    2.0114   24.6135 C.3     1  UNL1        0.1701
     30 C           0.6113    1.8486   23.2370 C.3     1  UNL1        0.0278
     31 C          -0.5857    3.3146   25.0168 C.3     1  UNL1        0.4118
     32 F          -1.2095    4.6178   25.4201 F       1  UNL1       -0.1685
     33 F           0.7714    3.9524   25.0548 F       1  UNL1       -0.1685
     34 F          -1.9428    2.6767   24.9788 F       1  UNL1       -0.1685
     35 C           6.2287    2.5124   38.6483 C.3     1  UNL1        0.0051
     36 C           4.8570    1.9293   38.4799 C.3     1  UNL1        0.0287
     37 C           0.6487    4.2114   33.2154 C.1     1  UNL1        0.1020
     38 N          -0.3737    5.2464   32.8499 N.1     1  UNL1       -0.1908
@<TRIPOS>BOND
     1    35    36    1
     2    36     1    1
     3     1     2   ar
     4     2     3   ar
     5     3     4   ar
     6     4     5   ar
     7     5     6   ar
     8     6     7    1
     9     4     8   ar
    10     8    37    1
    11    37    38    3
    12     8     9   ar
    13     9    18    1
    14    18    19   ar
    15    19    20   ar
    16    20    21   ar
    17    21    24    1
    18    24    25    2
    19    24    26    2
    20    24    27    1
    21    27    29    1
    22    29    30    1
    23    29    31    1
    24    31    32    1
    25    31    33    1
    26    31    34    1
    27    21    22   ar
    28    22    23   ar
    29     9    10   ar
    30    10    11    1
    31    11    12   ar
    32    12    13   ar
    33    13    14   ar
    34    14    15    1
    35    14    16   ar
    36    16    17   ar
    37     6     1   ar
    38    23    18   ar
    39    17    11   ar
    40    10     3   ar
    41    27    28    1
@<TRIPOS>MOLECULE
*****
 38 41 0 0 0
SMALL
GASTEIGER

@<TRIPOS>ATOM
      1 C          -5.4197    4.8296   24.8194 C.ar    1  UNL1        0.0067
      2 C          -4.9089    4.5680   23.4336 C.ar    1  UNL1        0.0156
      3 C          -3.5365    3.9959   23.2356 C.ar    1  UNL1        0.0673
      4 C          -2.6750    3.6852   24.4235 C.ar    1  UNL1        0.0295
      5 C          -3.1858    3.9468   25.8094 C.ar    1  UNL1        0.0315
      6 C          -4.5582    4.5189   26.0073 C.ar    1  UNL1        0.1362
      7 F          -5.0690    4.7804   27.3933 F       1  UNL1       -0.2045
      8 C          -1.3747    3.1315   23.9209 C.ar    1  UNL1        0.0875
      9 C          -1.4326    3.0999   22.4224 C.ar    1  UNL1        0.0939
     10 N          -2.7687    3.6341   21.9988 N.ar    1  UNL1       -0.2745
     11 C          -3.2522    3.7808   20.5865 C.ar    1  UNL1        0.2371
     12 N          -4.6218    3.2996   20.2088 N.ar    1  UNL1       -0.2072
     13 C          -5.1053    3.4463   18.7965 C.ar    1  UNL1        0.1332
     14 C          -4.2192    4.0742   17.7618 C.ar    1  UNL1        0.1784
     15 F          -4.7026    4.2209   16.3495 F       1  UNL1       -0.2009
     16 C          -2.8495    4.5553   18.1395 C.ar    1  UNL1        0.1332
     17 N          -2.3660    4.4087   19.5518 N.ar    1  UNL1       -0.2072
     18 C          -0.3453    2.6185   21.5079 C.ar    1  UNL1        0.0982
     19 C           0.8706    3.4660   21.2773 C.ar    1  UNL1        0.0220
     20 C           1.9578    2.9846   20.3629 C.ar    1  UNL1        0.0231
     21 C           1.8292    1.6558   19.6792 C.ar    1  UNL1        0.1410
     22 C           0.6132    0.8083   19.9098 C.ar    1  UNL1        0.1187
     23 N          -0.4740    1.2896   20.8242 N.ar    1  UNL1       -0.2409
     24 S           2.9165    1.1744   18.7647 S.O2    1  UNL1        0.0619
     25 O           3.9315    1.9212   19.5785 O.2     1  UNL1       -0.1529
     26 O           1.9015    0.4277   17.9510 O.2     1  UNL1       -0.1529
     27 N           4.0037    0.6931   17.8503 N.3     1  UNL1       -0.1723
     28 H           4.5732    1.5063   17.6163 H       1  UNL1        0.1491
     29 C           4.9476   -0.3796   18.3069 C.3     1  UNL1        0.1701
     30 C           6.3908   -0.3312   17.9011 C.3     1  UNL1        0.0278
     31 C           4.4482   -1.5007   19.1693 C.3     1  UNL1        0.4118
     32 F           3.9488   -2.6218   20.0318 F       1  UNL1       -0.1685
     33 F           5.1059   -0.8749   20.3635 F       1  UNL1       -0.1685
     34 F           3.7905   -2.1263   17.9752 F       1  UNL1       -0.1685
     35 C          -7.8970    5.0467   24.0670 C.3     1  UNL1        0.0051
     36 C          -6.7921    5.4017   25.0174 C.3     1  UNL1        0.0287
     37 C          -0.2193    2.6873   24.7682 C.1     1  UNL1        0.1020
     38 N           0.9361    2.2432   25.6154 N.1     1  UNL1       -0.1908
@<TRIPOS>BOND
     1    35    36    1
     2    36     1    1
     3     1     2   ar
     4     2     3   ar
     5     3     4   ar
     6     4     5   ar
     7     5     6   ar
     8     6     7    1
     9     4     8   ar
    10     8    37    1
    11    37    38    3
    12     8     9   ar
    13     9    18    1
    14    18    19   ar
    15    19    20   ar
    16    20    21   ar
    17    21    24    1
    18    24    25    2
    19    24    26    2
    20    24    27    1
    21    27    29    1
    22    29    30    1
    23    29    31    1
    24    31    32    1
    25    31    33    1
    26    31    34    1
    27    21    22   ar
    28    22    23   ar
    29     9    10   ar
    30    10    11    1
    31    11    12   ar
    32    12    13   ar
    33    13    14   ar
    34    14    15    1
    35    14    16   ar
    36    16    17   ar
    37     6     1   ar
    38    23    18   ar
    39    17    11   ar
    40    10     3   ar
    41    27    28    1
@<TRIPOS>MOLECULE
*****
 38 41 0 0 0
SMALL
GASTEIGER

@<TRIPOS>ATOM
      1 C           2.0160    3.4035   34.2517 C.ar    1  UNL1        0.0067
      2 C           3.1949    2.4998   34.4600 C.ar    1  UNL1        0.0156
      3 C           3.5023    1.4253   33.4596 C.ar    1  UNL1        0.0673
      4 C           2.6308    1.2544   32.2509 C.ar    1  UNL1        0.0295
      5 C           1.4519    2.1581   32.0425 C.ar    1  UNL1        0.0315
      6 C           1.1445    3.2326   33.0429 C.ar    1  UNL1        0.1362
      7 F          -0.0345    4.1364   32.8345 F       1  UNL1       -0.2045
      8 C           3.1776    0.1153   31.4425 C.ar    1  UNL1        0.0875
      9 C           4.3872   -0.4178   32.1516 C.ar    1  UNL1        0.0939
     10 N           4.5879    0.3918   33.3983 N.ar    1  UNL1       -0.2745
     11 C           5.6819    0.2014   34.4067 C.ar    1  UNL1        0.2371
     12 N           5.3410   -0.0151   35.8513 N.ar    1  UNL1       -0.2072
     13 C           6.4350   -0.2055   36.8597 C.ar    1  UNL1        0.1332
     14 C           7.8699   -0.1794   36.4234 C.ar    1  UNL1        0.1784
     15 F           8.9640   -0.3698   37.4317 F       1  UNL1       -0.2009
     16 C           8.2108    0.0370   34.9788 C.ar    1  UNL1        0.1332
     17 N           7.1168    0.2274   33.9704 N.ar    1  UNL1       -0.2072
     18 C           5.2453   -1.5600   31.6943 C.ar    1  UNL1        0.0982
     19 C           5.4434   -2.7519   32.5830 C.ar    1  UNL1        0.0220
     20 C           6.3015   -3.8940   32.1257 C.ar    1  UNL1        0.0231
     21 C           6.9615   -3.8442   30.7796 C.ar    1  UNL1        0.1410
     22 C           6.7634   -2.6522   29.8909 C.ar    1  UNL1        0.1187
     23 N           5.9053   -1.5101   30.3482 N.ar    1  UNL1       -0.2409
     24 S           7.8197   -4.9864   30.3223 S.O2    1  UNL1        0.0619
     25 O           8.9874   -4.0546   30.1865 O.2     1  UNL1       -0.1529
     26 O           6.6520   -5.9180   30.4581 O.2     1  UNL1       -0.1529
     27 N           8.6777   -6.1285   29.8650 N.3     1  UNL1       -0.1723
     28 H           8.5180   -6.8963   30.5172 H       1  UNL1        0.1491
     29 C           8.5058   -6.6900   28.4847 C.3     1  UNL1        0.1701
     30 C           8.7029   -8.1570   28.2419 C.3     1  UNL1        0.0278
     31 C           8.1369   -5.7845   27.3473 C.3     1  UNL1        0.4118
     32 F           7.7681   -4.8789   26.2098 F       1  UNL1       -0.1685
     33 F           9.5313   -5.2314   27.3355 F       1  UNL1       -0.1685
     34 F           6.7427   -6.3376   27.3591 F       1  UNL1       -0.1685
     35 C           1.9391    4.2305   36.7134 C.3     1  UNL1        0.0051
     36 C           1.7086    4.4781   35.2521 C.3     1  UNL1        0.0287
     37 C           2.6139   -0.4001   30.1515 C.1     1  UNL1        0.1020
     38 N           2.0502   -0.9156   28.8605 N.1     1  UNL1       -0.1908
@<TRIPOS>BOND
     1    35    36    1
     2    36     1    1
     3     1     2   ar
     4     2     3   ar
     5     3     4   ar
     6     4     5   ar
     7     5     6   ar
     8     6     7    1
     9     4     8   ar
    10     8    37    1
    11    37    38    3
    12     8     9   ar
    13     9    18    1
    14    18    19   ar
    15    19    20   ar
    16    20    21   ar
    17    21    24    1
    18    24    25    2
    19    24    26    2
    20    24    27    1
    21    27    29    1
    22    29    30    1
    23    29    31    1
    24    31    32    1
    25    31    33    1
    26    31    34    1
    27    21    22   ar
    28    22    23   ar
    29     9    10   ar
    30    10    11    1
    31    11    12   ar
    32    12    13   ar
    33    13    14   ar
    34    14    15    1
    35    14    16   ar
    36    16    17   ar
    37     6     1   ar
    38    23    18   ar
    39    17    11   ar
    40    10     3   ar
    41    27    28    1
@<TRIPOS>MOLECULE
*****
 38 41 0 0 0
SMALL
GASTEIGER

@<TRIPOS>ATOM
      1 C           2.4632   -0.4906   20.9692 C.ar    1  UNL1        0.0067
      2 C           3.0181   -0.5723   22.3603 C.ar    1  UNL1        0.0156
      3 C           2.3161    0.1213   23.4898 C.ar    1  UNL1        0.0673
      4 C           1.0590    0.8968   23.2283 C.ar    1  UNL1        0.0295
      5 C           0.5041    0.9785   21.8371 C.ar    1  UNL1        0.0315
      6 C           1.2061    0.2849   20.7076 C.ar    1  UNL1        0.1362
      7 F           0.6511    0.3666   19.3164 F       1  UNL1       -0.2045
      8 C           0.5898    1.4724   24.5315 C.ar    1  UNL1        0.0875
      9 C           1.5569    1.0527   25.5986 C.ar    1  UNL1        0.0939
     10 N           2.6238    0.2177   24.9548 N.ar    1  UNL1       -0.2745
     11 C           3.7931   -0.4107   25.6533 C.ar    1  UNL1        0.2371
     12 N           5.1841   -0.1826   25.1404 N.ar    1  UNL1       -0.2072
     13 C           6.3534   -0.8109   25.8388 C.ar    1  UNL1        0.1332
     14 C           6.1317   -1.6673   27.0502 C.ar    1  UNL1        0.1784
     15 F           7.3010   -2.2956   27.7487 F       1  UNL1       -0.2009
     16 C           4.7407   -1.8953   27.5631 C.ar    1  UNL1        0.1332
     17 N           3.5714   -1.2670   26.8647 N.ar    1  UNL1       -0.2072
     18 C           1.4719    1.4060   27.0540 C.ar    1  UNL1        0.0982
     19 C           2.3317    2.5015   27.6112 C.ar    1  UNL1        0.0220
     20 C           2.2467    2.8548   29.0665 C.ar    1  UNL1        0.0231
     21 C           1.3019    2.1125   29.9646 C.ar    1  UNL1        0.1410
     22 C           0.4422    1.0170   29.4073 C.ar    1  UNL1        0.1187
     23 N           0.5272    0.6637   27.9520 N.ar    1  UNL1       -0.2409
     24 S           1.2170    2.4658   31.4199 S.O2    1  UNL1        0.0619
     25 O           2.5391    3.1684   31.3266 O.2     1  UNL1       -0.1529
     26 O          -0.1050    1.7634   31.5133 O.2     1  UNL1       -0.1529
     27 N           1.1320    2.8191   32.8752 N.3     1  UNL1       -0.1723
     28 H           2.0072    2.5170   33.3032 H       1  UNL1        0.1491
     29 C           0.9168    4.2446   33.2897 C.3     1  UNL1        0.1701
     30 C           1.5845    4.7760   34.5232 C.3     1  UNL1        0.0278
     31 C           0.0337    5.1386   32.4706 C.3     1  UNL1        0.4118
     32 F          -0.8493    6.0327   31.6515 F       1  UNL1       -0.1685
     33 F           1.2406    5.8848   31.9841 F       1  UNL1       -0.1685
     34 F          -1.1731    4.3924   32.9571 F       1  UNL1       -0.1685
     35 C           3.8118   -2.5188   20.0651 C.3     1  UNL1        0.0051
     36 C           3.1653   -1.1843   19.8396 C.3     1  UNL1        0.0287
     37 C          -0.6320    2.3191   24.7324 C.1     1  UNL1        0.1020
     38 N          -1.8539    3.1657   24.9333 N.1     1  UNL1       -0.1908
@<TRIPOS>BOND
     1    35    36    1
     2    36     1    1
     3     1     2   ar
     4     2     3   ar
     5     3     4   ar
     6     4     5   ar
     7     5     6   ar
     8     6     7    1
     9     4     8   ar
    10     8    37    1
    11    37    38    3
    12     8     9   ar
    13     9    18    1
    14    18    19   ar
    15    19    20   ar
    16    20    21   ar
    17    21    24    1
    18    24    25    2
    19    24    26    2
    20    24    27    1
    21    27    29    1
    22    29    30    1
    23    29    31    1
    24    31    32    1
    25    31    33    1
    26    31    34    1
    27    21    22   ar
    28    22    23   ar
    29     9    10   ar
    30    10    11    1
    31    11    12   ar
    32    12    13   ar
    33    13    14   ar
    34    14    15    1
    35    14    16   ar
    36    16    17   ar
    37     6     1   ar
    38    23    18   ar
    39    17    11   ar
    40    10     3   ar
    41    27    28    1
@<TRIPOS>MOLECULE
*****
 38 41 0 0 0
SMALL
GASTEIGER

@<TRIPOS>ATOM
      1 C           2.5753   -0.5320   21.6279 C.ar    1  UNL1        0.0067
      2 C           2.0295    0.1609   22.8411 C.ar    1  UNL1        0.0156
      3 C           2.6166   -0.1196   24.1927 C.ar    1  UNL1        0.0673
      4 C           3.7495   -1.0928   24.3310 C.ar    1  UNL1        0.0295
      5 C           4.2954   -1.7856   23.1178 C.ar    1  UNL1        0.0315
      6 C           3.7083   -1.5052   21.7662 C.ar    1  UNL1        0.1362
      7 F           4.2542   -2.1981   20.5530 F       1  UNL1       -0.2045
      8 C           4.1222   -1.1671   25.7821 C.ar    1  UNL1        0.0875
      9 C           3.2196   -0.2397   26.5406 C.ar    1  UNL1        0.0939
     10 N           2.2890    0.4077   25.5583 N.ar    1  UNL1       -0.2745
     11 C           1.2189    1.4069   25.8843 C.ar    1  UNL1        0.2371
     12 N           1.2943    2.7964   25.3242 N.ar    1  UNL1       -0.2072
     13 C           0.2242    3.7956   25.6501 C.ar    1  UNL1        0.1332
     14 C          -0.9214    3.4054   26.5363 C.ar    1  UNL1        0.1784
     15 F          -1.9916    4.4046   26.8623 F       1  UNL1       -0.2009
     16 C          -0.9969    2.0160   27.0964 C.ar    1  UNL1        0.1332
     17 N           0.0732    1.0167   26.7705 N.ar    1  UNL1       -0.2072
     18 C           3.2434   -0.0016   28.0214 C.ar    1  UNL1        0.0982
     19 C           4.1411    1.0532   28.5971 C.ar    1  UNL1        0.0220
     20 C           4.1648    1.2913   30.0779 C.ar    1  UNL1        0.0231
     21 C           3.2909    0.4745   30.9829 C.ar    1  UNL1        0.1410
     22 C           2.3933   -0.5803   30.4073 C.ar    1  UNL1        0.1187
     23 N           2.3695   -0.8184   28.9265 N.ar    1  UNL1       -0.2409
     24 S           3.3147    0.7126   32.4638 S.O2    1  UNL1        0.0619
     25 O           3.3100    2.1937   32.2257 O.2     1  UNL1       -0.1529
     26 O           3.3195   -0.7683   32.7018 O.2     1  UNL1       -0.1529
     27 N           3.3386    0.9507   33.9446 N.3     1  UNL1       -0.1723
     28 H           2.6813    0.2902   34.3596 H       1  UNL1        0.1491
     29 C           4.6246    0.8175   34.7050 C.3     1  UNL1        0.1701
     30 C           5.9359    0.9050   33.9821 C.3     1  UNL1        0.0278
     31 C           4.5993    0.5968   36.1885 C.3     1  UNL1        0.4118
     32 F           4.5740    0.3761   37.6720 F       1  UNL1       -0.1685
     33 F           4.6671    2.0788   36.4101 F       1  UNL1       -0.1685
     34 F           4.5316   -0.8852   35.9668 F       1  UNL1       -0.1685
     35 C           0.5480    0.1488   20.1526 C.3     1  UNL1        0.0051
     36 C           1.9883   -0.2516   20.2764 C.3     1  UNL1        0.0287
     37 C           5.2071   -2.0191   26.3712 C.1     1  UNL1        0.1020
     38 N           6.2920   -2.8712   26.9603 N.1     1  UNL1       -0.1908
@<TRIPOS>BOND
     1    35    36    1
     2    36     1    1
     3     1     2   ar
     4     2     3   ar
     5     3     4   ar
     6     4     5   ar
     7     5     6   ar
     8     6     7    1
     9     4     8   ar
    10     8    37    1
    11    37    38    3
    12     8     9   ar
    13     9    18    1
    14    18    19   ar
    15    19    20   ar
    16    20    21   ar
    17    21    24    1
    18    24    25    2
    19    24    26    2
    20    24    27    1
    21    27    29    1
    22    29    30    1
    23    29    31    1
    24    31    32    1
    25    31    33    1
    26    31    34    1
    27    21    22   ar
    28    22    23   ar
    29     9    10   ar
    30    10    11    1
    31    11    12   ar
    32    12    13   ar
    33    13    14   ar
    34    14    15    1
    35    14    16   ar
    36    16    17   ar
    37     6     1   ar
    38    23    18   ar
    39    17    11   ar
    40    10     3   ar
    41    27    28    1
@<TRIPOS>MOLECULE
*****
 38 41 0 0 0
SMALL
GASTEIGER

@<TRIPOS>ATOM
      1 C           0.8335    4.7958   34.1651 C.ar    1  UNL1        0.0067
      2 C           2.0209    3.9962   34.6130 C.ar    1  UNL1        0.0156
      3 C           2.5078    2.8465   33.7816 C.ar    1  UNL1        0.0673
      4 C           1.8072    2.4964   32.5023 C.ar    1  UNL1        0.0295
      5 C           0.6198    3.2960   32.0544 C.ar    1  UNL1        0.0315
      6 C           0.1330    4.4457   32.8858 C.ar    1  UNL1        0.1362
      7 F          -1.0545    5.2453   32.4379 F       1  UNL1       -0.2045
      8 C           2.5101    1.3179   31.8965 C.ar    1  UNL1        0.0875
      9 C           3.6450    0.9396   32.8013 C.ar    1  UNL1        0.0939
     10 N           3.6437    1.8844   33.9664 N.ar    1  UNL1       -0.2745
     11 C           4.6087    1.8696   35.1147 C.ar    1  UNL1        0.2371
     12 N           4.5717    0.7489   36.1110 N.ar    1  UNL1       -0.2072
     13 C           5.5367    0.7340   37.2593 C.ar    1  UNL1        0.1332
     14 C           6.5386    1.8399   37.4112 C.ar    1  UNL1        0.1784
     15 F           7.5036    1.8252   38.5595 F       1  UNL1       -0.2009
     16 C           6.5755    2.9606   36.4149 C.ar    1  UNL1        0.1332
     17 N           5.6106    2.9755   35.2667 N.ar    1  UNL1       -0.2072
     18 C           4.6117   -0.1859   32.5799 C.ar    1  UNL1        0.0982
     19 C           4.2845   -1.5638   33.0741 C.ar    1  UNL1        0.0220
     20 C           5.2511   -2.6891   32.8527 C.ar    1  UNL1        0.0231
     21 C           6.5450   -2.4366   32.1371 C.ar    1  UNL1        0.1410
     22 C           6.8722   -1.0587   31.6429 C.ar    1  UNL1        0.1187
     23 N           5.9056    0.0667   31.8643 N.ar    1  UNL1       -0.2409
     24 S           7.5116   -3.5621   31.9156 S.O2    1  UNL1        0.0619
     25 O           8.5287   -2.5872   31.4005 O.2     1  UNL1       -0.1529
     26 O           6.4946   -4.5369   32.4308 O.2     1  UNL1       -0.1529
     27 N           8.4782   -4.6875   31.6943 N.3     1  UNL1       -0.1723
     28 H           8.3616   -5.3337   32.4748 H       1  UNL1        0.1491
     29 C           8.4018   -5.5060   30.4395 C.3     1  UNL1        0.1701
     30 C           9.1526   -6.8008   30.3418 C.3     1  UNL1        0.0278
     31 C           7.5746   -5.0295   29.2825 C.3     1  UNL1        0.4118
     32 F           6.7473   -4.5531   28.1255 F       1  UNL1       -0.1685
     33 F           6.4190   -5.8525   29.7699 F       1  UNL1       -0.1685
     34 F           8.7301   -4.2066   28.7952 F       1  UNL1       -0.1685
     35 C           0.8796    6.1463   36.3841 C.3     1  UNL1        0.0051
     36 C           0.3467    5.9455   34.9964 C.3     1  UNL1        0.0287
     37 C           2.1424    0.6372   30.6114 C.1     1  UNL1        0.1020
     38 N           1.7749   -0.0436   29.3263 N.1     1  UNL1       -0.1908
@<TRIPOS>BOND
     1    35    36    1
     2    36     1    1
     3     1     2   ar
     4     2     3   ar
     5     3     4   ar
     6     4     5   ar
     7     5     6   ar
     8     6     7    1
     9     4     8   ar
    10     8    37    1
    11    37    38    3
    12     8     9   ar
    13     9    18    1
    14    18    19   ar
    15    19    20   ar
    16    20    21   ar
    17    21    24    1
    18    24    25    2
    19    24    26    2
    20    24    27    1
    21    27    29    1
    22    29    30    1
    23    29    31    1
    24    31    32    1
    25    31    33    1
    26    31    34    1
    27    21    22   ar
    28    22    23   ar
    29     9    10   ar
    30    10    11    1
    31    11    12   ar
    32    12    13   ar
    33    13    14   ar
    34    14    15    1
    35    14    16   ar
    36    16    17   ar
    37     6     1   ar
    38    23    18   ar
    39    17    11   ar
    40    10     3   ar
    41    27    28    1
