@<TRIPOS>MOLECULE
*****
 35 39 0 0 0
SMALL
GASTEIGER

@<TRIPOS>ATOM
      1 N           6.7715   -2.9305   28.3875 N.pl3   1  UNL1       -0.1872
      2 C           7.5298   -2.0722   27.4189 C.3     1  UNL1        0.2025
      3 C           7.9811   -2.6413   26.1064 C.3     1  UNL1        0.0523
      4 C           7.6739   -4.0686   25.7625 C.3     1  UNL1        0.0242
      5 C           6.9155   -4.9270   26.7311 C.3     1  UNL1        0.0523
      6 C           6.4643   -4.3579   28.0436 C.3     1  UNL1        0.2025
      7 C           2.9560   -0.3973   29.4060 C.2     1  UNL1        0.3756
      8 N           4.0330   -1.1986   28.7368 N.2     1  UNL1       -0.0230
      9 C           5.0456   -1.5745   29.7777 C.2     1  UNL1        0.3133
     10 C           6.3202   -2.3615   29.7000 C.2     1  UNL1        0.3703
     11 N           7.1436   -2.5794   30.9347 N.2     1  UNL1       -0.0367
     12 C           6.6924   -2.0104   32.2471 C.2     1  UNL1        0.2179
     13 C           5.4178   -1.2234   32.3249 C.3     1  UNL1        0.1552
     14 C           4.5944   -1.0055   31.0902 C.2     1  UNL1        0.2294
     15 N           3.3030   -0.2779   30.8604 N.2     1  UNL1       -0.0343
     16 F           0.8535    2.6411   25.7525 F       1  UNL1       -0.2041
     17 C           0.6935    1.7021   26.9113 C.ar    1  UNL1        0.1426
     18 C          -0.6778    1.3433   27.4020 C.ar    1  UNL1        0.0593
     19 C          -0.8378    0.4043   28.5608 C.ar    1  UNL1        0.1426
     20 F          -2.2091    0.0455   29.0515 F       1  UNL1       -0.2041
     21 C           0.3734   -0.1759   29.2287 C.ar    1  UNL1        0.0375
     22 C           1.7447    0.1829   28.7380 C.ar    1  UNL1        0.0929
     23 C           1.9047    1.1219   27.5792 C.ar    1  UNL1        0.0375
     24 C           8.1251   -4.6377   24.4500 C.3     1  UNL1        0.0724
     25 N           7.3642   -4.3249   23.1958 N.3     1  UNL1       -0.2703
     26 C           8.0419   -4.4295   21.8617 C.3     1  UNL1        0.0897
     27 C           7.2810   -4.1167   20.6073 C.3     1  UNL1        0.0899
     28 N           5.8425   -3.6994   20.6872 N.3     1  UNL1       -0.2631
     29 C           5.1648   -3.5947   22.0213 C.3     1  UNL1        0.0899
     30 C           5.9256   -3.9075   23.2755 C.3     1  UNL1        0.0897
     31 C           5.0816   -3.3866   19.4329 C.3     1  UNL1        0.1767
     32 C           3.7854   -4.0856   19.1479 C.3     1  UNL1        0.4121
     33 F           2.4892   -4.7847   18.8629 F       1  UNL1       -0.1685
     34 F           3.0305   -2.8841   19.6342 F       1  UNL1       -0.1685
     35 F           4.5403   -5.2871   18.6616 F       1  UNL1       -0.1685
@<TRIPOS>BOND
     1    16    17    1
     2    17    18   ar
     3    18    19   ar
     4    19    20    1
     5    19    21   ar
     6    21    22   ar
     7    22     7    1
     8     7     8    2
     9     8     9    1
    10     9    10    2
    11    10     1    1
    12     1     2    1
    13     2     3    1
    14     3     4    1
    15     4    24    1
    16    24    25    1
    17    25    26    1
    18    26    27    1
    19    27    28    1
    20    28    31    1
    21    31    32    1
    22    32    33    1
    23    32    34    1
    24    32    35    1
    25    28    29    1
    26    29    30    1
    27     4     5    1
    28     5     6    1
    29    10    11    1
    30    11    12    2
    31    12    13    1
    32    13    14    1
    33    14    15    2
    34    22    23   ar
    35    23    17   ar
    36    15     7    1
    37    14     9    1
    38     6     1    1
    39    30    25    1
@<TRIPOS>MOLECULE
*****
 35 39 0 0 0
SMALL
GASTEIGER

@<TRIPOS>ATOM
      1 N           6.7952   -2.8783   28.3464 N.pl3   1  UNL1       -0.1872
      2 C           6.4816   -4.3047   28.0043 C.3     1  UNL1        0.2025
      3 C           6.9373   -4.8797   26.6959 C.3     1  UNL1        0.0523
      4 C           7.7065   -4.0283   25.7297 C.3     1  UNL1        0.0242
      5 C           8.0200   -2.6019   26.0720 C.3     1  UNL1        0.0523
      6 C           7.5644   -2.0269   27.3803 C.3     1  UNL1        0.2025
      7 C           2.9618   -0.3646   29.3460 C.2     1  UNL1        0.3756
      8 N           4.0446   -1.1631   28.6828 N.2     1  UNL1       -0.0230
      9 C           5.0594   -1.5247   29.7266 C.2     1  UNL1        0.3133
     10 C           6.3395   -2.3032   29.6548 C.2     1  UNL1        0.3703
     11 N           7.1639   -2.5068   30.8913 N.2     1  UNL1       -0.0367
     12 C           6.7082   -1.9317   32.1995 C.2     1  UNL1        0.2179
     13 C           5.4281   -1.1532   32.2714 C.3     1  UNL1        0.1552
     14 C           4.6037   -0.9496   31.0349 C.2     1  UNL1        0.2294
     15 N           3.3073   -0.2327   30.7997 N.2     1  UNL1       -0.0343
     16 F          -2.2041    0.1030   29.0367 F       1  UNL1       -0.2041
     17 C          -0.8362    0.4362   28.5189 C.ar    1  UNL1        0.1426
     18 C          -0.6835    1.3364   27.3289 C.ar    1  UNL1        0.0593
     19 C           0.6843    1.6696   26.8112 C.ar    1  UNL1        0.1426
     20 F           0.8371    2.5698   25.6210 F       1  UNL1       -0.2041
     21 C           1.8994    1.1026   27.4835 C.ar    1  UNL1        0.0375
     22 C           1.7467    0.2024   28.6736 C.ar    1  UNL1        0.0929
     23 C           0.3788   -0.1308   29.1913 C.ar    1  UNL1        0.0375
     24 C           8.1621   -4.6033   24.4214 C.3     1  UNL1        0.0724
     25 N           7.4003   -4.3036   23.1646 N.3     1  UNL1       -0.2703
     26 C           8.0840   -4.3973   21.8327 C.3     1  UNL1        0.0897
     27 C           7.3222   -4.0975   20.5758 C.3     1  UNL1        0.0899
     28 N           5.8767   -3.7040   20.6508 N.3     1  UNL1       -0.2631
     29 C           5.1930   -3.6103   21.9826 C.3     1  UNL1        0.0899
     30 C           5.9548   -3.9101   23.2395 C.3     1  UNL1        0.0897
     31 C           5.1149   -3.4043   19.3939 C.3     1  UNL1        0.1767
     32 C           3.8063   -4.0879   19.1290 C.3     1  UNL1        0.4121
     33 F           2.4977   -4.7715   18.8640 F       1  UNL1       -0.1685
     34 F           3.0731   -2.8610   19.5841 F       1  UNL1       -0.1685
     35 F           4.5394   -5.3148   18.6738 F       1  UNL1       -0.1685
@<TRIPOS>BOND
     1    16    17    1
     2    17    18   ar
     3    18    19   ar
     4    19    20    1
     5    19    21   ar
     6    21    22   ar
     7    22     7    1
     8     7     8    2
     9     8     9    1
    10     9    10    2
    11    10     1    1
    12     1     2    1
    13     2     3    1
    14     3     4    1
    15     4    24    1
    16    24    25    1
    17    25    26    1
    18    26    27    1
    19    27    28    1
    20    28    31    1
    21    31    32    1
    22    32    33    1
    23    32    34    1
    24    32    35    1
    25    28    29    1
    26    29    30    1
    27     4     5    1
    28     5     6    1
    29    10    11    1
    30    11    12    2
    31    12    13    1
    32    13    14    1
    33    14    15    2
    34    22    23   ar
    35    23    17   ar
    36    15     7    1
    37    14     9    1
    38     6     1    1
    39    30    25    1
@<TRIPOS>MOLECULE
*****
 35 39 0 0 0
SMALL
GASTEIGER

@<TRIPOS>ATOM
      1 N           0.6328    2.5664   25.2903 N.pl3   1  UNL1       -0.1872
      2 C          -0.4437    1.6139   25.7193 C.3     1  UNL1        0.2025
      3 C          -0.6124    1.2774   27.1713 C.3     1  UNL1        0.0523
      4 C           0.2954    1.8933   28.1943 C.3     1  UNL1        0.0242
      5 C           1.3719    2.8458   27.7652 C.3     1  UNL1        0.0523
      6 C           1.5406    3.1823   26.3133 C.3     1  UNL1        0.2025
      7 C           2.5705    0.0540   21.8340 C.2     1  UNL1        0.3756
      8 N           2.0429    0.5603   23.1437 N.2     1  UNL1       -0.0230
      9 C           1.4621    1.9241   22.9133 C.2     1  UNL1        0.3133
     10 C           0.8014    2.9029   23.8382 C.2     1  UNL1        0.3703
     11 N           0.3095    4.2182   23.3112 N.2     1  UNL1       -0.0367
     12 C           0.4782    4.5547   21.8592 C.2     1  UNL1        0.2179
     13 C           1.1388    3.5759   20.9343 C.3     1  UNL1        0.1552
     14 C           1.6308    2.2606   21.4614 C.2     1  UNL1        0.2294
     15 N           2.3158    1.1048   20.7943 N.2     1  UNL1       -0.0343
     16 F           3.7689   -3.8917   18.6725 F       1  UNL1       -0.2041
     17 C           3.8351   -3.2434   20.0235 C.ar    1  UNL1        0.1426
     18 C           4.5668   -3.9196   21.1448 C.ar    1  UNL1        0.0593
     19 C           4.6331   -3.2713   22.4958 C.ar    1  UNL1        0.1426
     20 F           5.3648   -3.9475   23.6172 F       1  UNL1       -0.2041
     21 C           3.9676   -1.9468   22.7256 C.ar    1  UNL1        0.0375
     22 C           3.2360   -1.2706   21.6043 C.ar    1  UNL1        0.0929
     23 C           3.1697   -1.9189   20.2533 C.ar    1  UNL1        0.0375
     24 C           0.1268    1.5568   29.6463 C.3     1  UNL1        0.0724
     25 N           1.2624    0.9437   30.4108 N.3     1  UNL1       -0.2703
     26 C           1.9214   -0.3043   29.9027 C.3     1  UNL1        0.0897
     27 C           3.0570   -0.9174   30.6673 C.3     1  UNL1        0.0899
     28 N           3.5336   -0.2825   31.9400 N.3     1  UNL1       -0.2631
     29 C           2.8746    0.9655   32.4481 C.3     1  UNL1        0.0899
     30 C           1.7390    1.5786   31.6836 C.3     1  UNL1        0.0897
     31 C           4.6691   -0.8956   32.7045 C.3     1  UNL1        0.1767
     32 C           4.5715   -2.3135   33.1839 C.3     1  UNL1        0.4121
     33 F           4.4739   -3.7315   33.6633 F       1  UNL1       -0.1685
     34 F           5.3188   -2.7760   31.9683 F       1  UNL1       -0.1685
     35 F           3.8242   -1.8511   34.3995 F       1  UNL1       -0.1685
@<TRIPOS>BOND
     1    16    17    1
     2    17    18   ar
     3    18    19   ar
     4    19    20    1
     5    19    21   ar
     6    21    22   ar
     7    22     7    1
     8     7     8    2
     9     8     9    1
    10     9    10    2
    11    10     1    1
    12     1     2    1
    13     2     3    1
    14     3     4    1
    15     4    24    1
    16    24    25    1
    17    25    26    1
    18    26    27    1
    19    27    28    1
    20    28    31    1
    21    31    32    1
    22    32    33    1
    23    32    34    1
    24    32    35    1
    25    28    29    1
    26    29    30    1
    27     4     5    1
    28     5     6    1
    29    10    11    1
    30    11    12    2
    31    12    13    1
    32    13    14    1
    33    14    15    2
    34    22    23   ar
    35    23    17   ar
    36    15     7    1
    37    14     9    1
    38     6     1    1
    39    30    25    1
@<TRIPOS>MOLECULE
*****
 35 39 0 0 0
SMALL
GASTEIGER

@<TRIPOS>ATOM
      1 N           0.6791    2.5542   25.5091 N.pl3   1  UNL1       -0.1872
      2 C           1.5093    3.1993   26.5790 C.3     1  UNL1        0.2025
      3 C           1.3227    2.8037   28.0139 C.3     1  UNL1        0.0523
      4 C           0.3060    1.7630   28.3788 C.3     1  UNL1        0.0242
      5 C          -0.5242    1.1179   27.3088 C.3     1  UNL1        0.0523
      6 C          -0.3376    1.5135   25.8741 C.3     1  UNL1        0.2025
      7 C           2.5870    0.1525   21.9589 C.2     1  UNL1        0.3756
      8 N           2.0610    0.6129   23.2860 N.2     1  UNL1       -0.0230
      9 C           1.5117    1.9978   23.1117 C.2     1  UNL1        0.3133
     10 C           0.8657    2.9498   24.0743 C.2     1  UNL1        0.3703
     11 N           0.4063    4.2973   23.6020 N.2     1  UNL1       -0.0367
     12 C           0.5928    4.6928   22.1672 C.2     1  UNL1        0.2179
     13 C           1.2388    3.7409   21.2047 C.3     1  UNL1        0.1552
     14 C           1.6982    2.3934   21.6769 C.2     1  UNL1        0.2294
     15 N           2.3628    1.2529   20.9644 N.2     1  UNL1       -0.0343
     16 F           5.3204   -3.9617   23.5720 F       1  UNL1       -0.2041
     17 C           4.5919   -3.2322   22.4824 C.ar    1  UNL1        0.1426
     18 C           4.5017   -3.8303   21.1098 C.ar    1  UNL1        0.0593
     19 C           3.7732   -3.1008   20.0202 C.ar    1  UNL1        0.1426
     20 F           3.6830   -3.6990   18.6476 F       1  UNL1       -0.2041
     21 C           3.1350   -1.7732   20.3032 C.ar    1  UNL1        0.0375
     22 C           3.2253   -1.1751   21.6758 C.ar    1  UNL1        0.0929
     23 C           3.9537   -1.9046   22.7654 C.ar    1  UNL1        0.0375
     24 C           0.1194    1.3674   29.8136 C.3     1  UNL1        0.0724
     25 N           1.2894    0.8787   30.6150 N.3     1  UNL1       -0.2703
     26 C           2.0454   -0.3389   30.1726 C.3     1  UNL1        0.0897
     27 C           3.2155   -0.8275   30.9741 C.3     1  UNL1        0.0899
     28 N           3.6294   -0.0985   32.2179 N.3     1  UNL1       -0.2631
     29 C           2.8733    1.1191   32.6603 C.3     1  UNL1        0.0899
     30 C           1.7034    1.6078   31.8589 C.3     1  UNL1        0.0897
     31 C           4.7993   -0.5872   33.0194 C.3     1  UNL1        0.1767
     32 C           5.1883   -2.0351   32.9725 C.3     1  UNL1        0.4121
     33 F           5.5772   -3.4831   32.9257 F       1  UNL1       -0.1685
     34 F           6.2680   -1.7131   31.9824 F       1  UNL1       -0.1685
     35 F           4.1085   -2.3572   33.9627 F       1  UNL1       -0.1685
@<TRIPOS>BOND
     1    16    17    1
     2    17    18   ar
     3    18    19   ar
     4    19    20    1
     5    19    21   ar
     6    21    22   ar
     7    22     7    1
     8     7     8    2
     9     8     9    1
    10     9    10    2
    11    10     1    1
    12     1     2    1
    13     2     3    1
    14     3     4    1
    15     4    24    1
    16    24    25    1
    17    25    26    1
    18    26    27    1
    19    27    28    1
    20    28    31    1
    21    31    32    1
    22    32    33    1
    23    32    34    1
    24    32    35    1
    25    28    29    1
    26    29    30    1
    27     4     5    1
    28     5     6    1
    29    10    11    1
    30    11    12    2
    31    12    13    1
    32    13    14    1
    33    14    15    2
    34    22    23   ar
    35    23    17   ar
    36    15     7    1
    37    14     9    1
    38     6     1    1
    39    30    25    1
@<TRIPOS>MOLECULE
*****
 35 39 0 0 0
SMALL
GASTEIGER

@<TRIPOS>ATOM
      1 N           3.3932   -0.5641   19.8256 N.pl3   1  UNL1       -0.1872
      2 C           4.8065   -0.0927   19.9990 C.3     1  UNL1        0.2025
      3 C           5.9275   -1.0878   20.0555 C.3     1  UNL1        0.0523
      4 C           5.6350   -2.5544   19.9385 C.3     1  UNL1        0.0242
      5 C           4.2215   -3.0258   19.7651 C.3     1  UNL1        0.0523
      6 C           3.1007   -2.0306   19.7087 C.3     1  UNL1        0.2025
      7 C           0.9104    1.3589   23.3114 C.2     1  UNL1        0.3756
      8 N           1.8762    0.5703   22.4775 N.2     1  UNL1       -0.0230
      9 C           1.6250    0.9045   21.0369 C.2     1  UNL1        0.3133
     10 C           2.2722    0.4311   19.7692 C.2     1  UNL1        0.3703
     11 N           1.7985    0.9529   18.4451 N.2     1  UNL1       -0.0367
     12 C           0.6776    1.9480   18.3887 C.2     1  UNL1        0.2179
     13 C           0.0304    2.4214   19.6564 C.3     1  UNL1        0.1552
     14 C           0.5041    1.8996   20.9805 C.2     1  UNL1        0.2294
     15 N           0.0625    2.1805   22.3862 N.2     1  UNL1       -0.0343
     16 F          -1.8777    2.0090   27.6478 F       1  UNL1       -0.2041
     17 C          -0.5838    1.6560   26.9760 C.ar    1  UNL1        0.1426
     18 C           0.6098    1.2751   27.8006 C.ar    1  UNL1        0.0593
     19 C           1.9037    0.9221   27.1288 C.ar    1  UNL1        0.1426
     20 F           3.0974    0.5411   27.9535 F       1  UNL1       -0.2041
     21 C           2.0039    0.9500   25.6325 C.ar    1  UNL1        0.0375
     22 C           0.8103    1.3310   24.8079 C.ar    1  UNL1        0.0929
     23 C          -0.4836    1.6840   25.4796 C.ar    1  UNL1        0.0375
     24 C           6.7559   -3.5496   19.9950 C.3     1  UNL1        0.0724
     25 N           7.1505   -4.1611   21.3066 N.3     1  UNL1       -0.2703
     26 C           8.3326   -5.0816   21.3795 C.3     1  UNL1        0.0897
     27 C           8.7272   -5.6932   22.6911 C.3     1  UNL1        0.0899
     28 N           7.9397   -5.3841   23.9298 N.3     1  UNL1       -0.2631
     29 C           6.7576   -4.4636   23.8569 C.3     1  UNL1        0.0899
     30 C           6.3630   -3.8521   22.5453 C.3     1  UNL1        0.0897
     31 C           8.3343   -5.9957   25.2414 C.3     1  UNL1        0.1767
     32 C           7.5663   -7.1635   25.7857 C.3     1  UNL1        0.4121
     33 F           6.7983   -8.3314   26.3300 F       1  UNL1       -0.1685
     34 F           8.4018   -8.0973   24.9609 F       1  UNL1       -0.1685
     35 F           6.7309   -6.2298   26.6104 F       1  UNL1       -0.1685
@<TRIPOS>BOND
     1    16    17    1
     2    17    18   ar
     3    18    19   ar
     4    19    20    1
     5    19    21   ar
     6    21    22   ar
     7    22     7    1
     8     7     8    2
     9     8     9    1
    10     9    10    2
    11    10     1    1
    12     1     2    1
    13     2     3    1
    14     3     4    1
    15     4    24    1
    16    24    25    1
    17    25    26    1
    18    26    27    1
    19    27    28    1
    20    28    31    1
    21    31    32    1
    22    32    33    1
    23    32    34    1
    24    32    35    1
    25    28    29    1
    26    29    30    1
    27     4     5    1
    28     5     6    1
    29    10    11    1
    30    11    12    2
    31    12    13    1
    32    13    14    1
    33    14    15    2
    34    22    23   ar
    35    23    17   ar
    36    15     7    1
    37    14     9    1
    38     6     1    1
    39    30    25    1
@<TRIPOS>MOLECULE
*****
 35 39 0 0 0
SMALL
GASTEIGER

@<TRIPOS>ATOM
      1 N          -1.0108    3.5873   18.9145 N.pl3   1  UNL1       -0.1872
      2 C          -0.0110    4.4018   18.1483 C.3     1  UNL1        0.2025
      3 C           1.4426    4.0333   18.1850 C.3     1  UNL1        0.0523
      4 C           1.8964    2.8504   18.9880 C.3     1  UNL1        0.0242
      5 C           0.8965    2.0359   19.7542 C.3     1  UNL1        0.0523
      6 C          -0.5570    2.4044   19.7175 C.3     1  UNL1        0.2025
      7 C          -4.0225    4.2705   22.4465 C.2     1  UNL1        0.3756
      8 N          -2.8210    3.9856   21.5950 N.2     1  UNL1       -0.0230
      9 C          -3.2289    4.1207   20.1578 C.2     1  UNL1        0.3133
     10 C          -2.4644    3.9558   18.8778 C.2     1  UNL1        0.3703
     11 N          -3.1535    4.1594   17.5611 N.2     1  UNL1       -0.0367
     12 C          -4.6071    4.5278   17.5245 C.2     1  UNL1        0.2179
     13 C          -5.3715    4.6927   18.8045 C.3     1  UNL1        0.1552
     14 C          -4.6824    4.4892   20.1211 C.2     1  UNL1        0.2294
     15 N          -5.1729    4.5818   21.5356 N.2     1  UNL1       -0.0343
     16 F          -6.3483    5.5927   26.9011 F       1  UNL1       -0.2041
     17 C          -5.2290    4.9093   26.1730 C.ar    1  UNL1        0.1426
     18 C          -4.1532    4.2036   26.9441 C.ar    1  UNL1        0.0593
     19 C          -3.0339    3.5202   26.2161 C.ar    1  UNL1        0.1426
     20 F          -1.9581    2.8144   26.9873 F       1  UNL1       -0.2041
     21 C          -2.9903    3.5425   24.7169 C.ar    1  UNL1        0.0375
     22 C          -4.0661    4.2482   23.9458 C.ar    1  UNL1        0.0929
     23 C          -5.1854    4.9316   24.6738 C.ar    1  UNL1        0.0375
     24 C           3.3499    2.4819   19.0247 C.3     1  UNL1        0.0724
     25 N           3.7608    1.0416   18.9422 N.3     1  UNL1       -0.2703
     26 C           3.4147    0.2314   17.7282 C.3     1  UNL1        0.0897
     27 C           3.8256   -1.2090   17.6457 C.3     1  UNL1        0.0899
     28 N           4.5826   -1.8389   18.7772 N.3     1  UNL1       -0.2631
     29 C           4.9286   -1.0286   19.9911 C.3     1  UNL1        0.0899
     30 C           4.5177    0.4116   20.0736 C.3     1  UNL1        0.0897
     31 C           4.9934   -3.2791   18.6946 C.3     1  UNL1        0.1767
     32 C           4.0351   -4.3572   19.1061 C.3     1  UNL1        0.4121
     33 F           3.0767   -5.4353   19.5175 F       1  UNL1       -0.1685
     34 F           3.2074   -3.3424   19.8375 F       1  UNL1       -0.1685
     35 F           4.8627   -5.3721   18.3746 F       1  UNL1       -0.1685
@<TRIPOS>BOND
     1    16    17    1
     2    17    18   ar
     3    18    19   ar
     4    19    20    1
     5    19    21   ar
     6    21    22   ar
     7    22     7    1
     8     7     8    2
     9     8     9    1
    10     9    10    2
    11    10     1    1
    12     1     2    1
    13     2     3    1
    14     3     4    1
    15     4    24    1
    16    24    25    1
    17    25    26    1
    18    26    27    1
    19    27    28    1
    20    28    31    1
    21    31    32    1
    22    32    33    1
    23    32    34    1
    24    32    35    1
    25    28    29    1
    26    29    30    1
    27     4     5    1
    28     5     6    1
    29    10    11    1
    30    11    12    2
    31    12    13    1
    32    13    14    1
    33    14    15    2
    34    22    23   ar
    35    23    17   ar
    36    15     7    1
    37    14     9    1
    38     6     1    1
    39    30    25    1
@<TRIPOS>MOLECULE
*****
 35 39 0 0 0
SMALL
GASTEIGER

@<TRIPOS>ATOM
      1 N           4.1232   -1.4100   20.4121 N.pl3   1  UNL1       -0.1872
      2 C           3.8927   -2.8921   20.4010 C.3     1  UNL1        0.2025
      3 C           5.0234   -3.8293   20.7061 C.3     1  UNL1        0.0523
      4 C           6.3847   -3.2844   21.0222 C.3     1  UNL1        0.0242
      5 C           6.6152   -1.8022   21.0332 C.3     1  UNL1        0.0523
      6 C           5.4845   -0.8650   20.7282 C.3     1  UNL1        0.2025
      7 C           1.3071    0.9448   23.3339 C.2     1  UNL1        0.3756
      8 N           2.3575    0.0692   22.7175 N.2     1  UNL1       -0.0230
      9 C           2.2273    0.1689   21.2264 C.2     1  UNL1        0.3133
     10 C           2.9924   -0.4727   20.1070 C.2     1  UNL1        0.3703
     11 N           2.6268   -0.1771   18.6826 N.2     1  UNL1       -0.0367
     12 C           1.4961    0.7601   18.3776 C.2     1  UNL1        0.2179
     13 C           0.7310    1.4017   19.4970 C.3     1  UNL1        0.1552
     14 C           1.0966    1.1061   20.9214 C.2     1  UNL1        0.2294
     15 N           0.5279    1.5856   22.2239 N.2     1  UNL1       -0.0343
     16 F           3.0801    0.8762   28.2178 F       1  UNL1       -0.2041
     17 C           1.9630    1.1102   27.2445 C.ar    1  UNL1        0.1426
     18 C           0.6153    1.5440   27.7399 C.ar    1  UNL1        0.0593
     19 C          -0.5019    1.7780   26.7666 C.ar    1  UNL1        0.1426
     20 F          -1.8497    2.2118   27.2620 F       1  UNL1       -0.2041
     21 C          -0.2713    1.5783   25.2980 C.ar    1  UNL1        0.0375
     22 C           1.0765    1.1445   24.8026 C.ar    1  UNL1        0.0929
     23 C           2.1936    0.9105   25.7759 C.ar    1  UNL1        0.0375
     24 C           7.5155   -4.2215   21.3272 C.3     1  UNL1        0.0724
     25 N           7.6535   -4.8083   22.7008 N.3     1  UNL1       -0.2703
     26 C           6.8630   -4.2401   23.8419 C.3     1  UNL1        0.0897
     27 C           7.0010   -4.8270   25.2155 C.3     1  UNL1        0.0899
     28 N           7.9294   -5.9819   25.4479 N.3     1  UNL1       -0.2631
     29 C           8.7199   -6.5501   24.3067 C.3     1  UNL1        0.0899
     30 C           8.5820   -5.9633   22.9331 C.3     1  UNL1        0.0897
     31 C           8.0674   -6.5687   26.8214 C.3     1  UNL1        0.1767
     32 C           8.1509   -8.0561   26.9966 C.3     1  UNL1        0.4121
     33 F           8.2343   -9.5434   27.1719 F       1  UNL1       -0.1685
     34 F           9.5138   -7.9079   27.6052 F       1  UNL1       -0.1685
     35 F           6.7879   -8.2042   26.3881 F       1  UNL1       -0.1685
@<TRIPOS>BOND
     1    16    17    1
     2    17    18   ar
     3    18    19   ar
     4    19    20    1
     5    19    21   ar
     6    21    22   ar
     7    22     7    1
     8     7     8    2
     9     8     9    1
    10     9    10    2
    11    10     1    1
    12     1     2    1
    13     2     3    1
    14     3     4    1
    15     4    24    1
    16    24    25    1
    17    25    26    1
    18    26    27    1
    19    27    28    1
    20    28    31    1
    21    31    32    1
    22    32    33    1
    23    32    34    1
    24    32    35    1
    25    28    29    1
    26    29    30    1
    27     4     5    1
    28     5     6    1
    29    10    11    1
    30    11    12    2
    31    12    13    1
    32    13    14    1
    33    14    15    2
    34    22    23   ar
    35    23    17   ar
    36    15     7    1
    37    14     9    1
    38     6     1    1
    39    30    25    1
@<TRIPOS>MOLECULE
*****
 35 39 0 0 0
SMALL
GASTEIGER

@<TRIPOS>ATOM
      1 N           2.7660   -0.6881   19.5111 N.pl3   1  UNL1       -0.1872
      2 C           1.3897   -0.7309   20.1059 C.3     1  UNL1        0.2025
      3 C           0.4675    0.4415   19.9479 C.3     1  UNL1        0.0523
      4 C           0.9216    1.6568   19.1950 C.3     1  UNL1        0.0242
      5 C           2.2980    1.6996   18.6002 C.3     1  UNL1        0.0523
      6 C           3.2202    0.5272   18.7582 C.3     1  UNL1        0.2025
      7 C           4.8131   -2.3956   23.3719 C.2     1  UNL1        0.3756
      8 N           4.0175   -1.6028   22.3777 N.2     1  UNL1       -0.0230
      9 C           4.2223   -2.2172   21.0247 C.2     1  UNL1        0.3133
     10 C           3.6882   -1.8605   19.6691 C.2     1  UNL1        0.3703
     11 N           4.0763   -2.6762   18.4716 N.2     1  UNL1       -0.0367
     12 C           4.9985   -3.8486   18.6297 C.2     1  UNL1        0.2179
     13 C           5.5326   -4.2053   19.9852 C.3     1  UNL1        0.1552
     14 C           5.1445   -3.3896   21.1827 C.2     1  UNL1        0.2294
     15 N           5.5096   -3.4999   22.6334 N.2     1  UNL1       -0.0343
     16 F           2.8191   -0.3003   27.6887 F       1  UNL1       -0.2041
     17 C           3.9004   -1.0829   27.0043 C.ar    1  UNL1        0.1426
     18 C           5.0660   -1.6006   27.7939 C.ar    1  UNL1        0.0593
     19 C           6.1472   -2.3832   27.1096 C.ar    1  UNL1        0.1426
     20 F           7.3128   -2.9008   27.8993 F       1  UNL1       -0.2041
     21 C           6.0630   -2.6482   25.6356 C.ar    1  UNL1        0.0375
     22 C           4.8974   -2.1306   24.8460 C.ar    1  UNL1        0.0929
     23 C           3.8161   -1.3480   25.5304 C.ar    1  UNL1        0.0375
     24 C          -0.0005    2.8293   19.0370 C.3     1  UNL1        0.0724
     25 N          -0.9612    3.1810   20.1339 N.3     1  UNL1       -0.2703
     26 C          -0.4548    3.4262   21.5244 C.3     1  UNL1        0.0897
     27 C          -1.4156    3.7779   22.6213 C.3     1  UNL1        0.0899
     28 N          -2.8827    3.8845   22.3278 N.3     1  UNL1       -0.2631
     29 C          -3.3891    3.6393   20.9373 C.3     1  UNL1        0.0899
     30 C          -2.4284    3.2875   19.8404 C.3     1  UNL1        0.0897
     31 C          -3.8434    4.2362   23.4247 C.3     1  UNL1        0.1767
     32 C          -5.3085    3.9631   23.2547 C.3     1  UNL1        0.4121
     33 F          -6.7736    3.6899   23.0848 F       1  UNL1       -0.1685
     34 F          -5.5404    5.4090   22.9302 F       1  UNL1       -0.1685
     35 F          -5.0766    2.5171   23.5793 F       1  UNL1       -0.1685
@<TRIPOS>BOND
     1    16    17    1
     2    17    18   ar
     3    18    19   ar
     4    19    20    1
     5    19    21   ar
     6    21    22   ar
     7    22     7    1
     8     7     8    2
     9     8     9    1
    10     9    10    2
    11    10     1    1
    12     1     2    1
    13     2     3    1
    14     3     4    1
    15     4    24    1
    16    24    25    1
    17    25    26    1
    18    26    27    1
    19    27    28    1
    20    28    31    1
    21    31    32    1
    22    32    33    1
    23    32    34    1
    24    32    35    1
    25    28    29    1
    26    29    30    1
    27     4     5    1
    28     5     6    1
    29    10    11    1
    30    11    12    2
    31    12    13    1
    32    13    14    1
    33    14    15    2
    34    22    23   ar
    35    23    17   ar
    36    15     7    1
    37    14     9    1
    38     6     1    1
    39    30    25    1
@<TRIPOS>MOLECULE
*****
 35 39 0 0 0
SMALL
GASTEIGER

@<TRIPOS>ATOM
      1 N          -0.2447    2.4317   27.2271 N.pl3   1  UNL1       -0.1872
      2 C          -0.9627    1.3267   27.9435 C.3     1  UNL1        0.2025
      3 C          -0.1891    0.3389   28.7655 C.3     1  UNL1        0.0523
      4 C           1.3025    0.4561   28.8712 C.3     1  UNL1        0.0242
      5 C           2.0206    1.5612   28.1547 C.3     1  UNL1        0.0523
      6 C           1.2470    2.5490   27.3327 C.3     1  UNL1        0.2025
      7 C          -0.5801    2.8451   22.5656 C.2     1  UNL1        0.3756
      8 N          -0.2504    2.4278   23.9682 N.2     1  UNL1       -0.0230
      9 C          -0.9687    3.3509   24.9074 C.2     1  UNL1        0.3133
     10 C          -1.0183    3.4196   26.4050 C.2     1  UNL1        0.3703
     11 N          -1.8414    4.4760   27.0805 N.2     1  UNL1       -0.0367
     12 C          -2.6149    5.4638   26.2584 C.2     1  UNL1        0.2179
     13 C          -2.5654    5.3952   24.7608 C.3     1  UNL1        0.1552
     14 C          -1.7423    4.3387   24.0853 C.2     1  UNL1        0.2294
     15 N          -1.5021    4.0261   22.6380 N.2     1  UNL1       -0.0343
     16 F           0.3998    3.0615   17.4673 F       1  UNL1       -0.2041
     17 C           0.4137    2.3037   18.7618 C.ar    1  UNL1        0.1426
     18 C           0.9314    0.8965   18.8016 C.ar    1  UNL1        0.0593
     19 C           0.9452    0.1388   20.0960 C.ar    1  UNL1        0.1426
     20 F           1.4630   -1.2685   20.1358 F       1  UNL1       -0.2041
     21 C           0.4414    0.7883   21.3507 C.ar    1  UNL1        0.0375
     22 C          -0.0762    2.1955   21.3109 C.ar    1  UNL1        0.0929
     23 C          -0.0901    2.9533   20.0164 C.ar    1  UNL1        0.0375
     24 C           2.0761   -0.5317   29.6932 C.3     1  UNL1        0.0724
     25 N           2.5961   -0.1389   31.0442 N.3     1  UNL1       -0.2703
     26 C           3.5680   -1.0284   31.7615 C.3     1  UNL1        0.0897
     27 C           4.0880   -0.6356   33.1125 C.3     1  UNL1        0.0899
     28 N           3.6361    0.6466   33.7463 N.3     1  UNL1       -0.2631
     29 C           2.6643    1.5361   33.0291 C.3     1  UNL1        0.0899
     30 C           2.1443    1.1433   31.6781 C.3     1  UNL1        0.0897
     31 C           4.1561    1.0394   35.0974 C.3     1  UNL1        0.1767
     32 C           5.2242    0.2188   35.7575 C.3     1  UNL1        0.4121
     33 F           6.2924   -0.6018   36.4177 F       1  UNL1       -0.1685
     34 F           6.2768    1.0174   35.0472 F       1  UNL1       -0.1685
     35 F           4.1717   -0.5797   36.4678 F       1  UNL1       -0.1685
@<TRIPOS>BOND
     1    16    17    1
     2    17    18   ar
     3    18    19   ar
     4    19    20    1
     5    19    21   ar
     6    21    22   ar
     7    22     7    1
     8     7     8    2
     9     8     9    1
    10     9    10    2
    11    10     1    1
    12     1     2    1
    13     2     3    1
    14     3     4    1
    15     4    24    1
    16    24    25    1
    17    25    26    1
    18    26    27    1
    19    27    28    1
    20    28    31    1
    21    31    32    1
    22    32    33    1
    23    32    34    1
    24    32    35    1
    25    28    29    1
    26    29    30    1
    27     4     5    1
    28     5     6    1
    29    10    11    1
    30    11    12    2
    31    12    13    1
    32    13    14    1
    33    14    15    2
    34    22    23   ar
    35    23    17   ar
    36    15     7    1
    37    14     9    1
    38     6     1    1
    39    30    25    1
