@<TRIPOS>MOLECULE
*****
 33 36 0 0 0
SMALL
GASTEIGER

@<TRIPOS>ATOM
      1 C           8.5167   -5.9517   24.3533 C.ar    1  UNL1        0.1056
      2 C           7.4132   -5.9279   25.3692 C.ar    1  UNL1        0.0181
      3 C           7.3066   -7.0250   26.3864 C.ar    1  UNL1       -0.0013
      4 C           8.3033   -8.1460   26.3880 C.ar    1  UNL1       -0.0025
      5 C           9.4068   -8.1698   25.3722 C.ar    1  UNL1       -0.0013
      6 C           9.5135   -7.0726   24.3549 C.ar    1  UNL1        0.0181
      7 S           8.6234   -4.8546   23.3360 S.O2    1  UNL1        0.0071
      8 O           8.8235   -3.8544   24.4358 O.2     1  UNL1       -0.1687
      9 O           8.4233   -5.8548   22.2363 O.2     1  UNL1       -0.1687
     10 N           8.9435   -1.5632   20.2842 N.3     1  UNL1       -0.2726
     11 C           8.4002   -1.2685   21.6509 C.3     1  UNL1        0.0739
     12 C           8.2935   -2.3656   22.6682 C.3     1  UNL1        0.0413
     13 C           8.7301   -3.7575   22.3188 C.3     1  UNL1        0.1366
     14 C           9.2734   -4.0522   20.9520 C.3     1  UNL1        0.0413
     15 C           9.3801   -2.9550   19.9347 C.3     1  UNL1        0.0739
     16 C           9.0501   -0.4661   19.2669 C.3     1  UNL1        0.0720
     17 C           6.7301   -1.0914   18.2786 C.3     1  UNL1        0.0014
     18 C           7.8710   -0.1257   18.4044 C.3     1  UNL1        0.0160
     19 C           7.8328    1.1803   17.6677 C.3     1  UNL1        0.0014
     20 C           8.1966   -9.2431   27.4054 C.3     1  UNL1        0.1167
     21 N           6.9024   -9.9812   27.5794 N.am    1  UNL1       -0.2944
     22 C           6.9119  -11.4366   27.9423 C.2     1  UNL1        0.2808
     23 O           8.2156  -12.1539   28.1310 O.2     1  UNL1       -0.2668
     24 H           6.0467   -9.5103   27.4555 H       1  UNL1        0.1501
     25 C           5.6177  -12.1746   28.1164 C.ar    1  UNL1        0.1984
     26 C           4.5227  -11.8196   29.0782 C.ar    1  UNL1        0.0453
     27 C           3.4195  -12.8229   28.9155 C.ar    1  UNL1        0.0409
     28 C           2.0922  -12.9745   29.5974 C.ar    1  UNL1        0.0238
     29 C           1.1780  -14.1012   29.2170 C.ar    1  UNL1        0.0991
     30 N           1.5911  -15.0762   28.1546 N.ar    1  UNL1       -0.2391
     31 C           2.9184  -14.9246   27.4727 C.ar    1  UNL1        0.1362
     32 C           3.8327  -13.7979   27.8531 C.ar    1  UNL1        0.1646
     33 O           5.1912  -13.3972   27.3592 O.2     1  UNL1       -0.4473
@<TRIPOS>BOND
     1    17    18    1
     2    18    19    1
     3    18    16    1
     4    16    10    1
     5    10    11    1
     6    11    12    1
     7    12    13    1
     8    13     7    1
     9     7     8    2
    10     7     9    2
    11     7     1    1
    12     1     2   ar
    13     2     3   ar
    14     3     4   ar
    15     4    20    1
    16    20    21    1
    17    21    22   am
    18    22    23    2
    19    22    25    1
    20    25    26   ar
    21    26    27   ar
    22    27    28   ar
    23    28    29   ar
    24    29    30   ar
    25    30    31   ar
    26    31    32   ar
    27    32    33   ar
    28     4     5   ar
    29     5     6   ar
    30    13    14    1
    31    14    15    1
    32    15    10    1
    33     6     1   ar
    34    33    25   ar
    35    32    27   ar
    36    21    24    1
@<TRIPOS>MOLECULE
*****
 33 36 0 0 0
SMALL
GASTEIGER

@<TRIPOS>ATOM
      1 C           8.4398   -5.7860   27.0946 C.ar    1  UNL1        0.1056
      2 C           9.0620   -6.4358   28.2950 C.ar    1  UNL1        0.0181
      3 C           8.8762   -7.9050   28.5333 C.ar    1  UNL1       -0.0013
      4 C           8.0681   -8.7245   27.5714 C.ar    1  UNL1       -0.0025
      5 C           7.4459   -8.0749   26.3711 C.ar    1  UNL1       -0.0013
      6 C           7.6318   -6.6056   26.1327 C.ar    1  UNL1        0.0181
      7 S           8.6257   -4.3168   26.8563 S.O2    1  UNL1        0.0071
      8 O           7.7214   -4.3961   25.6622 O.2     1  UNL1       -0.1687
      9 O           9.5301   -4.2376   28.0504 O.2     1  UNL1       -0.1687
     10 N           9.1833    0.0908   26.1413 N.3     1  UNL1       -0.2726
     11 C           8.7338   -0.3999   27.4856 C.3     1  UNL1        0.0739
     12 C           8.5479   -1.8691   27.7239 C.3     1  UNL1        0.0413
     13 C           8.8116   -2.8476   26.6180 C.3     1  UNL1        0.1366
     14 C           9.2611   -2.3569   25.2737 C.3     1  UNL1        0.0413
     15 C           9.4470   -0.8876   25.0354 C.3     1  UNL1        0.0739
     16 C           9.3692    1.5600   25.9030 C.3     1  UNL1        0.0720
     17 C           8.4912    2.5819   23.6815 C.3     1  UNL1        0.0014
     18 C           8.3278    2.3357   25.1521 C.3     1  UNL1        0.0160
     19 C           7.1229    2.8652   25.8718 C.3     1  UNL1        0.0014
     20 C           7.8823  -10.1938   27.8098 C.3     1  UNL1        0.1167
     21 N           6.5014  -10.7784   27.8493 N.am    1  UNL1       -0.2944
     22 C           6.3077  -12.2205   28.2135 C.2     1  UNL1        0.2808
     23 O           7.4948  -13.0781   28.5381 O.2     1  UNL1       -0.2668
     24 H           5.7223  -10.2155   27.6362 H       1  UNL1        0.1501
     25 C           4.9269  -12.8051   28.2530 C.ar    1  UNL1        0.1984
     26 C           3.6456  -12.0335   28.3670 C.ar    1  UNL1        0.0453
     27 C           2.5117  -13.0155   28.3700 C.ar    1  UNL1        0.0409
     28 C           1.0257  -12.8324   28.4603 C.ar    1  UNL1        0.0238
     29 C           0.1201  -14.0280   28.4385 C.ar    1  UNL1        0.0991
     30 N           0.7006  -15.4066   28.3263 N.ar    1  UNL1       -0.2391
     31 C           2.1866  -15.5896   28.2359 C.ar    1  UNL1        0.1362
     32 C           3.0922  -14.3940   28.2578 C.ar    1  UNL1        0.1646
     33 O           4.5848  -14.2640   28.1855 O.2     1  UNL1       -0.4473
@<TRIPOS>BOND
     1    17    18    1
     2    18    19    1
     3    18    16    1
     4    16    10    1
     5    10    11    1
     6    11    12    1
     7    12    13    1
     8    13     7    1
     9     7     8    2
    10     7     9    2
    11     7     1    1
    12     1     2   ar
    13     2     3   ar
    14     3     4   ar
    15     4    20    1
    16    20    21    1
    17    21    22   am
    18    22    23    2
    19    22    25    1
    20    25    26   ar
    21    26    27   ar
    22    27    28   ar
    23    28    29   ar
    24    29    30   ar
    25    30    31   ar
    26    31    32   ar
    27    32    33   ar
    28     4     5   ar
    29     5     6   ar
    30    13    14    1
    31    14    15    1
    32    15    10    1
    33     6     1   ar
    34    33    25   ar
    35    32    27   ar
    36    21    24    1
@<TRIPOS>MOLECULE
*****
 33 36 0 0 0
SMALL
GASTEIGER

@<TRIPOS>ATOM
      1 C           5.4228   -1.4315   31.5685 C.ar    1  UNL1        0.1056
      2 C           5.0841   -0.8098   30.2460 C.ar    1  UNL1        0.0181
      3 C           5.4874   -1.4909   28.9719 C.ar    1  UNL1       -0.0013
      4 C           6.2292   -2.7937   29.0202 C.ar    1  UNL1       -0.0025
      5 C           6.5679   -3.4154   30.3426 C.ar    1  UNL1       -0.0013
      6 C           6.1646   -2.7343   31.6168 C.ar    1  UNL1        0.0181
      7 S           5.0195   -0.7504   32.8427 S.O2    1  UNL1        0.0071
      8 O           3.9120   -1.7455   33.0241 O.2     1  UNL1       -0.1687
      9 O           6.1271    0.2448   32.6612 O.2     1  UNL1       -0.1687
     10 N           3.8098    1.2929   36.6651 N.3     1  UNL1       -0.2726
     11 C           4.6525    0.0529   36.7118 C.3     1  UNL1        0.0739
     12 C           5.0558   -0.6282   35.4376 C.3     1  UNL1        0.0413
     13 C           4.6163   -0.0693   34.1168 C.3     1  UNL1        0.1366
     14 C           3.7736    1.1708   34.0702 C.3     1  UNL1        0.0413
     15 C           3.3703    1.8519   35.3444 C.3     1  UNL1        0.0739
     16 C           3.4066    1.9741   37.9393 C.3     1  UNL1        0.0720
     17 C           1.0669    2.8759   38.6194 C.3     1  UNL1        0.0014
     18 C           2.0413    1.7403   38.5151 C.3     1  UNL1        0.0160
     19 C           1.6505    0.3710   38.9866 C.3     1  UNL1        0.0014
     20 C           6.6325   -3.4748   27.7459 C.3     1  UNL1        0.1167
     21 N           5.9371   -3.1346   26.4611 N.am    1  UNL1       -0.2944
     22 C           6.3448   -3.8107   25.1858 C.2     1  UNL1        0.2808
     23 O           7.4479   -4.8271   25.1953 O.2     1  UNL1       -0.2668
     24 H           5.2131   -2.4675   26.4550 H       1  UNL1        0.1501
     25 C           5.6495   -3.4705   23.9010 C.ar    1  UNL1        0.1984
     26 C           4.6753   -2.3485   23.6960 C.ar    1  UNL1        0.0453
     27 C           4.2299   -2.3771   22.2639 C.ar    1  UNL1        0.0409
     28 C           3.2783   -1.5126   21.4913 C.ar    1  UNL1        0.0238
     29 C           3.0255   -1.7878   20.0386 C.ar    1  UNL1        0.0991
     30 N           3.7245   -2.9275   19.3585 N.ar    1  UNL1       -0.2391
     31 C           4.6762   -3.7920   20.1311 C.ar    1  UNL1        0.1362
     32 C           4.9289   -3.5168   21.5838 C.ar    1  UNL1        0.1646
     33 O           5.8062   -4.1925   22.5956 O.2     1  UNL1       -0.4473
@<TRIPOS>BOND
     1    17    18    1
     2    18    19    1
     3    18    16    1
     4    16    10    1
     5    10    11    1
     6    11    12    1
     7    12    13    1
     8    13     7    1
     9     7     8    2
    10     7     9    2
    11     7     1    1
    12     1     2   ar
    13     2     3   ar
    14     3     4   ar
    15     4    20    1
    16    20    21    1
    17    21    22   am
    18    22    23    2
    19    22    25    1
    20    25    26   ar
    21    26    27   ar
    22    27    28   ar
    23    28    29   ar
    24    29    30   ar
    25    30    31   ar
    26    31    32   ar
    27    32    33   ar
    28     4     5   ar
    29     5     6   ar
    30    13    14    1
    31    14    15    1
    32    15    10    1
    33     6     1   ar
    34    33    25   ar
    35    32    27   ar
    36    21    24    1
@<TRIPOS>MOLECULE
*****
 33 36 0 0 0
SMALL
GASTEIGER

@<TRIPOS>ATOM
      1 C           0.9103    2.3704   30.0331 C.ar    1  UNL1        0.1056
      2 C           1.0913    3.4679   29.0266 C.ar    1  UNL1        0.0181
      3 C           0.7635    3.2235   27.5834 C.ar    1  UNL1       -0.0013
      4 C           0.2547    1.8817   27.1467 C.ar    1  UNL1       -0.0025
      5 C           0.0738    0.7843   28.1531 C.ar    1  UNL1       -0.0013
      6 C           0.4016    1.0286   29.5963 C.ar    1  UNL1        0.0181
      7 S           1.2381    2.6149   31.4762 S.O2    1  UNL1        0.0071
      8 O           0.8462    4.0544   31.3215 O.2     1  UNL1       -0.1687
      9 O           1.6301    1.1753   31.6310 O.2     1  UNL1       -0.1687
     10 N           2.2216    3.3480   35.8058 N.3     1  UNL1       -0.2726
     11 C           2.7561    2.1309   35.1110 C.3     1  UNL1        0.0739
     12 C           2.4284    1.8865   33.6678 C.3     1  UNL1        0.0413
     13 C           1.5659    2.8593   32.9194 C.3     1  UNL1        0.1366
     14 C           1.0313    4.0764   33.6142 C.3     1  UNL1        0.0413
     15 C           1.3592    4.3208   35.0575 C.3     1  UNL1        0.0739
     16 C           2.5494    3.5924   37.2490 C.3     1  UNL1        0.0720
     17 C           0.8708    2.5067   38.9084 C.3     1  UNL1        0.0014
     18 C           2.2311    2.5481   38.2777 C.3     1  UNL1        0.0160
     19 C           3.2732    1.5453   38.6757 C.3     1  UNL1        0.0014
     20 C          -0.0730    1.6373   25.7034 C.3     1  UNL1        0.1167
     21 N           0.6410    0.5584   24.9444 N.am    1  UNL1       -0.2944
     22 C           1.9928    0.8269   24.3524 C.2     1  UNL1        0.2808
     23 O           2.6305    2.1742   24.5194 O.2     1  UNL1       -0.2668
     24 H           0.2225   -0.3259   24.8348 H       1  UNL1        0.1501
     25 C           2.7069   -0.2520   23.5934 C.ar    1  UNL1        0.1984
     26 C           2.6689   -0.4581   22.1081 C.ar    1  UNL1        0.0453
     27 C           3.5229   -1.6477   21.7832 C.ar    1  UNL1        0.0409
     28 C           3.8584   -2.3175   20.4836 C.ar    1  UNL1        0.0238
     29 C           4.7597   -3.5163   20.4686 C.ar    1  UNL1        0.0991
     30 N           5.3256   -4.0454   21.7530 N.ar    1  UNL1       -0.2391
     31 C           4.9901   -3.3757   23.0526 C.ar    1  UNL1        0.1362
     32 C           4.0887   -2.1768   23.0676 C.ar    1  UNL1        0.1646
     33 O           3.5844   -1.3142   24.1864 O.2     1  UNL1       -0.4473
@<TRIPOS>BOND
     1    17    18    1
     2    18    19    1
     3    18    16    1
     4    16    10    1
     5    10    11    1
     6    11    12    1
     7    12    13    1
     8    13     7    1
     9     7     8    2
    10     7     9    2
    11     7     1    1
    12     1     2   ar
    13     2     3   ar
    14     3     4   ar
    15     4    20    1
    16    20    21    1
    17    21    22   am
    18    22    23    2
    19    22    25    1
    20    25    26   ar
    21    26    27   ar
    22    27    28   ar
    23    28    29   ar
    24    29    30   ar
    25    30    31   ar
    26    31    32   ar
    27    32    33   ar
    28     4     5   ar
    29     5     6   ar
    30    13    14    1
    31    14    15    1
    32    15    10    1
    33     6     1   ar
    34    33    25   ar
    35    32    27   ar
    36    21    24    1
@<TRIPOS>MOLECULE
*****
 33 36 0 0 0
SMALL
GASTEIGER

@<TRIPOS>ATOM
      1 C           2.3989   -0.0273   19.1126 C.ar    1  UNL1        0.1056
      2 C           3.4723    0.0454   18.0672 C.ar    1  UNL1        0.0181
      3 C           4.5542   -0.9928   18.0297 C.ar    1  UNL1       -0.0013
      4 C           4.5629   -2.1038   19.0374 C.ar    1  UNL1       -0.0025
      5 C           3.4897   -2.1766   20.0828 C.ar    1  UNL1       -0.0013
      6 C           2.4076   -1.1383   20.1204 C.ar    1  UNL1        0.0181
      7 S           1.3170    1.0109   19.1502 S.O2    1  UNL1        0.0071
      8 O           0.4841    0.1116   20.0147 O.2     1  UNL1       -0.1687
      9 O           2.1499    1.9102   18.2857 O.2     1  UNL1       -0.1687
     10 N          -1.9289    4.1255   19.2629 N.3     1  UNL1       -0.2726
     11 C          -1.6858    3.2521   20.4579 C.3     1  UNL1        0.0739
     12 C          -0.6038    2.2139   20.4203 C.3     1  UNL1        0.0413
     13 C           0.2350    2.0491   19.1877 C.3     1  UNL1        0.1366
     14 C          -0.0081    2.9225   17.9928 C.3     1  UNL1        0.0413
     15 C          -1.0902    3.9608   18.0304 C.3     1  UNL1        0.0739
     16 C          -3.0109    5.1637   19.3005 C.3     1  UNL1        0.0720
     17 C          -4.9491    3.7397   18.3179 C.3     1  UNL1        0.0014
     18 C          -4.4515    4.7457   19.3130 C.3     1  UNL1        0.0160
     19 C          -5.3943    5.3336   20.3206 C.3     1  UNL1        0.0014
     20 C           5.6450   -3.1420   18.9998 C.3     1  UNL1        0.1167
     21 N           5.9180   -3.9848   20.2102 N.am    1  UNL1       -0.2944
     22 C           6.8291   -3.4766   21.2880 C.2     1  UNL1        0.2808
     23 O           7.4670   -2.1255   21.1554 O.2     1  UNL1       -0.2668
     24 H           5.4993   -4.8716   20.2973 H       1  UNL1        0.1501
     25 C           7.1021   -4.3194   22.4984 C.ar    1  UNL1        0.1984
     26 C           6.6354   -4.0340   23.8951 C.ar    1  UNL1        0.0453
     27 C           7.1347   -5.1338   24.7846 C.ar    1  UNL1        0.0409
     28 C           6.9836   -5.3810   26.2563 C.ar    1  UNL1        0.0238
     29 C           7.6077   -6.5935   26.8810 C.ar    1  UNL1        0.0991
     30 N           8.3830   -7.5587   26.0341 N.ar    1  UNL1       -0.2391
     31 C           8.5342   -7.3114   24.5624 C.ar    1  UNL1        0.1362
     32 C           7.9100   -6.0989   23.9376 C.ar    1  UNL1        0.1646
     33 O           7.8899   -5.5956   22.5247 O.2     1  UNL1       -0.4473
@<TRIPOS>BOND
     1    17    18    1
     2    18    19    1
     3    18    16    1
     4    16    10    1
     5    10    11    1
     6    11    12    1
     7    12    13    1
     8    13     7    1
     9     7     8    2
    10     7     9    2
    11     7     1    1
    12     1     2   ar
    13     2     3   ar
    14     3     4   ar
    15     4    20    1
    16    20    21    1
    17    21    22   am
    18    22    23    2
    19    22    25    1
    20    25    26   ar
    21    26    27   ar
    22    27    28   ar
    23    28    29   ar
    24    29    30   ar
    25    30    31   ar
    26    31    32   ar
    27    32    33   ar
    28     4     5   ar
    29     5     6   ar
    30    13    14    1
    31    14    15    1
    32    15    10    1
    33     6     1   ar
    34    33    25   ar
    35    32    27   ar
    36    21    24    1
@<TRIPOS>MOLECULE
*****
 33 36 0 0 0
SMALL
GASTEIGER

@<TRIPOS>ATOM
      1 C           6.4835   -3.7719   27.3908 C.ar    1  UNL1        0.1056
      2 C           6.3238   -2.4757   28.1287 C.ar    1  UNL1        0.0181
      3 C           6.3699   -2.4556   29.6278 C.ar    1  UNL1       -0.0013
      4 C           6.5757   -3.7315   30.3891 C.ar    1  UNL1       -0.0025
      5 C           6.7354   -5.0277   29.6512 C.ar    1  UNL1       -0.0013
      6 C           6.6893   -5.0479   28.1520 C.ar    1  UNL1        0.0181
      7 S           6.4373   -3.7921   25.8916 S.O2    1  UNL1        0.0071
      8 O           5.8483   -2.4127   25.8912 O.2     1  UNL1       -0.1687
      9 O           7.0264   -5.1716   25.8921 O.2     1  UNL1       -0.1687
     10 N           6.2989   -3.8527   21.3942 N.3     1  UNL1       -0.2726
     11 C           5.1578   -3.2669   22.1718 C.3     1  UNL1        0.0739
     12 C           5.2040   -3.2467   23.6710 C.3     1  UNL1        0.0413
     13 C           6.3912   -3.8123   24.3925 C.3     1  UNL1        0.1366
     14 C           7.5323   -4.3981   23.6148 C.3     1  UNL1        0.0413
     15 C           7.4861   -4.4183   22.1156 C.3     1  UNL1        0.0739
     16 C           6.2528   -3.8729   19.8951 C.3     1  UNL1        0.0720
     17 C           4.4908   -2.4876   18.5811 C.3     1  UNL1        0.0014
     18 C           4.9348   -3.7873   19.1840 C.3     1  UNL1        0.0160
     19 C           4.0607   -5.0016   19.0759 C.3     1  UNL1        0.0014
     20 C           6.6218   -3.7113   31.8883 C.3     1  UNL1        0.1167
     21 N           5.7366   -2.7726   32.6533 N.am    1  UNL1       -0.2944
     22 C           6.3264   -1.5745   33.3363 C.2     1  UNL1        0.2808
     23 O           7.8014   -1.3151   33.2544 O.2     1  UNL1       -0.2668
     24 H           4.7684   -2.9429   32.7070 H       1  UNL1        0.1501
     25 C           5.4411   -0.6358   34.1013 C.ar    1  UNL1        0.1984
     26 C           5.3609   -0.5194   35.5946 C.ar    1  UNL1        0.0453
     27 C           4.3508    0.5396   35.9235 C.ar    1  UNL1        0.0409
     28 C           3.8562    1.0834   37.2310 C.ar    1  UNL1        0.0238
     29 C           2.8175    2.1654   37.2484 C.ar    1  UNL1        0.0991
     30 N           2.2733    2.7035   35.9583 N.ar    1  UNL1       -0.2391
     31 C           2.7679    2.1596   34.6508 C.ar    1  UNL1        0.1362
     32 C           3.8066    1.0777   34.6334 C.ar    1  UNL1        0.1646
     33 O           4.4805    0.3512   33.5072 O.2     1  UNL1       -0.4473
@<TRIPOS>BOND
     1    17    18    1
     2    18    19    1
     3    18    16    1
     4    16    10    1
     5    10    11    1
     6    11    12    1
     7    12    13    1
     8    13     7    1
     9     7     8    2
    10     7     9    2
    11     7     1    1
    12     1     2   ar
    13     2     3   ar
    14     3     4   ar
    15     4    20    1
    16    20    21    1
    17    21    22   am
    18    22    23    2
    19    22    25    1
    20    25    26   ar
    21    26    27   ar
    22    27    28   ar
    23    28    29   ar
    24    29    30   ar
    25    30    31   ar
    26    31    32   ar
    27    32    33   ar
    28     4     5   ar
    29     5     6   ar
    30    13    14    1
    31    14    15    1
    32    15    10    1
    33     6     1   ar
    34    33    25   ar
    35    32    27   ar
    36    21    24    1
@<TRIPOS>MOLECULE
*****
 33 36 0 0 0
SMALL
GASTEIGER

@<TRIPOS>ATOM
      1 C           4.1534   -2.2056   22.2069 C.ar    1  UNL1        0.1056
      2 C           3.3724   -1.0793   22.8166 C.ar    1  UNL1        0.0181
      3 C           2.3550   -0.3423   21.9971 C.ar    1  UNL1       -0.0013
      4 C           2.1184   -0.7315   20.5680 C.ar    1  UNL1       -0.0025
      5 C           2.8992   -1.8577   19.9582 C.ar    1  UNL1       -0.0013
      6 C           3.9168   -2.5948   20.7777 C.ar    1  UNL1        0.0181
      7 S           5.1708   -2.9426   23.0263 S.O2    1  UNL1        0.0071
      8 O           5.0279   -4.1366   22.1298 O.2     1  UNL1       -0.1687
      9 O           5.3137   -1.7485   23.9228 O.2     1  UNL1       -0.1687
     10 N           8.2233   -5.1536   25.4848 N.3     1  UNL1       -0.2726
     11 C           7.3204   -4.1486   26.1367 C.3     1  UNL1        0.0739
     12 C           6.3030   -3.4116   25.3172 C.3     1  UNL1        0.0413
     13 C           6.1883   -3.6796   23.8458 C.3     1  UNL1        0.1366
     14 C           7.0911   -4.6845   23.1938 C.3     1  UNL1        0.0413
     15 C           8.1086   -5.4215   24.0134 C.3     1  UNL1        0.0739
     16 C           9.2407   -5.8906   26.3042 C.3     1  UNL1        0.0720
     17 C           8.1704   -8.2519   26.4732 C.3     1  UNL1        0.0014
     18 C           8.8258   -7.0728   27.1290 C.3     1  UNL1        0.0160
     19 C           9.0663   -7.0758   28.6096 C.3     1  UNL1        0.0014
     20 C           1.1008    0.0056   19.7485 C.3     1  UNL1        0.1167
     21 N          -0.0781    0.6480   20.4174 N.am    1  UNL1       -0.2944
     22 C          -0.2163    2.1416   20.4212 C.2     1  UNL1        0.2808
     23 O           0.8245    2.9928   19.7561 O.2     1  UNL1       -0.2668
     24 H          -0.7612    0.0894   20.8539 H       1  UNL1        0.1501
     25 C          -1.3952    2.7841   21.0900 C.ar    1  UNL1        0.1984
     26 C          -1.3491    3.6616   22.3057 C.ar    1  UNL1        0.0453
     27 C          -2.7526    4.0817   22.6277 C.ar    1  UNL1        0.0409
     28 C          -3.3168    4.9470   23.7153 C.ar    1  UNL1        0.0238
     29 C          -4.7945    5.1944   23.7862 C.ar    1  UNL1        0.0991
     30 N          -5.7081    4.5765   22.7695 N.ar    1  UNL1       -0.2391
     31 C          -5.1439    3.7112   21.6819 C.ar    1  UNL1        0.1362
     32 C          -3.6662    3.4638   21.6110 C.ar    1  UNL1        0.1646
     33 O          -2.8272    2.6618   20.6607 O.2     1  UNL1       -0.4473
@<TRIPOS>BOND
     1    17    18    1
     2    18    19    1
     3    18    16    1
     4    16    10    1
     5    10    11    1
     6    11    12    1
     7    12    13    1
     8    13     7    1
     9     7     8    2
    10     7     9    2
    11     7     1    1
    12     1     2   ar
    13     2     3   ar
    14     3     4   ar
    15     4    20    1
    16    20    21    1
    17    21    22   am
    18    22    23    2
    19    22    25    1
    20    25    26   ar
    21    26    27   ar
    22    27    28   ar
    23    28    29   ar
    24    29    30   ar
    25    30    31   ar
    26    31    32   ar
    27    32    33   ar
    28     4     5   ar
    29     5     6   ar
    30    13    14    1
    31    14    15    1
    32    15    10    1
    33     6     1   ar
    34    33    25   ar
    35    32    27   ar
    36    21    24    1
@<TRIPOS>MOLECULE
*****
 33 36 0 0 0
SMALL
GASTEIGER

@<TRIPOS>ATOM
      1 C           6.2479   -2.8150   30.2383 C.ar    1  UNL1        0.1056
      2 C           5.9271   -2.0420   28.9935 C.ar    1  UNL1        0.0181
      3 C           6.1401   -2.6671   27.6467 C.ar    1  UNL1       -0.0013
      4 C           6.6741   -4.0652   27.5447 C.ar    1  UNL1       -0.0025
      5 C           6.9949   -4.8381   28.7895 C.ar    1  UNL1       -0.0013
      6 C           6.7819   -4.2130   30.1364 C.ar    1  UNL1        0.0181
      7 S           6.0349   -2.1899   31.5851 S.O2    1  UNL1        0.0071
      8 O           5.5757   -0.9238   30.9248 O.2     1  UNL1       -0.1687
      9 O           6.4941   -3.4560   32.2454 O.2     1  UNL1       -0.1687
     10 N           5.3957   -0.3146   35.6255 N.3     1  UNL1       -0.2726
     11 C           6.7176   -0.1689   34.9316 C.3     1  UNL1        0.0739
     12 C           6.9307   -0.7940   33.5849 C.3     1  UNL1        0.0413
     13 C           5.8218   -1.5648   32.9319 C.3     1  UNL1        0.1366
     14 C           4.4999   -1.7105   33.6257 C.3     1  UNL1        0.0413
     15 C           4.2869   -1.0854   34.9725 C.3     1  UNL1        0.0739
     16 C           5.1827    0.3105   36.9722 C.3     1  UNL1        0.0720
     17 C           3.0762    0.9604   38.3472 C.3     1  UNL1        0.0014
     18 C           4.0095    1.2168   37.2013 C.3     1  UNL1        0.0160
     19 C           3.7698    2.3796   36.2845 C.3     1  UNL1        0.0014
     20 C           6.8871   -4.6902   26.1979 C.3     1  UNL1        0.1167
     21 N           6.2951   -4.0557   24.9744 N.am    1  UNL1       -0.2944
     22 C           6.6822   -4.5488   23.6118 C.2     1  UNL1        0.2808
     23 O           7.6614   -5.6765   23.4725 O.2     1  UNL1       -0.2668
     24 H           5.6524   -3.3155   25.0658 H       1  UNL1        0.1501
     25 C           6.0902   -3.9142   22.3883 C.ar    1  UNL1        0.1984
     26 C           4.7436   -3.2595   22.2985 C.ar    1  UNL1        0.0453
     27 C           4.5620   -2.7636   20.8946 C.ar    1  UNL1        0.0409
     28 C           3.4321   -2.0400   20.2240 C.ar    1  UNL1        0.0238
     29 C           3.5366   -1.6645   18.7756 C.ar    1  UNL1        0.0991
     30 N           4.7709   -2.0127   17.9977 N.ar    1  UNL1       -0.2391
     31 C           5.9008   -2.7363   18.6682 C.ar    1  UNL1        0.1362
     32 C           5.7963   -3.1118   20.1167 C.ar    1  UNL1        0.1646
     33 O           6.7408   -3.8229   21.0399 O.2     1  UNL1       -0.4473
@<TRIPOS>BOND
     1    17    18    1
     2    18    19    1
     3    18    16    1
     4    16    10    1
     5    10    11    1
     6    11    12    1
     7    12    13    1
     8    13     7    1
     9     7     8    2
    10     7     9    2
    11     7     1    1
    12     1     2   ar
    13     2     3   ar
    14     3     4   ar
    15     4    20    1
    16    20    21    1
    17    21    22   am
    18    22    23    2
    19    22    25    1
    20    25    26   ar
    21    26    27   ar
    22    27    28   ar
    23    28    29   ar
    24    29    30   ar
    25    30    31   ar
    26    31    32   ar
    27    32    33   ar
    28     4     5   ar
    29     5     6   ar
    30    13    14    1
    31    14    15    1
    32    15    10    1
    33     6     1   ar
    34    33    25   ar
    35    32    27   ar
    36    21    24    1
@<TRIPOS>MOLECULE
*****
 33 36 0 0 0
SMALL
GASTEIGER

@<TRIPOS>ATOM
      1 C           3.0798   -0.8372   21.6682 C.ar    1  UNL1        0.1056
      2 C           2.4222   -1.1735   20.3626 C.ar    1  UNL1        0.0181
      3 C           1.3384   -0.2903   19.8193 C.ar    1  UNL1       -0.0013
      4 C           0.9121    0.9292   20.5816 C.ar    1  UNL1       -0.0025
      5 C           1.5696    1.2655   21.8871 C.ar    1  UNL1       -0.0013
      6 C           2.6535    0.3823   22.4304 C.ar    1  UNL1        0.0181
      7 S           4.1636   -1.7204   22.2115 S.O2    1  UNL1        0.0071
      8 O           4.1608   -2.5088   20.9355 O.2     1  UNL1       -0.1687
      9 O           4.1665   -0.9320   23.4875 O.2     1  UNL1       -0.1687
     10 N           7.4152   -4.3700   23.8414 N.3     1  UNL1       -0.2726
     11 C           6.4468   -3.7091   24.7770 C.3     1  UNL1        0.0739
     12 C           5.3630   -2.8259   24.2338 C.3     1  UNL1        0.0413
     13 C           5.2475   -2.6036   22.7548 C.3     1  UNL1        0.1366
     14 C           6.2159   -3.2646   21.8191 C.3     1  UNL1        0.0413
     15 C           7.2997   -4.1478   22.3625 C.3     1  UNL1        0.0739
     16 C           8.4990   -5.2532   24.3847 C.3     1  UNL1        0.0720
     17 C           7.7203   -7.5290   25.3669 C.3     1  UNL1        0.0014
     18 C           8.3789   -6.7442   24.2713 C.3     1  UNL1        0.0160
     19 C           8.9175   -7.4502   23.0624 C.3     1  UNL1        0.0014
     20 C          -0.1718    1.8124   20.0382 C.3     1  UNL1        0.1167
     21 N          -1.3315    2.1980   20.9079 N.am    1  UNL1       -0.2944
     22 C          -2.3476    3.1827   20.4100 C.2     1  UNL1        0.2808
     23 O          -2.2040    3.7818   19.0424 O.2     1  UNL1       -0.2668
     24 H          -1.4258    1.8048   21.8055 H       1  UNL1        0.1501
     25 C          -3.5073    3.5683   21.2797 C.ar    1  UNL1        0.1984
     26 C          -4.8507    4.0346   20.8024 C.ar    1  UNL1        0.0453
     27 C          -5.7009    4.3098   22.0071 C.ar    1  UNL1        0.0409
     28 C          -7.1142    4.7918   22.1493 C.ar    1  UNL1        0.0238
     29 C          -7.7095    4.9776   23.5135 C.ar    1  UNL1        0.0991
     30 N          -6.8916    4.6814   24.7355 N.ar    1  UNL1       -0.2391
     31 C          -5.4783    4.1994   24.5933 C.ar    1  UNL1        0.1362
     32 C          -4.8830    4.0136   23.2291 C.ar    1  UNL1        0.1646
     33 O          -3.5273    3.5553   22.7795 O.2     1  UNL1       -0.4473
@<TRIPOS>BOND
     1    17    18    1
     2    18    19    1
     3    18    16    1
     4    16    10    1
     5    10    11    1
     6    11    12    1
     7    12    13    1
     8    13     7    1
     9     7     8    2
    10     7     9    2
    11     7     1    1
    12     1     2   ar
    13     2     3   ar
    14     3     4   ar
    15     4    20    1
    16    20    21    1
    17    21    22   am
    18    22    23    2
    19    22    25    1
    20    25    26   ar
    21    26    27   ar
    22    27    28   ar
    23    28    29   ar
    24    29    30   ar
    25    30    31   ar
    26    31    32   ar
    27    32    33   ar
    28     4     5   ar
    29     5     6   ar
    30    13    14    1
    31    14    15    1
    32    15    10    1
    33     6     1   ar
    34    33    25   ar
    35    32    27   ar
    36    21    24    1
