@<TRIPOS>MOLECULE
*****
 34 37 0 0 0
SMALL
GASTEIGER

@<TRIPOS>ATOM
      1 C           0.4383    1.9809   20.7858 C.2     1  UNL1        0.2459
      2 O           0.3793    2.0201   19.2875 O.2     1  UNL1       -0.2730
      3 N           1.3376    0.9983   21.4756 N.am    1  UNL1       -0.2781
      4 C           1.3965    0.9592   22.9739 C.3     1  UNL1        0.0935
      5 C           2.2959   -0.0233   23.6637 C.3     1  UNL1        0.0219
      6 C           3.1362   -0.9667   22.8551 C.3     1  UNL1        0.0078
      7 C           3.0773   -0.9276   21.3568 C.3     1  UNL1        0.0419
      8 C           2.1780    0.0549   20.6671 C.3     1  UNL1        0.0953
      9 C           3.9177   -1.8710   20.5483 C.ar    1  UNL1       -0.0209
     10 C           5.3962   -1.6466   20.4318 C.ar    1  UNL1       -0.0042
     11 C           6.2365   -2.5900   19.6232 C.ar    1  UNL1       -0.0003
     12 C           5.5984   -3.7578   18.9312 C.ar    1  UNL1       -0.0000
     13 C           4.1199   -3.9822   19.0477 C.ar    1  UNL1       -0.0003
     14 C           3.2795   -3.0388   19.8562 C.ar    1  UNL1       -0.0042
     15 C          -0.4021    2.9243   21.5944 C.3     1  UNL1        0.1773
     16 N          -1.1214    4.0544   20.9195 N.pl3   1  UNL1       -0.2973
     17 C          -2.5086    3.8489   20.3868 C.ar    1  UNL1        0.0492
     18 C          -3.6216    3.4717   21.3189 C.ar    1  UNL1        0.0154
     19 C          -5.0087    3.2662   20.7862 C.ar    1  UNL1        0.0135
     20 C          -5.2827    3.4379   19.3215 C.ar    1  UNL1        0.0683
     21 CL         -6.6698    3.2324   18.7888 Cl      1  UNL1       -0.0814
     22 C          -4.1696    3.8152   18.3895 C.ar    1  UNL1        0.0694
     23 CL         -4.4437    3.9869   16.9247 Cl      1  UNL1       -0.0813
     24 C          -2.7825    4.0207   18.9221 C.ar    1  UNL1        0.0268
     25 C          -0.4537    5.3901   20.7774 C.3     1  UNL1        0.1234
     26 C           0.6906    5.5586   19.8222 C.3     1  UNL1        0.1636
     27 C           0.5419    5.0674   17.2754 C.3     1  UNL1        0.1742
     28 O           0.4350    6.0295   18.4212 O.3     1  UNL1       -0.3493
     29 C           2.1190    0.0941   19.1687 C.3     1  UNL1        0.0924
     30 N           3.3681    0.3389   18.3751 N.3     1  UNL1       -0.2713
     31 C           3.8594   -0.4907   17.2259 C.3     1  UNL1        0.0722
     32 C           5.1402    0.1139   16.7320 C.3     1  UNL1        0.0188
     33 C           5.4406    1.3171   17.5759 C.3     1  UNL1        0.0188
     34 C           4.3454    1.4561   18.5914 C.3     1  UNL1        0.0722
@<TRIPOS>BOND
     1    27    28    1
     2    28    26    1
     3    26    25    1
     4    25    16    1
     5    16    15    1
     6    15     1    1
     7     1     2    2
     8     1     3   am
     9     3     4    1
    10     4     5    1
    11     5     6    1
    12     6     7    1
    13     7     9    1
    14     9    10   ar
    15    10    11   ar
    16    11    12   ar
    17    12    13   ar
    18    13    14   ar
    19     7     8    1
    20     8    29    1
    21    29    30    1
    22    30    31    1
    23    31    32    1
    24    32    33    1
    25    33    34    1
    26    16    17    1
    27    17    18   ar
    28    18    19   ar
    29    19    20   ar
    30    20    21    1
    31    20    22   ar
    32    22    23    1
    33    22    24   ar
    34     8     3    1
    35    34    30    1
    36    24    17   ar
    37    14     9   ar
@<TRIPOS>MOLECULE
*****
 34 37 0 0 0
SMALL
GASTEIGER

@<TRIPOS>ATOM
      1 C           0.8629    2.4230   20.6448 C.2     1  UNL1        0.2459
      2 O           0.8917    2.4924   19.1467 O.2     1  UNL1       -0.2730
      3 N           1.5951    1.3257   21.3590 N.am    1  UNL1       -0.2781
      4 C           1.5663    1.2562   22.8571 C.3     1  UNL1        0.0935
      5 C           2.2984    0.1590   23.5712 C.3     1  UNL1        0.0219
      6 C           3.0594   -0.8688   22.7872 C.3     1  UNL1        0.0078
      7 C           3.0882   -0.7993   21.2891 C.3     1  UNL1        0.0419
      8 C           2.3561    0.2979   20.5750 C.3     1  UNL1        0.0953
      9 C           3.8492   -1.8271   20.5052 C.ar    1  UNL1       -0.0209
     10 C           5.3475   -1.7759   20.4573 C.ar    1  UNL1       -0.0042
     11 C           6.1084   -2.8036   19.6733 C.ar    1  UNL1       -0.0003
     12 C           5.3711   -3.8827   18.9372 C.ar    1  UNL1       -0.0000
     13 C           3.8727   -3.9339   18.9851 C.ar    1  UNL1       -0.0003
     14 C           3.1118   -2.9061   19.7690 C.ar    1  UNL1       -0.0042
     15 C           0.1020    3.4507   21.4288 C.3     1  UNL1        0.1773
     16 N          -1.3914    3.3586   21.5350 N.pl3   1  UNL1       -0.2973
     17 C          -2.0579    3.4933   22.8721 C.ar    1  UNL1        0.0492
     18 C          -1.2450    3.3941   24.1288 C.ar    1  UNL1        0.0154
     19 C          -1.9114    3.5288   25.4658 C.ar    1  UNL1        0.0135
     20 C          -3.3909    3.7627   25.5461 C.ar    1  UNL1        0.0683
     21 CL         -4.0574    3.8974   26.8832 Cl      1  UNL1       -0.0814
     22 C          -4.2038    3.8618   24.2894 C.ar    1  UNL1        0.0694
     23 CL         -5.6834    4.0957   24.3698 Cl      1  UNL1       -0.0813
     24 C          -3.5374    3.7272   22.9524 C.ar    1  UNL1        0.0268
     25 C          -2.2183    3.1318   20.3043 C.3     1  UNL1        0.1234
     26 C          -2.3314    4.2100   19.2675 C.3     1  UNL1        0.1636
     27 C          -4.5158    3.8463   17.9088 C.3     1  UNL1        0.1742
     28 O          -3.0191    3.9284   17.9645 O.3     1  UNL1       -0.3493
     29 C           2.3848    0.3674   19.0769 C.3     1  UNL1        0.0924
     30 N           3.6877    0.5643   18.3601 N.3     1  UNL1       -0.2713
     31 C           4.2289   -0.3011   17.2610 C.3     1  UNL1        0.0722
     32 C           5.5539    0.2609   16.8382 C.3     1  UNL1        0.0188
     33 C           5.8315    1.4737   17.6761 C.3     1  UNL1        0.0188
     34 C           4.6782    1.6612   18.6167 C.3     1  UNL1        0.0722
@<TRIPOS>BOND
     1    27    28    1
     2    28    26    1
     3    26    25    1
     4    25    16    1
     5    16    15    1
     6    15     1    1
     7     1     2    2
     8     1     3   am
     9     3     4    1
    10     4     5    1
    11     5     6    1
    12     6     7    1
    13     7     9    1
    14     9    10   ar
    15    10    11   ar
    16    11    12   ar
    17    12    13   ar
    18    13    14   ar
    19     7     8    1
    20     8    29    1
    21    29    30    1
    22    30    31    1
    23    31    32    1
    24    32    33    1
    25    33    34    1
    26    16    17    1
    27    17    18   ar
    28    18    19   ar
    29    19    20   ar
    30    20    21    1
    31    20    22   ar
    32    22    23    1
    33    22    24   ar
    34     8     3    1
    35    34    30    1
    36    24    17   ar
    37    14     9   ar
@<TRIPOS>MOLECULE
*****
 34 37 0 0 0
SMALL
GASTEIGER

@<TRIPOS>ATOM
      1 C           5.5433   -0.6371   25.1418 C.2     1  UNL1        0.2459
      2 O           5.2907    0.8393   25.2225 O.2     1  UNL1       -0.2730
      3 N           5.0664   -1.4156   23.9516 N.am    1  UNL1       -0.2781
      4 C           5.3190   -2.8920   23.8709 C.3     1  UNL1        0.0935
      5 C           4.8420   -3.6704   22.6808 C.3     1  UNL1        0.0219
      6 C           4.1125   -2.9726   21.5714 C.3     1  UNL1        0.0078
      7 C           3.8598   -1.4963   21.6521 C.3     1  UNL1        0.0419
      8 C           4.3368   -0.7178   22.8422 C.3     1  UNL1        0.0953
      9 C           3.1303   -0.7984   20.5427 C.ar    1  UNL1       -0.0209
     10 C           3.8926   -0.2448   19.3756 C.ar    1  UNL1       -0.0042
     11 C           3.1630    0.4530   18.2662 C.ar    1  UNL1       -0.0003
     12 C           1.6711    0.5973   18.3240 C.ar    1  UNL1       -0.0000
     13 C           0.9088    0.0437   19.4911 C.ar    1  UNL1       -0.0003
     14 C           1.6384   -0.6541   20.6005 C.ar    1  UNL1       -0.0042
     15 C           6.2729   -1.3349   26.2512 C.3     1  UNL1        0.1773
     16 N           5.6172   -1.5051   27.5895 N.pl3   1  UNL1       -0.2973
     17 C           6.0329   -2.6297   28.4908 C.ar    1  UNL1        0.0492
     18 C           6.2965   -3.9911   27.9188 C.ar    1  UNL1        0.0154
     19 C           6.7122   -5.1157   28.8201 C.ar    1  UNL1        0.0135
     20 C           6.8644   -4.8789   30.2934 C.ar    1  UNL1        0.0683
     21 CL          7.2802   -6.0035   31.1948 Cl      1  UNL1       -0.0814
     22 C           6.6009   -3.5175   30.8655 C.ar    1  UNL1        0.0694
     23 CL          6.7531   -3.2808   32.3389 Cl      1  UNL1       -0.0813
     24 C           6.1851   -2.3929   29.9642 C.ar    1  UNL1        0.0268
     25 C           4.5457   -0.5506   28.0264 C.3     1  UNL1        0.1234
     26 C           3.1008   -0.9214   27.8680 C.3     1  UNL1        0.1636
     27 C           0.8758   -0.1914   28.9932 C.3     1  UNL1        0.1742
     28 O           2.1893   -0.9127   29.0592 O.3     1  UNL1       -0.3493
     29 C           4.0842    0.7586   22.9230 C.3     1  UNL1        0.0924
     30 N           2.7122    1.2679   23.2522 N.3     1  UNL1       -0.2713
     31 C           1.7669    0.6715   24.2525 C.3     1  UNL1        0.0722
     32 C           0.5151    1.4979   24.2574 C.3     1  UNL1        0.0188
     33 C           0.6868    2.6051   23.2601 C.3     1  UNL1        0.0188
     34 C           2.0447    2.4629   22.6389 C.3     1  UNL1        0.0722
@<TRIPOS>BOND
     1    27    28    1
     2    28    26    1
     3    26    25    1
     4    25    16    1
     5    16    15    1
     6    15     1    1
     7     1     2    2
     8     1     3   am
     9     3     4    1
    10     4     5    1
    11     5     6    1
    12     6     7    1
    13     7     9    1
    14     9    10   ar
    15    10    11   ar
    16    11    12   ar
    17    12    13   ar
    18    13    14   ar
    19     7     8    1
    20     8    29    1
    21    29    30    1
    22    30    31    1
    23    31    32    1
    24    32    33    1
    25    33    34    1
    26    16    17    1
    27    17    18   ar
    28    18    19   ar
    29    19    20   ar
    30    20    21    1
    31    20    22   ar
    32    22    23    1
    33    22    24   ar
    34     8     3    1
    35    34    30    1
    36    24    17   ar
    37    14     9   ar
@<TRIPOS>MOLECULE
*****
 34 37 0 0 0
SMALL
GASTEIGER

@<TRIPOS>ATOM
      1 C           2.3086    2.0455   23.4581 C.2     1  UNL1        0.2459
      2 O           3.7197    1.9614   23.9597 O.2     1  UNL1       -0.2730
      3 N           1.8930    1.2561   22.2521 N.am    1  UNL1       -0.2781
      4 C           0.4819    1.3401   21.7504 C.3     1  UNL1        0.0935
      5 C           0.0665    0.5508   20.5445 C.3     1  UNL1        0.0219
      6 C           1.0621   -0.3226   19.8403 C.3     1  UNL1        0.0078
      7 C           2.4732   -0.4066   20.3419 C.3     1  UNL1        0.0419
      8 C           2.8887    0.3827   21.5478 C.3     1  UNL1        0.0953
      9 C           3.4688   -1.2799   19.6376 C.ar    1  UNL1       -0.0209
     10 C           4.5237   -0.6637   18.7673 C.ar    1  UNL1       -0.0042
     11 C           5.5193   -1.5371   18.0630 C.ar    1  UNL1       -0.0003
     12 C           5.4601   -3.0266   18.2291 C.ar    1  UNL1       -0.0000
     13 C           4.4052   -3.6429   19.0994 C.ar    1  UNL1       -0.0003
     14 C           3.4096   -2.7695   19.8037 C.ar    1  UNL1       -0.0042
     15 C           1.3130    2.9188   24.1623 C.3     1  UNL1        0.1773
     16 N           0.3574    2.3200   25.1515 N.pl3   1  UNL1       -0.2973
     17 C          -1.0417    2.8502   25.2582 C.ar    1  UNL1        0.0492
     18 C          -1.6819    3.0115   26.6051 C.ar    1  UNL1        0.0154
     19 C          -3.0810    3.5417   26.7118 C.ar    1  UNL1        0.0135
     20 C          -3.8399    3.9104   25.4717 C.ar    1  UNL1        0.0683
     21 CL         -5.2391    4.4406   25.5784 Cl      1  UNL1       -0.0814
     22 C          -3.1997    3.7491   24.1248 C.ar    1  UNL1        0.0694
     23 CL         -3.9587    4.1179   22.8846 Cl      1  UNL1       -0.0813
     24 C          -1.8006    3.2190   24.0180 C.ar    1  UNL1        0.0268
     25 C           0.8010    1.1911   26.0339 C.3     1  UNL1        0.1234
     26 C           1.5664    1.4784   27.2916 C.3     1  UNL1        0.1636
     27 C          -0.1690    0.1197   28.6672 C.3     1  UNL1        0.1742
     28 O           1.1219    0.8800   28.5933 O.3     1  UNL1       -0.3493
     29 C           4.2998    0.2988   22.0495 C.3     1  UNL1        0.0924
     30 N           4.8729   -1.0258   22.4583 N.3     1  UNL1       -0.2713
     31 C           4.2151   -2.0321   23.3553 C.3     1  UNL1        0.0722
     32 C           5.1400   -3.2049   23.4932 C.3     1  UNL1        0.0188
     33 C           6.3695   -2.9235   22.6813 C.3     1  UNL1        0.0188
     34 C           6.2044   -1.5768   22.0417 C.3     1  UNL1        0.0722
@<TRIPOS>BOND
     1    27    28    1
     2    28    26    1
     3    26    25    1
     4    25    16    1
     5    16    15    1
     6    15     1    1
     7     1     2    2
     8     1     3   am
     9     3     4    1
    10     4     5    1
    11     5     6    1
    12     6     7    1
    13     7     9    1
    14     9    10   ar
    15    10    11   ar
    16    11    12   ar
    17    12    13   ar
    18    13    14   ar
    19     7     8    1
    20     8    29    1
    21    29    30    1
    22    30    31    1
    23    31    32    1
    24    32    33    1
    25    33    34    1
    26    16    17    1
    27    17    18   ar
    28    18    19   ar
    29    19    20   ar
    30    20    21    1
    31    20    22   ar
    32    22    23    1
    33    22    24   ar
    34     8     3    1
    35    34    30    1
    36    24    17   ar
    37    14     9   ar
@<TRIPOS>MOLECULE
*****
 34 37 0 0 0
SMALL
GASTEIGER

@<TRIPOS>ATOM
      1 C           7.0722   -4.0198   24.3780 C.2     1  UNL1        0.2459
      2 O           6.9517   -5.0152   23.2624 O.2     1  UNL1       -0.2730
      3 N           6.4054   -2.6809   24.2638 N.am    1  UNL1       -0.2781
      4 C           6.5259   -1.6855   25.3794 C.3     1  UNL1        0.0935
      5 C           5.8592   -0.3468   25.2652 C.3     1  UNL1        0.0219
      6 C           5.0720   -0.0034   24.0354 C.3     1  UNL1        0.0078
      7 C           4.9515   -0.9988   22.9198 C.3     1  UNL1        0.0419
      8 C           5.6182   -2.3376   23.0340 C.3     1  UNL1        0.0953
      9 C           4.1643   -0.6554   21.6900 C.ar    1  UNL1       -0.0209
     10 C           4.7539    0.2518   20.6511 C.ar    1  UNL1       -0.0042
     11 C           3.9667    0.5951   19.4213 C.ar    1  UNL1       -0.0003
     12 C           2.5899    0.0313   19.2304 C.ar    1  UNL1       -0.0000
     13 C           2.0003   -0.8759   20.2693 C.ar    1  UNL1       -0.0003
     14 C           2.7875   -1.2192   21.4991 C.ar    1  UNL1       -0.0042
     15 C           7.8594   -4.3632   25.6078 C.3     1  UNL1        0.1773
     16 N           7.3158   -5.3542   26.5938 N.pl3   1  UNL1       -0.2973
     17 C           7.1091   -4.9527   28.0243 C.ar    1  UNL1        0.0492
     18 C           7.2650   -5.9673   29.1180 C.ar    1  UNL1        0.0154
     19 C           7.0583   -5.5659   30.5484 C.ar    1  UNL1        0.0135
     20 C           6.6956   -4.1499   30.8851 C.ar    1  UNL1        0.0683
     21 CL          6.4888   -3.7484   32.3155 Cl      1  UNL1       -0.0814
     22 C           6.5396   -3.1353   29.7913 C.ar    1  UNL1        0.0694
     23 CL          6.1769   -1.7192   30.1280 Cl      1  UNL1       -0.0813
     24 C           6.7464   -3.5367   28.3609 C.ar    1  UNL1        0.0268
     25 C           6.9790   -6.7467   26.1495 C.3     1  UNL1        0.1234
     26 C           8.0395   -7.6181   25.5445 C.3     1  UNL1        0.1636
     27 C           8.4007   -9.1798   27.5891 C.3     1  UNL1        0.1742
     28 O           8.9576   -8.4069   26.4304 O.3     1  UNL1       -0.3493
     29 C           5.4978   -3.3331   21.9184 C.3     1  UNL1        0.0924
     30 N           5.9917   -2.9845   20.5456 N.3     1  UNL1       -0.2713
     31 C           5.2270   -3.1476   19.2656 C.3     1  UNL1        0.0722
     32 C           6.0997   -2.6755   18.1407 C.3     1  UNL1        0.0188
     33 C           7.4040   -2.2206   18.7255 C.3     1  UNL1        0.0188
     34 C           7.3372   -2.4115   20.2118 C.3     1  UNL1        0.0722
@<TRIPOS>BOND
     1    27    28    1
     2    28    26    1
     3    26    25    1
     4    25    16    1
     5    16    15    1
     6    15     1    1
     7     1     2    2
     8     1     3   am
     9     3     4    1
    10     4     5    1
    11     5     6    1
    12     6     7    1
    13     7     9    1
    14     9    10   ar
    15    10    11   ar
    16    11    12   ar
    17    12    13   ar
    18    13    14   ar
    19     7     8    1
    20     8    29    1
    21    29    30    1
    22    30    31    1
    23    31    32    1
    24    32    33    1
    25    33    34    1
    26    16    17    1
    27    17    18   ar
    28    18    19   ar
    29    19    20   ar
    30    20    21    1
    31    20    22   ar
    32    22    23    1
    33    22    24   ar
    34     8     3    1
    35    34    30    1
    36    24    17   ar
    37    14     9   ar
@<TRIPOS>MOLECULE
*****
 34 37 0 0 0
SMALL
GASTEIGER

@<TRIPOS>ATOM
      1 C           0.7466    3.0996   22.1197 C.2     1  UNL1        0.2459
      2 O           0.2151    4.2451   21.3103 O.2     1  UNL1       -0.2730
      3 N           0.1399    2.7783   23.4535 N.am    1  UNL1       -0.2781
      4 C           0.6713    1.6328   24.2628 C.3     1  UNL1        0.0935
      5 C           0.0646    1.3116   25.5965 C.3     1  UNL1        0.0219
      6 C          -1.0735    2.1361   26.1208 C.3     1  UNL1        0.0078
      7 C          -1.6050    3.2816   25.3115 C.3     1  UNL1        0.0419
      8 C          -0.9983    3.6028   23.9778 C.3     1  UNL1        0.0953
      9 C          -2.7431    4.1061   25.8358 C.ar    1  UNL1       -0.0209
     10 C          -2.4686    5.2936   26.7101 C.ar    1  UNL1       -0.0042
     11 C          -3.6068    6.1180   27.2344 C.ar    1  UNL1       -0.0003
     12 C          -5.0194    5.7550   26.8844 C.ar    1  UNL1       -0.0000
     13 C          -5.2939    4.5675   26.0100 C.ar    1  UNL1       -0.0003
     14 C          -4.1558    3.7431   25.4857 C.ar    1  UNL1       -0.0042
     15 C           1.8847    2.2751   21.5954 C.3     1  UNL1        0.1773
     16 N           1.6077    1.0400   20.7907 N.pl3   1  UNL1       -0.2973
     17 C           2.4146   -0.2031   21.0228 C.ar    1  UNL1        0.0492
     18 C           2.9974   -0.4768   22.3776 C.ar    1  UNL1        0.0154
     19 C           3.8042   -1.7198   22.6098 C.ar    1  UNL1        0.0135
     20 C           4.0283   -2.6891   21.4872 C.ar    1  UNL1        0.0683
     21 CL          4.8352   -3.9321   21.7194 Cl      1  UNL1       -0.0814
     22 C           3.4456   -2.4153   20.1324 C.ar    1  UNL1        0.0694
     23 CL          3.6697   -3.3847   19.0098 Cl      1  UNL1       -0.0813
     24 C           2.6387   -1.1724   19.9002 C.ar    1  UNL1        0.0268
     25 C           0.5239    1.0478   19.7537 C.3     1  UNL1        0.1234
     26 C           0.7802    1.6535   18.4055 C.3     1  UNL1        0.1636
     27 C           2.1122    3.8786   18.2480 C.3     1  UNL1        0.1742
     28 O           0.8039    3.1448   18.2456 O.3     1  UNL1       -0.3493
     29 C          -1.5297    4.7484   23.1683 C.3     1  UNL1        0.0924
     30 N          -2.8293    4.6078   22.4326 N.3     1  UNL1       -0.2713
     31 C          -3.2770    3.4053   21.6556 C.3     1  UNL1        0.0722
     32 C          -4.6338    3.6992   21.0876 C.3     1  UNL1        0.0188
     33 C          -5.0247    5.0833   21.5135 C.3     1  UNL1        0.0188
     34 C          -3.9095    5.6448   22.3448 C.3     1  UNL1        0.0722
@<TRIPOS>BOND
     1    27    28    1
     2    28    26    1
     3    26    25    1
     4    25    16    1
     5    16    15    1
     6    15     1    1
     7     1     2    2
     8     1     3   am
     9     3     4    1
    10     4     5    1
    11     5     6    1
    12     6     7    1
    13     7     9    1
    14     9    10   ar
    15    10    11   ar
    16    11    12   ar
    17    12    13   ar
    18    13    14   ar
    19     7     8    1
    20     8    29    1
    21    29    30    1
    22    30    31    1
    23    31    32    1
    24    32    33    1
    25    33    34    1
    26    16    17    1
    27    17    18   ar
    28    18    19   ar
    29    19    20   ar
    30    20    21    1
    31    20    22   ar
    32    22    23    1
    33    22    24   ar
    34     8     3    1
    35    34    30    1
    36    24    17   ar
    37    14     9   ar
@<TRIPOS>MOLECULE
*****
 34 37 0 0 0
SMALL
GASTEIGER

@<TRIPOS>ATOM
      1 C           6.2694   -1.3160   24.0604 C.2     1  UNL1        0.2459
      2 O           6.1082    0.1329   24.4134 O.2     1  UNL1       -0.2730
      3 N           5.5117   -1.8947   22.9023 N.am    1  UNL1       -0.2781
      4 C           5.6730   -3.3435   22.5493 C.3     1  UNL1        0.0935
      5 C           4.9153   -3.9221   21.3912 C.3     1  UNL1        0.0219
      6 C           3.9963   -3.0517   20.5862 C.3     1  UNL1        0.0078
      7 C           3.8351   -1.6029   20.9392 C.3     1  UNL1        0.0419
      8 C           4.5928   -1.0243   22.0973 C.3     1  UNL1        0.0953
      9 C           2.9161   -0.7325   20.1342 C.ar    1  UNL1       -0.0209
     10 C           1.4659   -0.6298   20.5033 C.ar    1  UNL1       -0.0042
     11 C           0.5470    0.2406   19.6982 C.ar    1  UNL1       -0.0003
     12 C           1.0783    1.0082   18.5242 C.ar    1  UNL1       -0.0000
     13 C           2.5285    0.9054   18.1551 C.ar    1  UNL1       -0.0003
     14 C           3.4474    0.0351   18.9601 C.ar    1  UNL1       -0.0042
     15 C           7.1884   -2.1864   24.8654 C.3     1  UNL1        0.1773
     16 N           6.6813   -2.8741   26.0982 N.pl3   1  UNL1       -0.2973
     17 C           7.0232   -4.3130   26.3487 C.ar    1  UNL1        0.0492
     18 C           6.9860   -4.8607   27.7447 C.ar    1  UNL1        0.0154
     19 C           7.3278   -6.2995   27.9952 C.ar    1  UNL1        0.0135
     20 C           7.7069   -7.1907   26.8498 C.ar    1  UNL1        0.0683
     21 CL          8.0488   -8.6296   27.1003 Cl      1  UNL1       -0.0814
     22 C           7.7441   -6.6431   25.4539 C.ar    1  UNL1        0.0694
     23 CL          8.1232   -7.5343   24.3084 Cl      1  UNL1       -0.0813
     24 C           7.4022   -5.2042   25.2033 C.ar    1  UNL1        0.0268
     25 C           5.8323   -2.1229   27.0806 C.3     1  UNL1        0.1234
     26 C           4.4052   -1.8027   26.7476 C.3     1  UNL1        0.1636
     27 C           2.6580   -0.4019   28.0648 C.3     1  UNL1        0.1742
     28 O           3.3857   -1.6946   27.8425 O.3     1  UNL1       -0.3493
     29 C           4.4316    0.4246   22.4504 C.3     1  UNL1        0.0924
     30 N           3.1520    0.9088   23.0654 N.3     1  UNL1       -0.2713
     31 C           2.3781    0.2185   24.1492 C.3     1  UNL1        0.0722
     32 C           1.1695    1.0514   24.4583 C.3     1  UNL1        0.0188
     33 C           1.1963    2.2564   23.5655 C.3     1  UNL1        0.0188
     34 C           2.4216    2.1683   22.7047 C.3     1  UNL1        0.0722
@<TRIPOS>BOND
     1    27    28    1
     2    28    26    1
     3    26    25    1
     4    25    16    1
     5    16    15    1
     6    15     1    1
     7     1     2    2
     8     1     3   am
     9     3     4    1
    10     4     5    1
    11     5     6    1
    12     6     7    1
    13     7     9    1
    14     9    10   ar
    15    10    11   ar
    16    11    12   ar
    17    12    13   ar
    18    13    14   ar
    19     7     8    1
    20     8    29    1
    21    29    30    1
    22    30    31    1
    23    31    32    1
    24    32    33    1
    25    33    34    1
    26    16    17    1
    27    17    18   ar
    28    18    19   ar
    29    19    20   ar
    30    20    21    1
    31    20    22   ar
    32    22    23    1
    33    22    24   ar
    34     8     3    1
    35    34    30    1
    36    24    17   ar
    37    14     9   ar
@<TRIPOS>MOLECULE
*****
 34 37 0 0 0
SMALL
GASTEIGER

@<TRIPOS>ATOM
      1 C           5.3837   -3.0356   23.3939 C.2     1  UNL1        0.2459
      2 O           5.2416   -1.8445   24.2944 O.2     1  UNL1       -0.2730
      3 N           4.7068   -3.0490   22.0553 N.am    1  UNL1       -0.2781
      4 C           4.8489   -4.2401   21.1548 C.3     1  UNL1        0.0935
      5 C           4.1720   -4.2534   19.8163 C.3     1  UNL1        0.0219
      6 C           3.3529   -3.0755   19.3784 C.3     1  UNL1        0.0078
      7 C           3.2107   -1.8844   20.2789 C.3     1  UNL1        0.0419
      8 C           3.8877   -1.8711   21.6174 C.3     1  UNL1        0.0953
      9 C           2.3916   -0.7066   19.8410 C.ar    1  UNL1       -0.0209
     10 C           2.9301    0.2393   18.8088 C.ar    1  UNL1       -0.0042
     11 C           2.1109    1.4171   18.3709 C.ar    1  UNL1       -0.0003
     12 C           0.7534    1.6491   18.9651 C.ar    1  UNL1       -0.0000
     13 C           0.2149    0.7032   19.9973 C.ar    1  UNL1       -0.0003
     14 C           1.0340   -0.4746   20.4352 C.ar    1  UNL1       -0.0042
     15 C           6.2028   -4.2134   23.8318 C.3     1  UNL1        0.1773
     16 N           7.3565   -4.0174   24.7701 N.pl3   1  UNL1       -0.2973
     17 C           7.2416   -4.4520   26.2012 C.ar    1  UNL1        0.0492
     18 C           6.5270   -3.5836   27.1937 C.ar    1  UNL1        0.0154
     19 C           6.4120   -4.0182   28.6247 C.ar    1  UNL1        0.0135
     20 C           7.0117   -5.3212   29.0633 C.ar    1  UNL1        0.0683
     21 CL          6.8967   -5.7559   30.4944 Cl      1  UNL1       -0.0814
     22 C           7.7263   -6.1897   28.0708 C.ar    1  UNL1        0.0694
     23 CL          8.3260   -7.4929   28.5094 Cl      1  UNL1       -0.0813
     24 C           7.8413   -5.7551   26.6397 C.ar    1  UNL1        0.0268
     25 C           8.6252   -3.3867   24.2775 C.3     1  UNL1        0.1234
     26 C           9.5346   -4.1490   23.3598 C.3     1  UNL1        0.1636
     27 C           8.6025   -4.8249   21.0308 C.3     1  UNL1        0.1742
     28 O           9.4589   -3.9309   21.8777 O.3     1  UNL1       -0.3493
     29 C           3.7455   -0.6800   22.5180 C.3     1  UNL1        0.0924
     30 N           4.2384    0.6634   22.0682 N.3     1  UNL1       -0.2713
     31 C           5.5974    0.9615   21.5075 C.3     1  UNL1        0.0722
     32 C           5.6578    2.4269   21.1928 C.3     1  UNL1        0.0188
     33 C           4.3361    3.0345   21.5591 C.3     1  UNL1        0.0188
     34 C           3.4590    1.9446   22.1000 C.3     1  UNL1        0.0722
@<TRIPOS>BOND
     1    27    28    1
     2    28    26    1
     3    26    25    1
     4    25    16    1
     5    16    15    1
     6    15     1    1
     7     1     2    2
     8     1     3   am
     9     3     4    1
    10     4     5    1
    11     5     6    1
    12     6     7    1
    13     7     9    1
    14     9    10   ar
    15    10    11   ar
    16    11    12   ar
    17    12    13   ar
    18    13    14   ar
    19     7     8    1
    20     8    29    1
    21    29    30    1
    22    30    31    1
    23    31    32    1
    24    32    33    1
    25    33    34    1
    26    16    17    1
    27    17    18   ar
    28    18    19   ar
    29    19    20   ar
    30    20    21    1
    31    20    22   ar
    32    22    23    1
    33    22    24   ar
    34     8     3    1
    35    34    30    1
    36    24    17   ar
    37    14     9   ar
@<TRIPOS>MOLECULE
*****
 34 37 0 0 0
SMALL
GASTEIGER

@<TRIPOS>ATOM
      1 C           1.7722    2.6413   22.9033 C.2     1  UNL1        0.2459
      2 O           3.0150    2.8853   23.7068 O.2     1  UNL1       -0.2730
      3 N           1.6879    1.4503   21.9953 N.am    1  UNL1       -0.2781
      4 C           0.4451    1.2062   21.1917 C.3     1  UNL1        0.0935
      5 C           0.3608    0.0152   20.2838 C.3     1  UNL1        0.0219
      6 C           1.5195   -0.9317   20.1794 C.3     1  UNL1        0.0078
      7 C           2.7623   -0.6877   20.9830 C.3     1  UNL1        0.0419
      8 C           2.8465    0.5033   21.8909 C.3     1  UNL1        0.0953
      9 C           3.9209   -1.6346   20.8786 C.ar    1  UNL1       -0.0209
     10 C           4.0682   -2.7516   21.8689 C.ar    1  UNL1       -0.0042
     11 C           5.2268   -3.6985   21.7645 C.ar    1  UNL1       -0.0003
     12 C           6.2381   -3.5285   20.6698 C.ar    1  UNL1       -0.0000
     13 C           6.0908   -2.4116   19.6795 C.ar    1  UNL1       -0.0003
     14 C           4.9322   -1.4647   19.7839 C.ar    1  UNL1       -0.0042
     15 C           0.6135    3.5882   23.0077 C.3     1  UNL1        0.1773
     16 N          -0.4966    3.3111   23.9775 N.pl3   1  UNL1       -0.2973
     17 C          -1.9248    3.4794   23.5508 C.ar    1  UNL1        0.0492
     18 C          -2.2714    3.5249   22.0921 C.ar    1  UNL1        0.0154
     19 C          -3.6995    3.6932   21.6654 C.ar    1  UNL1        0.0135
     20 C          -4.7810    3.8160   22.6974 C.ar    1  UNL1        0.0683
     21 CL         -6.2092    3.9843   22.2707 Cl      1  UNL1       -0.0814
     22 C          -4.4345    3.7705   24.1561 C.ar    1  UNL1        0.0694
     23 CL         -5.5162    3.8933   25.1881 Cl      1  UNL1       -0.0813
     24 C          -3.0064    3.6022   24.5828 C.ar    1  UNL1        0.0268
     25 C          -0.1787    2.8656   25.3741 C.3     1  UNL1        0.1234
     26 C          -0.2376    1.4092   25.7285 C.3     1  UNL1        0.1636
     27 C           0.8022    0.7492   28.0161 C.3     1  UNL1        0.1742
     28 O          -0.4050    0.9917   27.1595 O.3     1  UNL1       -0.3493
     29 C           4.0894    0.7474   22.6945 C.3     1  UNL1        0.0924
     30 N           4.3308   -0.0270   23.9563 N.3     1  UNL1       -0.2713
     31 C           5.6639   -0.4882   24.4663 C.3     1  UNL1        0.0722
     32 C           5.4386   -1.2224   25.7548 C.3     1  UNL1        0.0188
     33 C           3.9661   -1.2151   26.0410 C.3     1  UNL1        0.0188
     34 C           3.2815   -0.4763   24.9295 C.3     1  UNL1        0.0722
@<TRIPOS>BOND
     1    27    28    1
     2    28    26    1
     3    26    25    1
     4    25    16    1
     5    16    15    1
     6    15     1    1
     7     1     2    2
     8     1     3   am
     9     3     4    1
    10     4     5    1
    11     5     6    1
    12     6     7    1
    13     7     9    1
    14     9    10   ar
    15    10    11   ar
    16    11    12   ar
    17    12    13   ar
    18    13    14   ar
    19     7     8    1
    20     8    29    1
    21    29    30    1
    22    30    31    1
    23    31    32    1
    24    32    33    1
    25    33    34    1
    26    16    17    1
    27    17    18   ar
    28    18    19   ar
    29    19    20   ar
    30    20    21    1
    31    20    22   ar
    32    22    23    1
    33    22    24   ar
    34     8     3    1
    35    34    30    1
    36    24    17   ar
    37    14     9   ar
