@<TRIPOS>MOLECULE
*****
 33 35 0 0 0
SMALL
GASTEIGER

@<TRIPOS>ATOM
      1 C          -6.5097  -18.8972   20.3437 C.ar    1  UNL1        0.0740
      2 C          -7.2824  -19.6317   19.2885 C.ar    1  UNL1        0.1097
      3 N          -8.7821  -19.6132   19.3076 N.ar    1  UNL1       -0.2283
      4 C          -9.5093  -18.8602   20.3819 C.ar    1  UNL1        0.1345
      5 C          -8.7366  -18.1257   21.4372 C.ar    1  UNL1        0.0494
      6 C          -7.2369  -18.1442   21.4180 C.ar    1  UNL1        0.0567
      7 C          -3.5102  -18.9342   20.3054 C.1     1  UNL1       -0.0610
      8 C          -5.0100  -18.9157   20.3246 C.1     1  UNL1       -0.0593
      9 C          -2.0023  -19.6621   21.6079 C.3     1  UNL1        0.0429
     10 C          -2.0104  -18.9526   20.2863 C.3     1  UNL1        0.1418
     11 C          -2.0185  -18.2432   18.9647 C.3     1  UNL1        0.0429
     12 O          -0.5107  -18.9711   20.2672 O.3     1  UNL1       -0.3753
     13 H          -0.1865  -19.5962   20.9343 H       1  UNL1        0.2114
     14 N         -11.0090  -18.8417   20.4011 N.pl3   1  UNL1       -0.2821
     15 H         -11.5126  -18.8839   19.5562 H       1  UNL1        0.1551
     16 C         -11.7415  -18.7590   21.7074 C.ar    1  UNL1        0.1527
     17 C         -12.9672  -17.9025   21.8271 C.ar    1  UNL1        0.1340
     18 N         -13.6996  -17.8198   23.1335 N.ar    1  UNL1       -0.2290
     19 C         -13.2064  -18.5933   24.3202 C.ar    1  UNL1        0.1683
     20 C         -11.9808  -19.4497   24.2006 C.ar    1  UNL1        0.1299
     21 N         -11.2482  -19.5325   22.8941 N.ar    1  UNL1       -0.2251
     22 C         -13.9389  -18.5105   25.6266 C.1     1  UNL1        0.1214
     23 N         -14.6714  -18.4277   26.9330 N.1     1  UNL1       -0.1892
     24 N          -6.4642  -17.4097   22.4733 N.pl3   1  UNL1       -0.3301
     25 H          -5.6250  -17.7882   22.8221 H       1  UNL1        0.1469
     26 C          -6.9703  -16.0984   22.9972 C.3     1  UNL1        0.1185
     27 C          -7.0730  -15.8710   24.4764 C.3     1  UNL1        0.1503
     28 C          -5.9848  -15.1339   25.1992 C.3     1  UNL1        0.1003
     29 N          -6.0874  -14.9065   26.6782 N.3     1  UNL1       -0.2933
     30 C          -7.2783  -15.4162   27.4345 C.3     1  UNL1        0.1011
     31 C          -8.3664  -16.1534   26.7117 C.3     1  UNL1        0.1592
     32 O          -8.2638  -16.3808   25.2326 O.3     1  UNL1       -0.3516
     33 H          -6.0560  -13.8974   26.8239 H       1  UNL1        0.1234
@<TRIPOS>BOND
     1     9    10    1
     2    10    11    1
     3    10    12    1
     4    10     7    1
     5     7     8    3
     6     8     1    1
     7     1     2   ar
     8     2     3   ar
     9     3     4   ar
    10     4    14    1
    11    14    16    1
    12    16    17   ar
    13    17    18   ar
    14    18    19   ar
    15    19    22    1
    16    22    23    3
    17    19    20   ar
    18    20    21   ar
    19     4     5   ar
    20     5     6   ar
    21     6    24    1
    22    24    26    1
    23    27    26    1
    24    27    28    1
    25    28    29    1
    26    29    30    1
    27    30    31    1
    28    31    32    1
    29     6     1   ar
    30    32    27    1
    31    21    16   ar
    32    12    13    1
    33    14    15    1
    34    24    25    1
    35    29    33    1
@<TRIPOS>MOLECULE
*****
 33 35 0 0 0
SMALL
GASTEIGER

@<TRIPOS>ATOM
      1 C           1.8596   -0.3763   19.8573 C.ar    1  UNL1        0.0740
      2 C           0.7315   -0.3085   20.8435 C.ar    1  UNL1        0.1097
      3 N          -0.2293    0.8428   20.8060 N.ar    1  UNL1       -0.2283
      4 C          -0.0619    1.9263   19.7823 C.ar    1  UNL1        0.1345
      5 C           1.0663    1.8585   18.7961 C.ar    1  UNL1        0.0494
      6 C           2.0270    0.7071   18.8336 C.ar    1  UNL1        0.0567
      7 C           3.7811   -2.6790   19.9324 C.1     1  UNL1       -0.0610
      8 C           2.8204   -1.5277   19.8949 C.1     1  UNL1       -0.0593
      9 C           5.1686   -3.4292   21.3509 C.3     1  UNL1        0.0429
     10 C           4.7419   -3.8303   19.9699 C.3     1  UNL1        0.1418
     11 C           4.3152   -4.2314   18.5889 C.3     1  UNL1        0.0429
     12 O           5.7027   -4.9816   20.0074 O.3     1  UNL1       -0.3753
     13 H           5.9977   -5.1270   20.9200 H       1  UNL1        0.2114
     14 N          -1.0226    3.0776   19.7448 N.pl3   1  UNL1       -0.2821
     15 H          -1.0189    3.6971   18.9796 H       1  UNL1        0.1551
     16 C          -1.9891    3.2851   20.8730 C.ar    1  UNL1        0.1527
     17 C          -1.5078    3.8422   22.1799 C.ar    1  UNL1        0.1340
     18 N          -2.4742    4.0497   23.3082 N.ar    1  UNL1       -0.2290
     19 C          -3.9219    3.7000   23.1296 C.ar    1  UNL1        0.1683
     20 C          -4.4032    3.1429   21.8227 C.ar    1  UNL1        0.1299
     21 N          -3.4367    2.9354   20.6944 N.ar    1  UNL1       -0.2251
     22 C          -4.8883    3.9075   24.2579 C.1     1  UNL1        0.1214
     23 N          -5.8547    4.1149   25.3862 N.1     1  UNL1       -0.1892
     24 N           3.1553    0.6393   17.8474 N.pl3   1  UNL1       -0.3301
     25 H           2.9948    0.2961   16.9387 H       1  UNL1        0.1469
     26 C           4.5279    1.0945   18.2456 C.3     1  UNL1        0.1185
     27 C           5.6198    0.0879   18.4574 C.3     1  UNL1        0.1503
     28 C           5.9088   -0.9383   17.4023 C.3     1  UNL1        0.1003
     29 N           7.0006   -1.9448   17.6140 N.3     1  UNL1       -0.2933
     30 C           7.8034   -1.9251   18.8809 C.3     1  UNL1        0.1011
     31 C           7.5144   -0.8988   19.9361 C.3     1  UNL1        0.1592
     32 O           6.4226    0.1077   19.7243 O.3     1  UNL1       -0.3516
     33 H           7.6608   -1.8292   16.8452 H       1  UNL1        0.1234
@<TRIPOS>BOND
     1     9    10    1
     2    10    11    1
     3    10    12    1
     4    10     7    1
     5     7     8    3
     6     8     1    1
     7     1     2   ar
     8     2     3   ar
     9     3     4   ar
    10     4    14    1
    11    14    16    1
    12    16    17   ar
    13    17    18   ar
    14    18    19   ar
    15    19    22    1
    16    22    23    3
    17    19    20   ar
    18    20    21   ar
    19     4     5   ar
    20     5     6   ar
    21     6    24    1
    22    24    26    1
    23    27    26    1
    24    27    28    1
    25    28    29    1
    26    29    30    1
    27    30    31    1
    28    31    32    1
    29     6     1   ar
    30    32    27    1
    31    21    16   ar
    32    12    13    1
    33    14    15    1
    34    24    25    1
    35    29    33    1
@<TRIPOS>MOLECULE
*****
 33 35 0 0 0
SMALL
GASTEIGER

@<TRIPOS>ATOM
      1 C           2.4547   -0.7267   21.5826 C.ar    1  UNL1        0.0740
      2 C           2.9604   -0.4746   22.9720 C.ar    1  UNL1        0.1097
      3 N           2.3369    0.5990   23.8138 N.ar    1  UNL1       -0.2283
      4 C           1.2077    1.4206   23.2662 C.ar    1  UNL1        0.1345
      5 C           0.7021    1.1685   21.8767 C.ar    1  UNL1        0.0494
      6 C           1.3255    0.0949   21.0349 C.ar    1  UNL1        0.0567
      7 C           3.7016   -2.8739   19.8989 C.1     1  UNL1       -0.0610
      8 C           3.0781   -1.8003   20.7407 C.1     1  UNL1       -0.0593
      9 C           5.6015   -3.1617   19.0003 C.3     1  UNL1        0.0429
     10 C           4.3251   -3.9475   19.0571 C.3     1  UNL1        0.1418
     11 C           3.0487   -4.7334   19.1140 C.3     1  UNL1        0.0429
     12 O           4.9485   -5.0211   18.2153 O.3     1  UNL1       -0.3753
     13 H           5.9100   -4.8949   18.1903 H       1  UNL1        0.2114
     14 N           0.5843    2.4942   24.1080 N.pl3   1  UNL1       -0.2821
     15 H           0.1958    3.2914   23.6805 H       1  UNL1        0.1551
     16 C           0.5528    2.3531   25.6009 C.ar    1  UNL1        0.1527
     17 C           1.4995    3.1491   26.4497 C.ar    1  UNL1        0.1340
     18 N           1.4679    3.0080   27.9427 N.ar    1  UNL1       -0.2290
     19 C           0.4898    2.0710   28.5870 C.ar    1  UNL1        0.1683
     20 C          -0.4569    1.2751   27.7384 C.ar    1  UNL1        0.1299
     21 N          -0.4254    1.4161   26.2453 N.ar    1  UNL1       -0.2251
     22 C           0.4583    1.9300   30.0801 C.1     1  UNL1        0.1214
     23 N           0.4268    1.7889   31.5731 N.1     1  UNL1       -0.1892
     24 N           0.8198   -0.1571   19.6453 N.pl3   1  UNL1       -0.3301
     25 H           0.1717   -0.8797   19.4809 H       1  UNL1        0.1469
     26 C           1.3016    0.6918   18.5064 C.3     1  UNL1        0.1185
     27 C           2.7362    0.6223   18.0736 C.3     1  UNL1        0.1503
     28 C           3.2088   -0.5201   17.2241 C.3     1  UNL1        0.1003
     29 N           4.6433   -0.5897   16.7914 N.3     1  UNL1       -0.2933
     30 C           5.6052    0.4832   17.2082 C.3     1  UNL1        0.1011
     31 C           5.1326    1.6255   18.0576 C.3     1  UNL1        0.1592
     32 O           3.6981    1.6951   18.4904 O.3     1  UNL1       -0.3516
     33 H           4.6428   -0.6047   15.7715 H       1  UNL1        0.1234
@<TRIPOS>BOND
     1     9    10    1
     2    10    11    1
     3    10    12    1
     4    10     7    1
     5     7     8    3
     6     8     1    1
     7     1     2   ar
     8     2     3   ar
     9     3     4   ar
    10     4    14    1
    11    14    16    1
    12    16    17   ar
    13    17    18   ar
    14    18    19   ar
    15    19    22    1
    16    22    23    3
    17    19    20   ar
    18    20    21   ar
    19     4     5   ar
    20     5     6   ar
    21     6    24    1
    22    24    26    1
    23    27    26    1
    24    27    28    1
    25    28    29    1
    26    29    30    1
    27    30    31    1
    28    31    32    1
    29     6     1   ar
    30    32    27    1
    31    21    16   ar
    32    12    13    1
    33    14    15    1
    34    24    25    1
    35    29    33    1
@<TRIPOS>MOLECULE
*****
 33 35 0 0 0
SMALL
GASTEIGER

@<TRIPOS>ATOM
      1 C           2.0044   -0.5433   20.0466 C.ar    1  UNL1        0.0740
      2 C           1.2880    0.1906   18.9520 C.ar    1  UNL1        0.1097
      3 N           0.5182    1.4393   19.2653 N.ar    1  UNL1       -0.2283
      4 C           0.4649    1.9542   20.6732 C.ar    1  UNL1        0.1345
      5 C           1.1813    1.2202   21.7677 C.ar    1  UNL1        0.0494
      6 C           1.9511   -0.0285   21.4544 C.ar    1  UNL1        0.0567
      7 C           3.5440   -3.0407   19.4200 C.1     1  UNL1       -0.0610
      8 C           2.7742   -1.7920   19.7333 C.1     1  UNL1       -0.0593
      9 C           5.3537   -3.4711   18.4003 C.3     1  UNL1        0.0429
     10 C           4.3137   -4.2894   19.1067 C.3     1  UNL1        0.1418
     11 C           3.2738   -5.1077   19.8130 C.3     1  UNL1        0.0429
     12 O           5.0835   -5.5381   18.7934 O.3     1  UNL1       -0.3753
     13 H           5.9794   -5.3022   18.5060 H       1  UNL1        0.2114
     14 N          -0.3049    3.2029   20.9865 N.pl3   1  UNL1       -0.2821
     15 H           0.1121    3.9173   21.5203 H       1  UNL1        0.1551
     16 C          -1.7100    3.3631   20.4865 C.ar    1  UNL1        0.1527
     17 C          -1.9587    3.8928   19.1053 C.ar    1  UNL1        0.1340
     18 N          -3.3638    4.0530   18.6053 N.ar    1  UNL1       -0.2290
     19 C          -4.5202    3.6836   19.4864 C.ar    1  UNL1        0.1683
     20 C          -4.2714    3.1539   20.8675 C.ar    1  UNL1        0.1299
     21 N          -2.8663    2.9936   21.3676 N.ar    1  UNL1       -0.2251
     22 C          -5.9253    3.8438   18.9863 C.1     1  UNL1        0.1214
     23 N          -7.3304    4.0040   18.4863 N.1     1  UNL1       -0.1892
     24 N           2.6675   -0.7624   22.5491 N.pl3   1  UNL1       -0.3301
     25 H           2.1720   -1.3806   23.1335 H       1  UNL1        0.1469
     26 C           4.1389   -0.5544   22.7533 C.3     1  UNL1        0.1185
     27 C           5.1046   -1.6542   22.4246 C.3     1  UNL1        0.1503
     28 C           4.7899   -3.0689   22.8110 C.3     1  UNL1        0.1003
     29 N           5.7555   -4.1687   22.4824 N.3     1  UNL1       -0.2933
     30 C           7.0359   -3.8537   21.7673 C.3     1  UNL1        0.1011
     31 C           7.3506   -2.4389   21.3808 C.3     1  UNL1        0.1592
     32 O           6.3849   -1.3391   21.7095 O.3     1  UNL1       -0.3516
     33 H           5.2516   -4.8394   21.9022 H       1  UNL1        0.1234
@<TRIPOS>BOND
     1     9    10    1
     2    10    11    1
     3    10    12    1
     4    10     7    1
     5     7     8    3
     6     8     1    1
     7     1     2   ar
     8     2     3   ar
     9     3     4   ar
    10     4    14    1
    11    14    16    1
    12    16    17   ar
    13    17    18   ar
    14    18    19   ar
    15    19    22    1
    16    22    23    3
    17    19    20   ar
    18    20    21   ar
    19     4     5   ar
    20     5     6   ar
    21     6    24    1
    22    24    26    1
    23    27    26    1
    24    27    28    1
    25    28    29    1
    26    29    30    1
    27    30    31    1
    28    31    32    1
    29     6     1   ar
    30    32    27    1
    31    21    16   ar
    32    12    13    1
    33    14    15    1
    34    24    25    1
    35    29    33    1
@<TRIPOS>MOLECULE
*****
 33 35 0 0 0
SMALL
GASTEIGER

@<TRIPOS>ATOM
      1 C           1.9715   -0.4101   20.3553 C.ar    1  UNL1        0.0740
      2 C           1.1805    0.2386   19.2583 C.ar    1  UNL1        0.1097
      3 N           0.3680    1.4665   19.5448 N.ar    1  UNL1       -0.2283
      4 C           0.3464    2.0457   20.9283 C.ar    1  UNL1        0.1345
      5 C           1.1374    1.3969   22.0253 C.ar    1  UNL1        0.0494
      6 C           1.9499    0.1690   21.7388 C.ar    1  UNL1        0.0567
      7 C           3.5965   -2.8659   19.7823 C.1     1  UNL1       -0.0610
      8 C           2.7840   -1.6380   20.0688 C.1     1  UNL1       -0.0593
      9 C           5.6616   -3.2686   19.5115 C.3     1  UNL1        0.0429
     10 C           4.4090   -4.0938   19.4958 C.3     1  UNL1        0.1418
     11 C           3.1565   -4.9190   19.4801 C.3     1  UNL1        0.0429
     12 O           5.2216   -5.3217   19.2093 O.3     1  UNL1       -0.3753
     13 H           6.1580   -5.1374   19.3824 H       1  UNL1        0.2114
     14 N          -0.4661    3.2736   21.2148 N.pl3   1  UNL1       -0.2821
     15 H          -0.0866    3.9982   21.7626 H       1  UNL1        0.1551
     16 C          -1.8568    3.3974   20.6667 C.ar    1  UNL1        0.1527
     17 C          -2.0701    3.8950   19.2677 C.ar    1  UNL1        0.1340
     18 N          -3.4609    4.0188   18.7196 N.ar    1  UNL1       -0.2290
     19 C          -4.6384    3.6450   19.5703 C.ar    1  UNL1        0.1683
     20 C          -4.4251    3.1475   20.9692 C.ar    1  UNL1        0.1299
     21 N          -3.0343    3.0236   21.5174 N.ar    1  UNL1       -0.2251
     22 C          -6.0292    3.7689   19.0221 C.1     1  UNL1        0.1214
     23 N          -7.4199    3.8927   18.4740 N.1     1  UNL1       -0.1892
     24 N           2.7409   -0.4797   22.8359 N.pl3   1  UNL1       -0.3301
     25 H           2.8804   -1.4543   22.8321 H       1  UNL1        0.1469
     26 C           3.3195    0.3564   23.9386 C.3     1  UNL1        0.1185
     27 C           3.0988   -0.0335   25.3702 C.3     1  UNL1        0.1503
     28 C           3.6987   -1.3008   25.9034 C.3     1  UNL1        0.1003
     29 N           3.4781   -1.6907   27.3348 N.3     1  UNL1       -0.2933
     30 C           2.6576   -0.8134   28.2332 C.3     1  UNL1        0.1011
     31 C           2.0577    0.4538   27.7001 C.3     1  UNL1        0.1592
     32 O           2.2783    0.8437   26.2686 O.3     1  UNL1       -0.3516
     33 H           4.4001   -1.7709   27.7636 H       1  UNL1        0.1234
@<TRIPOS>BOND
     1     9    10    1
     2    10    11    1
     3    10    12    1
     4    10     7    1
     5     7     8    3
     6     8     1    1
     7     1     2   ar
     8     2     3   ar
     9     3     4   ar
    10     4    14    1
    11    14    16    1
    12    16    17   ar
    13    17    18   ar
    14    18    19   ar
    15    19    22    1
    16    22    23    3
    17    19    20   ar
    18    20    21   ar
    19     4     5   ar
    20     5     6   ar
    21     6    24    1
    22    24    26    1
    23    27    26    1
    24    27    28    1
    25    28    29    1
    26    29    30    1
    27    30    31    1
    28    31    32    1
    29     6     1   ar
    30    32    27    1
    31    21    16   ar
    32    12    13    1
    33    14    15    1
    34    24    25    1
    35    29    33    1
@<TRIPOS>MOLECULE
*****
 33 35 0 0 0
SMALL
GASTEIGER

@<TRIPOS>ATOM
      1 C           7.3962   -5.3627   28.0885 C.ar    1  UNL1        0.0740
      2 C           7.8890   -6.2804   29.1678 C.ar    1  UNL1        0.1097
      3 N           7.6120   -5.9621   30.6073 N.ar    1  UNL1       -0.2283
      4 C           6.8423   -4.7261   30.9674 C.ar    1  UNL1        0.1345
      5 C           6.3495   -3.8084   29.8881 C.ar    1  UNL1        0.0494
      6 C           6.6265   -4.1267   28.4487 C.ar    1  UNL1        0.0567
      7 C           7.9502   -5.9994   25.2097 C.1     1  UNL1       -0.0610
      8 C           7.6732   -5.6811   26.6491 C.1     1  UNL1       -0.0593
      9 C           7.6039   -5.0157   23.3624 C.3     1  UNL1        0.0429
     10 C           8.2272   -6.3177   23.7702 C.3     1  UNL1        0.1418
     11 C           8.8505   -7.6196   24.1781 C.3     1  UNL1        0.0429
     12 O           8.5041   -6.6360   22.3308 O.3     1  UNL1       -0.3753
     13 H           8.4007   -5.8331   21.7964 H       1  UNL1        0.2114
     14 N           6.5653   -4.4078   32.4068 N.pl3   1  UNL1       -0.2821
     15 H           6.7709   -5.0700   33.1058 H       1  UNL1        0.1551
     16 C           5.9752   -3.0807   32.7814 C.ar    1  UNL1        0.1527
     17 C           4.5241   -2.9819   33.1487 C.ar    1  UNL1        0.1340
     18 N           3.9340   -1.6547   33.5232 N.ar    1  UNL1       -0.2290
     19 C           4.7948   -0.4263   33.5304 C.ar    1  UNL1        0.1683
     20 C           6.2457   -0.5251   33.1631 C.ar    1  UNL1        0.1299
     21 N           6.8359   -1.8523   32.7886 N.ar    1  UNL1       -0.2251
     22 C           4.2045    0.9009   33.9050 C.1     1  UNL1        0.1214
     23 N           3.6143    2.2280   34.2795 N.1     1  UNL1       -0.1892
     24 N           6.1337   -3.2090   27.3693 N.pl3   1  UNL1       -0.3301
     25 H           5.9627   -3.5594   26.4653 H       1  UNL1        0.1469
     26 C           5.9014   -1.7574   27.6674 C.3     1  UNL1        0.1185
     27 C           4.5885   -1.3097   28.2385 C.3     1  UNL1        0.1503
     28 C           3.3630   -1.2876   27.3738 C.3     1  UNL1        0.1003
     29 N           2.0502   -0.8400   27.9449 N.3     1  UNL1       -0.2933
     30 C           1.9629   -0.4145   29.3805 C.3     1  UNL1        0.1011
     31 C           3.1884   -0.4365   30.2452 C.3     1  UNL1        0.1592
     32 O           4.5012   -0.8842   29.6742 O.3     1  UNL1       -0.3516
     33 H           1.3982   -1.6156   27.8275 H       1  UNL1        0.1234
@<TRIPOS>BOND
     1     9    10    1
     2    10    11    1
     3    10    12    1
     4    10     7    1
     5     7     8    3
     6     8     1    1
     7     1     2   ar
     8     2     3   ar
     9     3     4   ar
    10     4    14    1
    11    14    16    1
    12    16    17   ar
    13    17    18   ar
    14    18    19   ar
    15    19    22    1
    16    22    23    3
    17    19    20   ar
    18    20    21   ar
    19     4     5   ar
    20     5     6   ar
    21     6    24    1
    22    24    26    1
    23    27    26    1
    24    27    28    1
    25    28    29    1
    26    29    30    1
    27    30    31    1
    28    31    32    1
    29     6     1   ar
    30    32    27    1
    31    21    16   ar
    32    12    13    1
    33    14    15    1
    34    24    25    1
    35    29    33    1
@<TRIPOS>MOLECULE
*****
 33 35 0 0 0
SMALL
GASTEIGER

@<TRIPOS>ATOM
      1 C           3.3651   -0.8835   23.4412 C.ar    1  UNL1        0.0740
      2 C           2.4751    0.3224   23.5011 C.ar    1  UNL1        0.1097
      3 N           2.2669    1.0370   24.8034 N.ar    1  UNL1       -0.2283
      4 C           2.9486    0.5457   26.0459 C.ar    1  UNL1        0.1345
      5 C           3.8387   -0.6602   25.9860 C.ar    1  UNL1        0.0494
      6 C           4.0469   -1.3748   24.6837 C.ar    1  UNL1        0.0567
      7 C           3.7816   -2.3126   20.8366 C.1     1  UNL1       -0.0610
      8 C           3.5734   -1.5980   22.1389 C.1     1  UNL1       -0.0593
      9 C           4.1227   -4.3280   20.2693 C.3     1  UNL1        0.0429
     10 C           3.9898   -3.0272   19.5343 C.3     1  UNL1        0.1418
     11 C           3.8570   -1.7264   18.7993 C.3     1  UNL1        0.0429
     12 O           4.1981   -3.7418   18.2320 O.3     1  UNL1       -0.3753
     13 H           4.0947   -4.6968   18.3671 H       1  UNL1        0.2114
     14 N           2.7404    1.2603   27.3482 N.pl3   1  UNL1       -0.2821
     15 H           2.4213    2.1916   27.3531 H       1  UNL1        0.1551
     16 C           3.0184    0.5559   28.6430 C.ar    1  UNL1        0.1527
     17 C           1.8994   -0.1038   29.3932 C.ar    1  UNL1        0.1340
     18 N           2.1774   -0.8082   30.6880 N.ar    1  UNL1       -0.2290
     19 C           3.5743   -0.8529   31.2326 C.ar    1  UNL1        0.1683
     20 C           4.6933   -0.1933   30.4824 C.ar    1  UNL1        0.1299
     21 N           4.4153    0.5112   29.1876 N.ar    1  UNL1       -0.2251
     22 C           3.8523   -1.5573   32.5275 C.1     1  UNL1        0.1214
     23 N           4.1302   -2.2618   33.8223 N.1     1  UNL1       -0.1892
     24 N           4.9370   -2.5808   24.6239 N.pl3   1  UNL1       -0.3301
     25 H           4.6539   -3.3769   24.1186 H       1  UNL1        0.1469
     26 C           6.2582   -2.5737   25.3340 C.3     1  UNL1        0.1185
     27 C           6.4319   -3.3546   26.6029 C.3     1  UNL1        0.1503
     28 C           6.3322   -2.6617   27.9295 C.3     1  UNL1        0.1003
     29 N           6.5059   -3.4424   29.1984 N.3     1  UNL1       -0.2933
     30 C           6.7792   -4.9162   29.1407 C.3     1  UNL1        0.1011
     31 C           6.8789   -5.6091   27.8141 C.3     1  UNL1        0.1592
     32 O           6.7053   -4.8283   26.5452 O.3     1  UNL1       -0.3516
     33 H           5.6482   -3.3229   29.7374 H       1  UNL1        0.1234
@<TRIPOS>BOND
     1     9    10    1
     2    10    11    1
     3    10    12    1
     4    10     7    1
     5     7     8    3
     6     8     1    1
     7     1     2   ar
     8     2     3   ar
     9     3     4   ar
    10     4    14    1
    11    14    16    1
    12    16    17   ar
    13    17    18   ar
    14    18    19   ar
    15    19    22    1
    16    22    23    3
    17    19    20   ar
    18    20    21   ar
    19     4     5   ar
    20     5     6   ar
    21     6    24    1
    22    24    26    1
    23    27    26    1
    24    27    28    1
    25    28    29    1
    26    29    30    1
    27    30    31    1
    28    31    32    1
    29     6     1   ar
    30    32    27    1
    31    21    16   ar
    32    12    13    1
    33    14    15    1
    34    24    25    1
    35    29    33    1
@<TRIPOS>MOLECULE
*****
 33 35 0 0 0
SMALL
GASTEIGER

@<TRIPOS>ATOM
      1 C           4.9340    0.3598   36.1412 C.ar    1  UNL1        0.0740
      2 C           6.2989   -0.0745   36.5868 C.ar    1  UNL1        0.1097
      3 N           7.3269   -0.4761   35.5710 N.ar    1  UNL1       -0.2283
      4 C           6.9902   -0.4435   34.1097 C.ar    1  UNL1        0.1345
      5 C           5.6254   -0.0092   33.6641 C.ar    1  UNL1        0.0494
      6 C           4.5973    0.3925   34.6799 C.ar    1  UNL1        0.0567
      7 C           2.8779    1.1631   38.1727 C.1     1  UNL1       -0.0610
      8 C           3.9060    0.7615   37.1569 C.1     1  UNL1       -0.0593
      9 C           2.3301    2.9838   39.1135 C.3     1  UNL1        0.0429
     10 C           1.8498    1.5648   39.1884 C.3     1  UNL1        0.1418
     11 C           1.3695    0.1457   39.2634 C.3     1  UNL1        0.0429
     12 O           0.8217    1.9664   40.2042 O.3     1  UNL1       -0.3753
     13 H           0.7333    2.9324   40.2102 H       1  UNL1        0.2114
     14 N           8.0183   -0.8451   33.0940 N.pl3   1  UNL1       -0.2821
     15 H           8.9303   -0.4778   33.1449 H       1  UNL1        0.1551
     16 C           7.6568   -1.8064   32.0007 C.ar    1  UNL1        0.1527
     17 C           7.6370   -1.3458   30.5732 C.ar    1  UNL1        0.1340
     18 N           7.2756   -2.3071   29.4800 N.ar    1  UNL1       -0.2290
     19 C           6.9340   -3.7290   29.8141 C.ar    1  UNL1        0.1683
     20 C           6.9538   -4.1895   31.2414 C.ar    1  UNL1        0.1299
     21 N           7.3152   -3.2283   32.3348 N.ar    1  UNL1       -0.2251
     22 C           6.5725   -4.6902   28.7207 C.1     1  UNL1        0.1214
     23 N           6.2111   -5.6515   27.6274 N.1     1  UNL1       -0.1892
     24 N           3.2324    0.8268   34.2342 N.pl3   1  UNL1       -0.3301
     25 H           2.4371    0.5525   34.7457 H       1  UNL1        0.1469
     26 C           3.0792    1.6790   33.0094 C.3     1  UNL1        0.1185
     27 C           2.3619    1.1414   31.8066 C.3     1  UNL1        0.1503
     28 C           2.7157   -0.2119   31.2651 C.3     1  UNL1        0.1003
     29 N           1.9984   -0.7495   30.0624 N.3     1  UNL1       -0.2933
     30 C           0.9274    0.0664   29.4012 C.3     1  UNL1        0.1011
     31 C           0.5736    1.4197   29.9427 C.3     1  UNL1        0.1592
     32 O           1.2908    1.9573   31.1454 O.3     1  UNL1       -0.3516
     33 H           1.5660   -1.6287   30.3460 H       1  UNL1        0.1234
@<TRIPOS>BOND
     1     9    10    1
     2    10    11    1
     3    10    12    1
     4    10     7    1
     5     7     8    3
     6     8     1    1
     7     1     2   ar
     8     2     3   ar
     9     3     4   ar
    10     4    14    1
    11    14    16    1
    12    16    17   ar
    13    17    18   ar
    14    18    19   ar
    15    19    22    1
    16    22    23    3
    17    19    20   ar
    18    20    21   ar
    19     4     5   ar
    20     5     6   ar
    21     6    24    1
    22    24    26    1
    23    27    26    1
    24    27    28    1
    25    28    29    1
    26    29    30    1
    27    30    31    1
    28    31    32    1
    29     6     1   ar
    30    32    27    1
    31    21    16   ar
    32    12    13    1
    33    14    15    1
    34    24    25    1
    35    29    33    1
@<TRIPOS>MOLECULE
*****
 33 35 0 0 0
SMALL
GASTEIGER

@<TRIPOS>ATOM
      1 C           4.7058   -2.5543   21.6503 C.ar    1  UNL1        0.0740
      2 C           5.6678   -3.5034   20.9994 C.ar    1  UNL1        0.1097
      3 N           6.6246   -4.2956   21.8403 N.ar    1  UNL1       -0.2283
      4 C           6.6194   -4.1386   23.3320 C.ar    1  UNL1        0.1345
      5 C           5.6574   -3.1895   23.9829 C.ar    1  UNL1        0.0494
      6 C           4.7006   -2.3973   23.1420 C.ar    1  UNL1        0.0567
      7 C           2.7922   -0.9700   19.9686 C.1     1  UNL1       -0.0610
      8 C           3.7490   -1.7621   20.8095 C.1     1  UNL1       -0.0593
      9 C           0.7946   -0.2952   20.2015 C.3     1  UNL1        0.0429
     10 C           1.8354   -0.1778   19.1277 C.3     1  UNL1        0.1418
     11 C           2.8762   -0.0605   18.0540 C.3     1  UNL1        0.0429
     12 O           0.8786    0.6143   18.2869 O.3     1  UNL1       -0.3753
     13 H           0.1350    0.9101   18.8350 H       1  UNL1        0.2114
     14 N           7.5762   -4.9307   24.1729 N.pl3   1  UNL1       -0.2821
     15 H           8.2377   -5.5199   23.7433 H       1  UNL1        0.1551
     16 C           7.5251   -4.8253   25.6683 C.ar    1  UNL1        0.1527
     17 C           8.4377   -3.8746   26.3848 C.ar    1  UNL1        0.1340
     18 N           8.3866   -3.7692   27.8801 N.ar    1  UNL1       -0.2290
     19 C           7.4229   -4.6145   28.6591 C.ar    1  UNL1        0.1683
     20 C           6.5104   -5.5652   27.9427 C.ar    1  UNL1        0.1299
     21 N           6.5614   -5.6706   26.4472 N.ar    1  UNL1       -0.2251
     22 C           7.3719   -4.5090   30.1546 C.1     1  UNL1        0.1214
     23 N           7.3208   -4.4036   31.6500 N.1     1  UNL1       -0.1892
     24 N           3.7386   -1.4482   23.7930 N.pl3   1  UNL1       -0.3301
     25 H           2.7976   -1.4259   23.5042 H       1  UNL1        0.1469
     26 C           4.2101   -0.5331   24.8839 C.3     1  UNL1        0.1185
     27 C           3.3625   -0.3204   26.1031 C.3     1  UNL1        0.1503
     28 C           3.5186   -1.2220   27.2917 C.3     1  UNL1        0.1003
     29 N           2.6710   -1.0093   28.5109 N.3     1  UNL1       -0.2933
     30 C           1.6673    0.1050   28.5414 C.3     1  UNL1        0.1011
     31 C           1.5112    1.0066   27.3528 C.3     1  UNL1        0.1592
     32 O           2.3588    0.7939   26.1336 O.3     1  UNL1       -0.3516
     33 H           3.3101   -0.8513   29.2899 H       1  UNL1        0.1234
@<TRIPOS>BOND
     1     9    10    1
     2    10    11    1
     3    10    12    1
     4    10     7    1
     5     7     8    3
     6     8     1    1
     7     1     2   ar
     8     2     3   ar
     9     3     4   ar
    10     4    14    1
    11    14    16    1
    12    16    17   ar
    13    17    18   ar
    14    18    19   ar
    15    19    22    1
    16    22    23    3
    17    19    20   ar
    18    20    21   ar
    19     4     5   ar
    20     5     6   ar
    21     6    24    1
    22    24    26    1
    23    27    26    1
    24    27    28    1
    25    28    29    1
    26    29    30    1
    27    30    31    1
    28    31    32    1
    29     6     1   ar
    30    32    27    1
    31    21    16   ar
    32    12    13    1
    33    14    15    1
    34    24    25    1
    35    29    33    1
