@<TRIPOS>MOLECULE
*****
 34 38 0 0 0
SMALL
GASTEIGER

@<TRIPOS>ATOM
      1 C         -10.4528  -20.0005   19.4758 C.3     1  UNL1        0.0358
      2 C          -9.2461  -19.8255   20.3494 C.2     1  UNL1        0.0342
      3 C          -9.3729  -19.9555   21.8384 C.2     1  UNL1        0.1013
      4 N          -8.1663  -19.7805   22.7120 N.2     1  UNL1       -0.2501
      5 C          -6.8326  -19.4755   22.0967 C.2     1  UNL1        0.0661
      6 C          -5.6260  -19.3005   22.9704 C.3     1  UNL1        0.0718
      7 C          -4.2925  -18.9956   22.3550 C.2     1  UNL1       -0.0197
      8 C          -4.1656  -18.8656   20.8661 C.2     1  UNL1       -0.0022
      9 C          -5.3723  -19.0406   19.9924 C.2     1  UNL1        0.0041
     10 C          -6.7058  -19.3455   20.6078 C.2     1  UNL1        0.0525
     11 C          -7.9126  -19.5205   19.7341 C.2     1  UNL1        0.1940
     12 O          -7.7857  -19.3906   18.2451 O.2     1  UNL1       -0.2868
     13 C          -2.8320  -18.5606   20.2507 C.ar    1  UNL1        0.0189
     14 C          -2.7582  -17.9857   18.8673 C.ar    1  UNL1        0.0031
     15 C          -1.4246  -17.6807   18.2520 C.ar    1  UNL1        0.0207
     16 C          -0.1648  -17.9506   19.0202 C.ar    1  UNL1        0.0989
     17 N          -0.2387  -18.5256   20.4037 N.ar    1  UNL1       -0.2423
     18 C          -1.5722  -18.8305   21.0190 C.ar    1  UNL1        0.0988
     19 C         -10.7065  -20.2605   22.4537 C.3     1  UNL1        0.2506
     20 O         -11.7422  -19.1819   22.5721 O.3     1  UNL1       -0.4689
     21 C         -11.5235  -17.8558   21.9059 C.ar    1  UNL1        0.1422
     22 C         -12.5272  -17.3378   20.9190 C.ar    1  UNL1        0.0371
     23 C         -12.3086  -16.0117   20.2527 C.ar    1  UNL1        0.0062
     24 C         -11.0862  -15.2037   20.5736 C.ar    1  UNL1        0.0371
     25 C         -10.0825  -15.7218   21.5606 C.ar    1  UNL1        0.1416
     26 C         -10.3011  -17.0478   22.2267 C.ar    1  UNL1        0.0738
     27 O          -8.8601  -14.9138   21.8814 O.3     1  UNL1       -0.4754
     28 C          -7.6359  -15.5893   22.4246 C.3     1  UNL1        0.2054
     29 C          -7.3200  -15.5050   23.8886 C.3     1  UNL1        0.0487
     30 C          -8.4302  -15.5171   24.8972 C.3     1  UNL1        0.0359
     31 C          -8.1143  -15.4329   26.3612 C.3     1  UNL1        0.1423
     32 O          -6.6884  -15.3364   26.8165 O.3     1  UNL1       -0.3538
     33 C          -5.5782  -15.3243   25.8078 C.3     1  UNL1        0.1423
     34 C          -5.8940  -15.4086   24.3439 C.3     1  UNL1        0.0359
@<TRIPOS>BOND
     1     1     2    1
     2     2     3    2
     3     3    19    1
     4    19    20    1
     5    20    21    1
     6    21    22   ar
     7    22    23   ar
     8    23    24   ar
     9    24    25   ar
    10    25    27    1
    11    27    28    1
    12    28    29    1
    13    29    30    1
    14    30    31    1
    15    31    32    1
    16    32    33    1
    17    33    34    1
    18    25    26   ar
    19     3     4    1
    20     4     5    2
    21     5     6    1
    22     6     7    1
    23     7     8    2
    24     8    13    1
    25    13    14   ar
    26    14    15   ar
    27    15    16   ar
    28    16    17   ar
    29    17    18   ar
    30     8     9    1
    31     9    10    2
    32    10    11    1
    33    11    12    2
    34    11     2    1
    35    26    21   ar
    36    10     5    1
    37    34    29    1
    38    18    13   ar
@<TRIPOS>MOLECULE
*****
 34 38 0 0 0
SMALL
GASTEIGER

@<TRIPOS>ATOM
      1 C          -0.4205    5.4933   18.8396 C.3     1  UNL1        0.0358
      2 C          -0.1716    4.0789   19.2730 C.2     1  UNL1        0.0342
      3 C          -1.1394    3.3949   20.1925 C.2     1  UNL1        0.1013
      4 N          -0.8906    1.9807   20.6259 N.2     1  UNL1       -0.2501
      5 C           0.3262    1.2503   20.1399 C.2     1  UNL1        0.0661
      6 C           0.5751   -0.1639   20.5733 C.3     1  UNL1        0.0718
      7 C           1.7918   -0.8942   20.0873 C.2     1  UNL1       -0.0197
      8 C           2.7597   -0.2102   19.1679 C.2     1  UNL1       -0.0022
      9 C           2.5108    1.2041   18.7344 C.2     1  UNL1        0.0041
     10 C           1.2941    1.9343   19.2204 C.2     1  UNL1        0.0525
     11 C           1.0452    3.3487   18.7870 C.2     1  UNL1        0.1940
     12 O           2.0130    4.0327   17.8676 O.2     1  UNL1       -0.2868
     13 C           3.9765   -0.9405   18.6818 C.ar    1  UNL1        0.0189
     14 C           4.1756   -2.3845   19.0356 C.ar    1  UNL1        0.0031
     15 C           5.3924   -3.1148   18.5496 C.ar    1  UNL1        0.0207
     16 C           6.4100   -2.4011   17.7098 C.ar    1  UNL1        0.0989
     17 N           6.2107   -0.9570   17.3561 N.ar    1  UNL1       -0.2423
     18 C           4.9940   -0.2268   17.8421 C.ar    1  UNL1        0.0988
     19 C          -2.3562    4.1253   20.6785 C.3     1  UNL1        0.2506
     20 O          -3.4245    3.3865   21.4289 O.3     1  UNL1       -0.4689
     21 C          -3.5100    3.5038   22.9218 C.ar    1  UNL1        0.1422
     22 C          -4.8482    3.6187   23.5896 C.ar    1  UNL1        0.0371
     23 C          -4.9337    3.7360   25.0826 C.ar    1  UNL1        0.0062
     24 C          -3.6810    3.7384   25.9078 C.ar    1  UNL1        0.0371
     25 C          -2.3428    3.6234   25.2399 C.ar    1  UNL1        0.1416
     26 C          -2.2573    3.5061   23.7469 C.ar    1  UNL1        0.0738
     27 O          -1.0901    3.6258   26.0650 O.3     1  UNL1       -0.4754
     28 C          -0.1664    2.4444   26.0294 C.3     1  UNL1        0.2054
     29 C          -0.1059    1.5044   27.1968 C.3     1  UNL1        0.0487
     30 C          -1.3577    1.1596   27.9478 C.3     1  UNL1        0.0359
     31 C          -1.2971    0.2195   29.1151 C.3     1  UNL1        0.1423
     32 O           0.0152   -0.3757   29.5314 O.3     1  UNL1       -0.3538
     33 C           1.2671   -0.0310   28.7804 C.3     1  UNL1        0.1423
     34 C           1.2066    0.9091   27.6130 C.3     1  UNL1        0.0359
@<TRIPOS>BOND
     1     1     2    1
     2     2     3    2
     3     3    19    1
     4    19    20    1
     5    20    21    1
     6    21    22   ar
     7    22    23   ar
     8    23    24   ar
     9    24    25   ar
    10    25    27    1
    11    27    28    1
    12    28    29    1
    13    29    30    1
    14    30    31    1
    15    31    32    1
    16    32    33    1
    17    33    34    1
    18    25    26   ar
    19     3     4    1
    20     4     5    2
    21     5     6    1
    22     6     7    1
    23     7     8    2
    24     8    13    1
    25    13    14   ar
    26    14    15   ar
    27    15    16   ar
    28    16    17   ar
    29    17    18   ar
    30     8     9    1
    31     9    10    2
    32    10    11    1
    33    11    12    2
    34    11     2    1
    35    26    21   ar
    36    10     5    1
    37    34    29    1
    38    18    13   ar
@<TRIPOS>MOLECULE
*****
 34 38 0 0 0
SMALL
GASTEIGER

@<TRIPOS>ATOM
      1 C          -0.7362    5.2412   18.7381 C.3     1  UNL1        0.0358
      2 C          -0.3808    3.8586   19.1988 C.2     1  UNL1        0.0342
      3 C          -1.3177    3.1021   20.0932 C.2     1  UNL1        0.1013
      4 N          -0.9625    1.7195   20.5538 N.2     1  UNL1       -0.2501
      5 C           0.3298    1.0933   20.1200 C.2     1  UNL1        0.0661
      6 C           0.6850   -0.2892   20.5807 C.3     1  UNL1        0.0718
      7 C           1.9772   -0.9153   20.1469 C.2     1  UNL1       -0.0197
      8 C           2.9141   -0.1589   19.2525 C.2     1  UNL1       -0.0022
      9 C           2.5588    1.2237   18.7918 C.2     1  UNL1        0.0041
     10 C           1.2667    1.8498   19.2256 C.2     1  UNL1        0.0525
     11 C           0.9113    3.2324   18.7650 C.2     1  UNL1        0.1940
     12 O           1.8482    3.9889   17.8706 O.2     1  UNL1       -0.2868
     13 C           4.2063   -0.7851   18.8187 C.ar    1  UNL1        0.0189
     14 C           4.7695   -1.9476   19.5811 C.ar    1  UNL1        0.0031
     15 C           6.0618   -2.5738   19.1473 C.ar    1  UNL1        0.0207
     16 C           6.7907   -2.0374   17.9511 C.ar    1  UNL1        0.0989
     17 N           6.2275   -0.8748   17.1887 N.ar    1  UNL1       -0.2423
     18 C           4.9353   -0.2487   17.6225 C.ar    1  UNL1        0.0988
     19 C          -2.6100    3.7283   20.5270 C.3     1  UNL1        0.2506
     20 O          -3.7385    2.8641   21.0061 O.3     1  UNL1       -0.4689
     21 C          -4.6980    3.3854   22.0345 C.ar    1  UNL1        0.1422
     22 C          -5.9965    4.0010   21.6047 C.ar    1  UNL1        0.0371
     23 C          -6.9561    4.5223   22.6331 C.ar    1  UNL1        0.0062
     24 C          -6.6170    4.4280   24.0913 C.ar    1  UNL1        0.0371
     25 C          -5.3183    3.8124   24.5210 C.ar    1  UNL1        0.1416
     26 C          -4.3589    3.2911   23.4926 C.ar    1  UNL1        0.0738
     27 O          -4.9792    3.7181   25.9791 O.3     1  UNL1       -0.4754
     28 C          -4.0890    4.7474   26.6102 C.3     1  UNL1        0.2054
     29 C          -2.6204    4.4801   26.7570 C.3     1  UNL1        0.0487
     30 C          -1.6805    5.6068   27.0691 C.3     1  UNL1        0.0359
     31 C          -0.2119    5.3395   27.2159 C.3     1  UNL1        0.1423
     32 O           0.3170    3.9456   27.0508 O.3     1  UNL1       -0.3538
     33 C          -0.6228    2.8189   26.7387 C.3     1  UNL1        0.1423
     34 C          -2.0915    3.0861   26.5919 C.3     1  UNL1        0.0359
@<TRIPOS>BOND
     1     1     2    1
     2     2     3    2
     3     3    19    1
     4    19    20    1
     5    20    21    1
     6    21    22   ar
     7    22    23   ar
     8    23    24   ar
     9    24    25   ar
    10    25    27    1
    11    27    28    1
    12    28    29    1
    13    29    30    1
    14    30    31    1
    15    31    32    1
    16    32    33    1
    17    33    34    1
    18    25    26   ar
    19     3     4    1
    20     4     5    2
    21     5     6    1
    22     6     7    1
    23     7     8    2
    24     8    13    1
    25    13    14   ar
    26    14    15   ar
    27    15    16   ar
    28    16    17   ar
    29    17    18   ar
    30     8     9    1
    31     9    10    2
    32    10    11    1
    33    11    12    2
    34    11     2    1
    35    26    21   ar
    36    10     5    1
    37    34    29    1
    38    18    13   ar
@<TRIPOS>MOLECULE
*****
 34 38 0 0 0
SMALL
GASTEIGER

@<TRIPOS>ATOM
      1 C           2.9426   -1.1495   21.2029 C.3     1  UNL1        0.0358
      2 C           2.0551   -0.2055   21.9588 C.2     1  UNL1        0.0342
      3 C           1.0122    0.5891   21.2303 C.2     1  UNL1        0.1013
      4 N           0.1247    1.5331   21.9861 N.2     1  UNL1       -0.2501
      5 C           0.2802    1.6824   23.4706 C.2     1  UNL1        0.0661
      6 C          -0.6072    2.6263   24.2265 C.3     1  UNL1        0.0718
      7 C          -0.4517    2.7756   25.7109 C.2     1  UNL1       -0.0197
      8 C           0.5912    1.9809   26.4394 C.2     1  UNL1       -0.0022
      9 C           1.4787    1.0370   25.6836 C.2     1  UNL1        0.0041
     10 C           1.3231    0.8877   24.1992 C.2     1  UNL1        0.0525
     11 C           2.2106   -0.0563   23.4432 C.2     1  UNL1        0.1940
     12 O           3.2535   -0.8510   24.1717 O.2     1  UNL1       -0.2868
     13 C           0.7467    2.1302   27.9239 C.ar    1  UNL1        0.0189
     14 C           1.6799    3.1646   28.4800 C.ar    1  UNL1        0.0031
     15 C           1.8353    3.3139   29.9645 C.ar    1  UNL1        0.0207
     16 C           1.0576    2.4288   30.8928 C.ar    1  UNL1        0.0989
     17 N           0.1244    1.3944   30.3366 N.ar    1  UNL1       -0.2423
     18 C          -0.0310    1.2452   28.8522 C.ar    1  UNL1        0.0988
     19 C           0.8567    0.4398   19.7458 C.3     1  UNL1        0.2506
     20 O           1.4383    1.4699   18.8234 O.3     1  UNL1       -0.4689
     21 C           2.8721    1.3684   18.3946 C.ar    1  UNL1        0.1422
     22 C           3.7528    2.5821   18.4288 C.ar    1  UNL1        0.0371
     23 C           5.1866    2.4807   17.9999 C.ar    1  UNL1        0.0062
     24 C           5.7397    1.1656   17.5368 C.ar    1  UNL1        0.0371
     25 C           4.8589   -0.0482   17.5025 C.ar    1  UNL1        0.1416
     26 C           3.4251    0.0533   17.9314 C.ar    1  UNL1        0.0738
     27 O           5.4120   -1.3633   17.0394 O.3     1  UNL1       -0.4754
     28 C           6.2723   -2.1802   17.9574 C.3     1  UNL1        0.2054
     29 C           5.6435   -2.9852   19.0559 C.3     1  UNL1        0.0487
     30 C           4.4950   -3.9007   18.7517 C.3     1  UNL1        0.0359
     31 C           3.8662   -4.7056   19.8502 C.3     1  UNL1        0.1423
     32 O           4.3860   -4.5951   21.2529 O.3     1  UNL1       -0.3538
     33 C           5.5347   -3.6795   21.5571 C.3     1  UNL1        0.1423
     34 C           6.1634   -2.8746   20.4586 C.3     1  UNL1        0.0359
@<TRIPOS>BOND
     1     1     2    1
     2     2     3    2
     3     3    19    1
     4    19    20    1
     5    20    21    1
     6    21    22   ar
     7    22    23   ar
     8    23    24   ar
     9    24    25   ar
    10    25    27    1
    11    27    28    1
    12    28    29    1
    13    29    30    1
    14    30    31    1
    15    31    32    1
    16    32    33    1
    17    33    34    1
    18    25    26   ar
    19     3     4    1
    20     4     5    2
    21     5     6    1
    22     6     7    1
    23     7     8    2
    24     8    13    1
    25    13    14   ar
    26    14    15   ar
    27    15    16   ar
    28    16    17   ar
    29    17    18   ar
    30     8     9    1
    31     9    10    2
    32    10    11    1
    33    11    12    2
    34    11     2    1
    35    26    21   ar
    36    10     5    1
    37    34    29    1
    38    18    13   ar
@<TRIPOS>MOLECULE
*****
 34 38 0 0 0
SMALL
GASTEIGER

@<TRIPOS>ATOM
      1 C           7.9832   -5.4996   23.5526 C.3     1  UNL1        0.0358
      2 C           6.9486   -4.4337   23.7612 C.2     1  UNL1        0.0342
      3 C           6.6431   -3.9458   25.1463 C.2     1  UNL1        0.1013
      4 N           5.6086   -2.8799   25.3549 N.2     1  UNL1       -0.2501
      5 C           4.8795   -2.3019   24.1783 C.2     1  UNL1        0.0661
      6 C           3.8449   -1.2360   24.3869 C.3     1  UNL1        0.0718
      7 C           3.1158   -0.6580   23.2104 C.2     1  UNL1       -0.0197
      8 C           3.4213   -1.1459   21.8252 C.2     1  UNL1       -0.0022
      9 C           4.4559   -2.2118   21.6166 C.2     1  UNL1        0.0041
     10 C           5.1849   -2.7898   22.7932 C.2     1  UNL1        0.0525
     11 C           6.2196   -3.8557   22.5846 C.2     1  UNL1        0.1940
     12 O           6.5251   -4.3436   21.1995 O.2     1  UNL1       -0.2868
     13 C           2.6922   -0.5678   20.6486 C.ar    1  UNL1        0.0189
     14 C           3.4216   -0.3219   19.3612 C.ar    1  UNL1        0.0031
     15 C           2.6925    0.2562   18.1847 C.ar    1  UNL1        0.0207
     16 C           1.2340    0.5883   18.2955 C.ar    1  UNL1        0.0989
     17 N           0.5045    0.3423   19.5830 N.ar    1  UNL1       -0.2423
     18 C           1.2336   -0.2357   20.7595 C.ar    1  UNL1        0.0988
     19 C           7.3723   -4.5239   26.3229 C.3     1  UNL1        0.2506
     20 O           6.6091   -5.2238   27.4081 O.3     1  UNL1       -0.4689
     21 C           6.6827   -4.7224   28.8199 C.ar    1  UNL1        0.1422
     22 C           6.8903   -5.6880   29.9488 C.ar    1  UNL1        0.0371
     23 C           6.9639   -5.1866   31.3607 C.ar    1  UNL1        0.0062
     24 C           6.8298   -3.7196   31.6435 C.ar    1  UNL1        0.0371
     25 C           6.6221   -2.7540   30.5145 C.ar    1  UNL1        0.1416
     26 C           6.5485   -3.2554   29.1028 C.ar    1  UNL1        0.0738
     27 O           6.4880   -1.2871   30.7974 O.3     1  UNL1       -0.4754
     28 C           5.1627   -0.7218   31.2147 C.3     1  UNL1        0.2054
     29 C           4.1015   -0.4610   30.1872 C.3     1  UNL1        0.0487
     30 C           2.6529   -0.5747   30.5595 C.3     1  UNL1        0.0359
     31 C           1.5917   -0.3139   29.5320 C.3     1  UNL1        0.1423
     32 O           1.9791    0.0606   28.1321 O.3     1  UNL1       -0.3538
     33 C           3.4278    0.1743   27.7597 C.3     1  UNL1        0.1423
     34 C           4.4889   -0.0865   28.7873 C.3     1  UNL1        0.0359
@<TRIPOS>BOND
     1     1     2    1
     2     2     3    2
     3     3    19    1
     4    19    20    1
     5    20    21    1
     6    21    22   ar
     7    22    23   ar
     8    23    24   ar
     9    24    25   ar
    10    25    27    1
    11    27    28    1
    12    28    29    1
    13    29    30    1
    14    30    31    1
    15    31    32    1
    16    32    33    1
    17    33    34    1
    18    25    26   ar
    19     3     4    1
    20     4     5    2
    21     5     6    1
    22     6     7    1
    23     7     8    2
    24     8    13    1
    25    13    14   ar
    26    14    15   ar
    27    15    16   ar
    28    16    17   ar
    29    17    18   ar
    30     8     9    1
    31     9    10    2
    32    10    11    1
    33    11    12    2
    34    11     2    1
    35    26    21   ar
    36    10     5    1
    37    34    29    1
    38    18    13   ar
@<TRIPOS>MOLECULE
*****
 34 38 0 0 0
SMALL
GASTEIGER

@<TRIPOS>ATOM
      1 C          -0.5948    2.9868   24.0546 C.3     1  UNL1        0.0358
      2 C          -0.2127    2.6136   22.6529 C.2     1  UNL1        0.0342
      3 C          -0.7862    3.3713   21.4923 C.2     1  UNL1        0.1013
      4 N          -0.4042    2.9982   20.0906 N.2     1  UNL1       -0.2501
      5 C           0.5514    1.8673   19.8494 C.2     1  UNL1        0.0661
      6 C           0.9334    1.4942   18.4477 C.3     1  UNL1        0.0718
      7 C           1.8889    0.3634   18.2066 C.2     1  UNL1       -0.0197
      8 C           2.4624   -0.3943   19.3672 C.2     1  UNL1       -0.0022
      9 C           2.0804   -0.0212   20.7689 C.2     1  UNL1        0.0041
     10 C           1.1249    1.1096   21.0100 C.2     1  UNL1        0.0525
     11 C           0.7428    1.4828   22.4118 C.2     1  UNL1        0.1940
     12 O           1.3163    0.7250   23.5724 O.2     1  UNL1       -0.2868
     13 C           3.4179   -1.5252   19.1260 C.ar    1  UNL1        0.0189
     14 C           3.3466   -2.7610   19.9732 C.ar    1  UNL1        0.0031
     15 C           4.3021   -3.8919   19.7320 C.ar    1  UNL1        0.0207
     16 C           5.3290   -3.7869   18.6436 C.ar    1  UNL1        0.0989
     17 N           5.4003   -2.5511   17.7964 N.ar    1  UNL1       -0.2423
     18 C           4.4448   -1.4203   18.0376 C.ar    1  UNL1        0.0988
     19 C          -1.7417    4.5022   21.7335 C.3     1  UNL1        0.2506
     20 O          -2.4614    5.1350   20.5795 O.3     1  UNL1       -0.4689
     21 C          -3.8875    4.7687   20.2931 C.ar    1  UNL1        0.1422
     22 C          -4.2333    4.0268   19.0362 C.ar    1  UNL1        0.0371
     23 C          -5.6595    3.6604   18.7498 C.ar    1  UNL1        0.0062
     24 C          -6.7397    4.0360   19.7203 C.ar    1  UNL1        0.0371
     25 C          -6.3938    4.7780   20.9773 C.ar    1  UNL1        0.1416
     26 C          -4.9678    5.1443   21.2637 C.ar    1  UNL1        0.0738
     27 O          -7.4741    5.1536   21.9479 O.3     1  UNL1       -0.4754
     28 C          -7.6515    4.3682   23.2135 C.3     1  UNL1        0.2054
     29 C          -6.8511    4.7193   24.4325 C.3     1  UNL1        0.0487
     30 C          -7.2774    5.8615   25.3064 C.3     1  UNL1        0.0359
     31 C          -6.4769    6.2126   26.5254 C.3     1  UNL1        0.1423
     32 O          -5.2501    5.4215   26.8705 O.3     1  UNL1       -0.3538
     33 C          -4.8237    4.2793   25.9966 C.3     1  UNL1        0.1423
     34 C          -5.6242    3.9282   24.7776 C.3     1  UNL1        0.0359
@<TRIPOS>BOND
     1     1     2    1
     2     2     3    2
     3     3    19    1
     4    19    20    1
     5    20    21    1
     6    21    22   ar
     7    22    23   ar
     8    23    24   ar
     9    24    25   ar
    10    25    27    1
    11    27    28    1
    12    28    29    1
    13    29    30    1
    14    30    31    1
    15    31    32    1
    16    32    33    1
    17    33    34    1
    18    25    26   ar
    19     3     4    1
    20     4     5    2
    21     5     6    1
    22     6     7    1
    23     7     8    2
    24     8    13    1
    25    13    14   ar
    26    14    15   ar
    27    15    16   ar
    28    16    17   ar
    29    17    18   ar
    30     8     9    1
    31     9    10    2
    32    10    11    1
    33    11    12    2
    34    11     2    1
    35    26    21   ar
    36    10     5    1
    37    34    29    1
    38    18    13   ar
@<TRIPOS>MOLECULE
*****
 34 38 0 0 0
SMALL
GASTEIGER

@<TRIPOS>ATOM
      1 C           9.1020   -6.9679   24.1881 C.3     1  UNL1        0.0358
      2 C           8.0786   -5.8740   24.1099 C.2     1  UNL1        0.0342
      3 C           7.4630   -5.3318   25.3657 C.2     1  UNL1        0.1013
      4 N           6.4396   -4.2380   25.2875 N.2     1  UNL1       -0.2501
      5 C           6.0318   -3.6863   23.9535 C.2     1  UNL1        0.0661
      6 C           5.0084   -2.5924   23.8754 C.3     1  UNL1        0.0718
      7 C           4.6007   -2.0408   22.5415 C.2     1  UNL1       -0.0197
      8 C           5.2163   -2.5831   21.2857 C.2     1  UNL1       -0.0022
      9 C           6.2397   -3.6769   21.3638 C.2     1  UNL1        0.0041
     10 C           6.6474   -4.2285   22.6978 C.2     1  UNL1        0.0525
     11 C           7.6708   -5.3224   22.7760 C.2     1  UNL1        0.1940
     12 O           8.2865   -5.8647   21.5202 O.2     1  UNL1       -0.2868
     13 C           4.8085   -2.0314   19.9517 C.ar    1  UNL1        0.0189
     14 C           3.5985   -1.1517   19.8420 C.ar    1  UNL1        0.0031
     15 C           3.1907   -0.6000   18.5080 C.ar    1  UNL1        0.0207
     16 C           3.9929   -0.9281   17.2838 C.ar    1  UNL1        0.0989
     17 N           5.2029   -1.8079   17.3935 N.ar    1  UNL1       -0.2423
     18 C           5.6107   -2.3595   18.7274 C.ar    1  UNL1        0.0988
     19 C           7.8708   -5.8835   26.6997 C.3     1  UNL1        0.2506
     20 O           6.8411   -6.0979   27.7691 O.3     1  UNL1       -0.4689
     21 C           6.7812   -5.1734   28.9488 C.ar    1  UNL1        0.1422
     22 C           6.9727   -5.7132   30.3351 C.ar    1  UNL1        0.0371
     23 C           6.9129   -4.7887   31.5149 C.ar    1  UNL1        0.0062
     24 C           6.6615   -3.3244   31.3082 C.ar    1  UNL1        0.0371
     25 C           6.4700   -2.7847   29.9218 C.ar    1  UNL1        0.1416
     26 C           6.5298   -3.7091   28.7422 C.ar    1  UNL1        0.0738
     27 O           6.2186   -1.3204   29.7152 O.3     1  UNL1       -0.4754
     28 C           5.1421   -0.8699   28.7727 C.3     1  UNL1        0.2054
     29 C           3.8085   -0.4396   29.3079 C.3     1  UNL1        0.0487
     30 C           2.5717   -0.6297   28.4808 C.3     1  UNL1        0.0359
     31 C           1.2381   -0.1993   29.0160 C.3     1  UNL1        0.1423
     32 O           1.1414    0.4211   30.3782 O.3     1  UNL1       -0.3538
     33 C           2.3783    0.6112   31.2054 C.3     1  UNL1        0.1423
     34 C           3.7119    0.1809   30.6702 C.3     1  UNL1        0.0359
@<TRIPOS>BOND
     1     1     2    1
     2     2     3    2
     3     3    19    1
     4    19    20    1
     5    20    21    1
     6    21    22   ar
     7    22    23   ar
     8    23    24   ar
     9    24    25   ar
    10    25    27    1
    11    27    28    1
    12    28    29    1
    13    29    30    1
    14    30    31    1
    15    31    32    1
    16    32    33    1
    17    33    34    1
    18    25    26   ar
    19     3     4    1
    20     4     5    2
    21     5     6    1
    22     6     7    1
    23     7     8    2
    24     8    13    1
    25    13    14   ar
    26    14    15   ar
    27    15    16   ar
    28    16    17   ar
    29    17    18   ar
    30     8     9    1
    31     9    10    2
    32    10    11    1
    33    11    12    2
    34    11     2    1
    35    26    21   ar
    36    10     5    1
    37    34    29    1
    38    18    13   ar
@<TRIPOS>MOLECULE
*****
 34 38 0 0 0
SMALL
GASTEIGER

@<TRIPOS>ATOM
      1 C           3.2960    0.4432   22.5612 C.3     1  UNL1        0.0358
      2 C           2.4581    0.7674   23.7624 C.2     1  UNL1        0.0342
      3 C           2.9215    0.3643   25.1309 C.2     1  UNL1        0.1013
      4 N           2.0838    0.6885   26.3322 N.2     1  UNL1       -0.2501
      5 C           0.7825    1.4158   26.1649 C.2     1  UNL1        0.0661
      6 C          -0.0552    1.7400   27.3662 C.3     1  UNL1        0.0718
      7 C          -1.3564    2.4673   27.1989 C.2     1  UNL1       -0.0197
      8 C          -1.8198    2.8704   25.8304 C.2     1  UNL1       -0.0022
      9 C          -0.9820    2.5462   24.6292 C.2     1  UNL1        0.0041
     10 C           0.3191    1.8189   24.7964 C.2     1  UNL1        0.0525
     11 C           1.1570    1.4947   23.5952 C.2     1  UNL1        0.1940
     12 O           0.6936    1.8978   22.2267 O.2     1  UNL1       -0.2868
     13 C          -3.1210    3.5977   25.6632 C.ar    1  UNL1        0.0189
     14 C          -3.7469    4.2942   26.8349 C.ar    1  UNL1        0.0031
     15 C          -5.0481    5.0215   26.6677 C.ar    1  UNL1        0.0207
     16 C          -5.7234    5.0522   25.3287 C.ar    1  UNL1        0.0989
     17 N          -5.0975    4.3556   24.1569 N.ar    1  UNL1       -0.2423
     18 C          -3.7964    3.6283   24.3242 C.ar    1  UNL1        0.0988
     19 C           4.2228   -0.3630   25.2982 C.3     1  UNL1        0.2506
     20 O           4.3088   -1.8276   24.9861 O.3     1  UNL1       -0.4689
     21 C           5.1406   -2.3007   23.8310 C.ar    1  UNL1        0.1422
     22 C           6.5453   -1.8018   23.6643 C.ar    1  UNL1        0.0371
     23 C           7.3772   -2.2749   22.5092 C.ar    1  UNL1        0.0062
     24 C           6.8043   -3.2470   21.5208 C.ar    1  UNL1        0.0371
     25 C           5.3995   -3.7459   21.6876 C.ar    1  UNL1        0.1416
     26 C           4.5677   -3.2728   22.8426 C.ar    1  UNL1        0.0738
     27 O           4.8266   -4.7180   20.6992 O.3     1  UNL1       -0.4754
     28 C           3.8242   -4.2531   19.6848 C.3     1  UNL1        0.2054
     29 C           3.8925   -2.8535   19.1497 C.3     1  UNL1        0.0487
     30 C           2.8901   -1.8304   19.5953 C.3     1  UNL1        0.0359
     31 C           2.9584   -0.4308   19.0602 C.3     1  UNL1        0.1423
     32 O           4.0291   -0.0542   18.0796 O.3     1  UNL1       -0.3538
     33 C           5.0316   -1.0772   17.6339 C.3     1  UNL1        0.1423
     34 C           4.9633   -2.4769   18.1690 C.3     1  UNL1        0.0359
@<TRIPOS>BOND
     1     1     2    1
     2     2     3    2
     3     3    19    1
     4    19    20    1
     5    20    21    1
     6    21    22   ar
     7    22    23   ar
     8    23    24   ar
     9    24    25   ar
    10    25    27    1
    11    27    28    1
    12    28    29    1
    13    29    30    1
    14    30    31    1
    15    31    32    1
    16    32    33    1
    17    33    34    1
    18    25    26   ar
    19     3     4    1
    20     4     5    2
    21     5     6    1
    22     6     7    1
    23     7     8    2
    24     8    13    1
    25    13    14   ar
    26    14    15   ar
    27    15    16   ar
    28    16    17   ar
    29    17    18   ar
    30     8     9    1
    31     9    10    2
    32    10    11    1
    33    11    12    2
    34    11     2    1
    35    26    21   ar
    36    10     5    1
    37    34    29    1
    38    18    13   ar
@<TRIPOS>MOLECULE
*****
 34 38 0 0 0
SMALL
GASTEIGER

@<TRIPOS>ATOM
      1 C           2.2369    2.0955   21.7577 C.3     1  UNL1        0.0358
      2 C           1.4633    2.0926   23.0429 C.2     1  UNL1        0.0342
      3 C           2.0063    1.3761   24.2435 C.2     1  UNL1        0.1013
      4 N           1.2327    1.3732   25.5286 N.2     1  UNL1       -0.2501
      5 C          -0.0840    2.0868   25.6131 C.2     1  UNL1        0.0661
      6 C          -0.8576    2.0839   26.8982 C.3     1  UNL1        0.0718
      7 C          -2.1742    2.7976   26.9826 C.2     1  UNL1       -0.0197
      8 C          -2.7172    3.5142   25.7819 C.2     1  UNL1       -0.0022
      9 C          -1.9436    3.5171   24.4968 C.2     1  UNL1        0.0041
     10 C          -0.6270    2.8034   24.4124 C.2     1  UNL1        0.0525
     11 C           0.1467    2.8063   23.1273 C.2     1  UNL1        0.1940
     12 O          -0.3964    3.5229   21.9266 O.2     1  UNL1       -0.2868
     13 C          -4.0339    4.2278   25.8663 C.ar    1  UNL1        0.0189
     14 C          -4.3410    5.0977   27.0491 C.ar    1  UNL1        0.0031
     15 C          -5.6577    5.8114   27.1335 C.ar    1  UNL1        0.0207
     16 C          -6.6672    5.6552   26.0352 C.ar    1  UNL1        0.0989
     17 N          -6.3601    4.7852   24.8524 N.ar    1  UNL1       -0.2423
     18 C          -5.0435    4.0716   24.7680 C.ar    1  UNL1        0.0988
     19 C           3.3230    0.6624   24.1591 C.3     1  UNL1        0.2506
     20 O           3.3784   -0.8292   24.3075 O.3     1  UNL1       -0.4689
     21 C           3.7760   -1.6847   23.1413 C.ar    1  UNL1        0.1422
     22 C           4.6824   -2.8617   23.3491 C.ar    1  UNL1        0.0371
     23 C           5.0800   -3.7172   22.1828 C.ar    1  UNL1        0.0062
     24 C           4.5713   -3.3957   20.8089 C.ar    1  UNL1        0.0371
     25 C           3.6649   -2.2186   20.6011 C.ar    1  UNL1        0.1416
     26 C           3.2673   -1.3632   21.7673 C.ar    1  UNL1        0.0738
     27 O           3.1561   -1.8971   19.2271 O.3     1  UNL1       -0.4754
     28 C           3.7265   -0.7351   18.4691 C.3     1  UNL1        0.2054
     29 C           2.9838    0.5673   18.4227 C.3     1  UNL1        0.0487
     30 C           3.7411    1.8609   18.3684 C.3     1  UNL1        0.0359
     31 C           2.9985    3.1634   18.3220 C.3     1  UNL1        0.1423
     32 O           1.4986    3.1722   18.3301 O.3     1  UNL1       -0.3538
     33 C           0.7412    1.8785   18.3844 C.3     1  UNL1        0.1423
     34 C           1.4838    0.5761   18.4308 C.3     1  UNL1        0.0359
@<TRIPOS>BOND
     1     1     2    1
     2     2     3    2
     3     3    19    1
     4    19    20    1
     5    20    21    1
     6    21    22   ar
     7    22    23   ar
     8    23    24   ar
     9    24    25   ar
    10    25    27    1
    11    27    28    1
    12    28    29    1
    13    29    30    1
    14    30    31    1
    15    31    32    1
    16    32    33    1
    17    33    34    1
    18    25    26   ar
    19     3     4    1
    20     4     5    2
    21     5     6    1
    22     6     7    1
    23     7     8    2
    24     8    13    1
    25    13    14   ar
    26    14    15   ar
    27    15    16   ar
    28    16    17   ar
    29    17    18   ar
    30     8     9    1
    31     9    10    2
    32    10    11    1
    33    11    12    2
    34    11     2    1
    35    26    21   ar
    36    10     5    1
    37    34    29    1
    38    18    13   ar
