@<TRIPOS>MOLECULE
*****
 33 37 0 0 0
SMALL
GASTEIGER

@<TRIPOS>ATOM
      1 N          -5.0983  -19.3800   21.3183 N.am    1  UNL1       -0.2723
      2 C          -3.9452  -19.4838   20.3646 C.2     1  UNL1        0.2685
      3 O          -3.9378  -20.5504   19.3099 O.2     1  UNL1       -0.2682
      4 C          -5.1057  -18.3135   22.3729 C.3     1  UNL1        0.0761
      5 C          -6.0064  -17.1145   22.4081 C.3     1  UNL1        0.0213
      6 C          -5.6710  -16.3186   23.6345 C.3     1  UNL1        0.0188
      7 C          -6.0204  -15.0857   24.4142 C.3     1  UNL1        0.0686
      8 N          -5.1283  -15.0308   25.6188 N.3     1  UNL1       -0.2975
      9 C          -4.2276  -16.2298   25.5837 C.3     1  UNL1        0.0686
     10 C          -4.5630  -17.0257   24.3573 C.3     1  UNL1        0.0188
     11 C          -4.2136  -18.2586   23.5776 C.3     1  UNL1        0.0213
     12 H          -5.6926  -15.0466   26.4684 H       1  UNL1        0.1232
     13 C          -2.7995  -18.5211   20.4655 C.ar    1  UNL1        0.1535
     14 C          -1.3639  -18.8230   20.1525 C.ar    1  UNL1        0.1012
     15 N          -0.5653  -17.5759   20.3908 N.ar    1  UNL1       -0.3057
     16 C           0.9154  -17.4275   20.2019 C.3     1  UNL1        0.1321
     17 C          -1.5072  -16.5031   20.8511 C.ar    1  UNL1        0.1787
     18 N          -2.8880  -17.0873   20.8972 N.ar    1  UNL1       -0.2192
     19 C          -6.2442  -20.3429   21.2172 C.3     1  UNL1        0.1205
     20 C         -10.4566  -18.7990   20.8692 C.ar    1  UNL1        0.1724
     21 C          -9.7074  -19.2180   19.6391 C.ar    1  UNL1        0.0398
     22 C          -8.3032  -19.7327   19.7551 C.ar    1  UNL1        0.0007
     23 C          -7.6482  -19.8283   21.1012 C.ar    1  UNL1        0.0009
     24 C          -8.3975  -19.4092   22.3313 C.ar    1  UNL1        0.0374
     25 C          -9.8016  -18.8946   22.2152 C.ar    1  UNL1        0.1718
     26 C         -12.1232  -16.8078   20.7821 C.3     1  UNL1        0.2526
     27 O         -11.8608  -18.2843   20.7532 O.3     1  UNL1       -0.4684
     28 O         -10.5509  -18.4755   23.4453 O.3     1  UNL1       -0.4761
     29 C          -9.8808  -17.6149   24.4749 C.3     1  UNL1        0.1660
     30 C          -9.5167  -16.1687   24.3137 C.3     1  UNL1        0.0435
     31 C          -8.8679  -15.7094   25.5858 C.3     1  UNL1        0.0038
     32 C          -8.8310  -16.8718   26.5332 C.3     1  UNL1        0.0038
     33 C          -9.4570  -18.0494   25.8467 C.3     1  UNL1        0.0435
@<TRIPOS>BOND
     1    26    27    1
     2    27    20    1
     3    20    21   ar
     4    21    22   ar
     5    22    23   ar
     6    23    19    1
     7    19     1    1
     8     1     2   am
     9     2     3    2
    10     2    13    1
    11    13    14   ar
    12    14    15   ar
    13    15    16    1
    14    15    17   ar
    15    17    18   ar
    16     4     1    1
    17     4     5    1
    18     6     5    1
    19     6     7    1
    20     7     8    1
    21     8     9    1
    22    10     9    1
    23    10    11    1
    24    23    24   ar
    25    24    25   ar
    26    25    28    1
    27    28    29    1
    28    29    30    1
    29    30    31    1
    30    31    32    1
    31    32    33    1
    32    25    20   ar
    33    33    29    1
    34    18    13   ar
    35    11     4    1
    36    10     6    1
    37     8    12    1
@<TRIPOS>MOLECULE
*****
 33 37 0 0 0
SMALL
GASTEIGER

@<TRIPOS>ATOM
      1 N          -8.5040  -19.2812   21.6297 N.am    1  UNL1       -0.2723
      2 C          -9.4717  -19.0575   20.5057 C.2     1  UNL1        0.2685
      3 O          -9.4175  -19.9275   19.2849 O.2     1  UNL1       -0.2682
      4 C          -8.5582  -18.4113   22.8504 C.3     1  UNL1        0.0761
      5 C          -8.9776  -18.8445   24.2239 C.3     1  UNL1        0.0213
      6 C          -8.8812  -17.6563   25.1344 C.3     1  UNL1        0.0188
      7 C          -9.0807  -17.1897   26.5459 C.3     1  UNL1        0.0686
      8 N          -8.7251  -15.7338   26.6074 N.3     1  UNL1       -0.2975
      9 C          -8.3058  -15.3005   25.2340 C.3     1  UNL1        0.0686
     10 C          -8.4022  -16.4887   24.3235 C.3     1  UNL1        0.0188
     11 C          -8.2026  -16.9553   22.9120 C.3     1  UNL1        0.0213
     12 H          -7.9578  -15.5924   27.2644 H       1  UNL1        0.1232
     13 C         -10.4937  -17.9638   20.6024 C.ar    1  UNL1        0.1535
     14 C         -11.3723  -17.6802   21.7846 C.ar    1  UNL1        0.1012
     15 N         -12.2381  -16.5028   21.4467 N.ar    1  UNL1       -0.3057
     16 C         -13.2668  -15.8789   22.3425 C.3     1  UNL1        0.1321
     17 C         -11.8946  -16.0588   20.0557 C.ar    1  UNL1        0.1787
     18 N         -10.8165  -16.9618   19.5340 N.ar    1  UNL1       -0.2192
     19 C          -7.4820  -20.3750   21.5330 C.3     1  UNL1        0.1205
     20 C          -3.1921  -19.3715   20.6168 C.ar    1  UNL1        0.1724
     21 C          -3.8685  -20.5002   19.8968 C.ar    1  UNL1        0.0398
     22 C          -5.2985  -20.8348   20.2021 C.ar    1  UNL1        0.0007
     23 C          -6.0521  -20.0405   21.2276 C.ar    1  UNL1        0.0009
     24 C          -5.3756  -18.9118   21.9476 C.ar    1  UNL1        0.0374
     25 C          -3.9457  -18.5773   21.6422 C.ar    1  UNL1        0.1718
     26 C          -1.4394  -17.9579   19.3207 C.3     1  UNL1        0.2526
     27 O          -1.7621  -19.0370   20.3114 O.3     1  UNL1       -0.4684
     28 O          -3.2691  -17.4486   22.3622 O.3     1  UNL1       -0.4761
     29 C          -3.9405  -16.7975   23.5348 C.3     1  UNL1        0.1660
     30 C          -4.6826  -15.4940   23.5140 C.3     1  UNL1        0.0435
     31 C          -5.1884  -15.2264   24.9006 C.3     1  UNL1        0.0038
     32 C          -4.7590  -16.3645   25.7784 C.3     1  UNL1        0.0038
     33 C          -3.9877  -17.3354   24.9343 C.3     1  UNL1        0.0435
@<TRIPOS>BOND
     1    26    27    1
     2    27    20    1
     3    20    21   ar
     4    21    22   ar
     5    22    23   ar
     6    23    19    1
     7    19     1    1
     8     1     2   am
     9     2     3    2
    10     2    13    1
    11    13    14   ar
    12    14    15   ar
    13    15    16    1
    14    15    17   ar
    15    17    18   ar
    16     4     1    1
    17     4     5    1
    18     6     5    1
    19     6     7    1
    20     7     8    1
    21     8     9    1
    22    10     9    1
    23    10    11    1
    24    23    24   ar
    25    24    25   ar
    26    25    28    1
    27    28    29    1
    28    29    30    1
    29    30    31    1
    30    31    32    1
    31    32    33    1
    32    25    20   ar
    33    33    29    1
    34    18    13   ar
    35    11     4    1
    36    10     6    1
    37     8    12    1
@<TRIPOS>MOLECULE
*****
 33 37 0 0 0
SMALL
GASTEIGER

@<TRIPOS>ATOM
      1 N          -6.6675  -19.8690   21.6989 N.am    1  UNL1       -0.2723
      2 C          -5.6873  -20.2985   20.6478 C.2     1  UNL1        0.2685
      3 O          -5.8627  -21.6159   19.9522 O.2     1  UNL1       -0.2682
      4 C          -6.4921  -18.5517   22.3944 C.3     1  UNL1        0.0761
      5 C          -7.5282  -17.4738   22.5158 C.3     1  UNL1        0.0213
      6 C          -6.9262  -16.3369   23.2872 C.3     1  UNL1        0.0188
      7 C          -7.1945  -14.9681   23.8389 C.3     1  UNL1        0.0686
      8 N          -5.9522  -14.4973   24.5353 N.3     1  UNL1       -0.2975
      9 C          -4.9161  -15.5752   24.4139 C.3     1  UNL1        0.0686
     10 C          -5.5180  -16.7121   23.6426 C.3     1  UNL1        0.0188
     11 C          -5.2497  -18.0809   23.0909 C.3     1  UNL1        0.0213
     12 H          -6.1532  -14.3196   25.5193 H       1  UNL1        0.1232
     13 C          -4.5317  -19.4108   20.2924 C.ar    1  UNL1        0.1535
     14 C          -3.1391  -19.5146   20.8398 C.ar    1  UNL1        0.1012
     15 N          -2.3125  -18.4313   20.2128 N.ar    1  UNL1       -0.3057
     16 C          -0.8593  -18.1676   20.4747 C.3     1  UNL1        0.1321
     17 C          -3.1943  -17.6579   19.2778 C.ar    1  UNL1        0.1787
     18 N          -4.5658  -18.2632   19.3270 N.ar    1  UNL1       -0.2192
     19 C          -7.8231  -20.7569   22.0544 C.3     1  UNL1        0.1205
     20 C         -11.4389  -19.0318   24.1037 C.ar    1  UNL1        0.1724
     21 C         -10.4739  -19.8821   24.8754 C.ar    1  UNL1        0.0398
     22 C          -9.2686  -20.4572   24.1923 C.ar    1  UNL1        0.0007
     23 C          -9.0283  -20.1819   22.7374 C.ar    1  UNL1        0.0009
     24 C          -9.9935  -19.3315   21.9657 C.ar    1  UNL1        0.0374
     25 C         -11.1987  -18.7565   22.6489 C.ar    1  UNL1        0.1718
     26 C         -13.8835  -18.1587   23.9961 C.3     1  UNL1        0.2526
     27 O         -12.6442  -18.4567   24.7868 O.3     1  UNL1       -0.4684
     28 O         -12.1638  -17.9061   21.8772 O.3     1  UNL1       -0.4761
     29 C         -11.6523  -16.8395   20.9550 C.3     1  UNL1        0.1660
     30 C         -10.5505  -15.8672   21.2565 C.3     1  UNL1        0.0435
     31 C         -10.3700  -14.9847   20.0571 C.3     1  UNL1        0.0038
     32 C         -11.3602  -15.4114   19.0143 C.3     1  UNL1        0.0038
     33 C         -12.1527  -16.5577   19.5692 C.3     1  UNL1        0.0435
@<TRIPOS>BOND
     1    26    27    1
     2    27    20    1
     3    20    21   ar
     4    21    22   ar
     5    22    23   ar
     6    23    19    1
     7    19     1    1
     8     1     2   am
     9     2     3    2
    10     2    13    1
    11    13    14   ar
    12    14    15   ar
    13    15    16    1
    14    15    17   ar
    15    17    18   ar
    16     4     1    1
    17     4     5    1
    18     6     5    1
    19     6     7    1
    20     7     8    1
    21     8     9    1
    22    10     9    1
    23    10    11    1
    24    23    24   ar
    25    24    25   ar
    26    25    28    1
    27    28    29    1
    28    29    30    1
    29    30    31    1
    30    31    32    1
    31    32    33    1
    32    25    20   ar
    33    33    29    1
    34    18    13   ar
    35    11     4    1
    36    10     6    1
    37     8    12    1
@<TRIPOS>MOLECULE
*****
 33 37 0 0 0
SMALL
GASTEIGER

@<TRIPOS>ATOM
      1 N          -5.6947  -19.6751   21.4005 N.am    1  UNL1       -0.2723
      2 C          -4.4837  -20.1107   20.6301 C.2     1  UNL1        0.2685
      3 O          -4.5737  -21.2721   19.6850 O.2     1  UNL1       -0.2682
      4 C          -5.6047  -18.5138   22.3455 C.3     1  UNL1        0.0761
      5 C          -4.5138  -18.2744   23.3470 C.3     1  UNL1        0.0213
      6 C          -4.8247  -17.0005   24.0754 C.3     1  UNL1        0.0188
      7 C          -4.3425  -16.0654   25.1446 C.3     1  UNL1        0.0686
      8 N          -5.3275  -14.9394   25.2541 N.3     1  UNL1       -0.2975
      9 C          -6.4184  -15.1787   24.2527 C.3     1  UNL1        0.0686
     10 C          -6.1076  -16.4526   23.5243 C.3     1  UNL1        0.0188
     11 C          -6.5897  -17.3877   22.4551 C.3     1  UNL1        0.0213
     12 H          -4.8636  -14.0531   25.0554 H       1  UNL1        0.1232
     13 C          -3.1826  -19.3851   20.8047 C.ar    1  UNL1        0.1535
     14 C          -2.7859  -18.1096   20.1222 C.ar    1  UNL1        0.1012
     15 N          -1.4079  -17.7437   20.5882 N.ar    1  UNL1       -0.3057
     16 C          -0.6227  -16.5398   20.1590 C.3     1  UNL1        0.1321
     17 C          -0.9529  -18.7930   21.5587 C.ar    1  UNL1        0.1787
     18 N          -2.0497  -19.8074   21.6925 N.ar    1  UNL1       -0.2192
     19 C          -6.9959  -20.4008   21.2259 C.3     1  UNL1        0.1205
     20 C         -10.6845  -18.1405   19.9871 C.ar    1  UNL1        0.1724
     21 C          -9.9990  -19.0499   19.0109 C.ar    1  UNL1        0.0398
     22 C          -8.7694  -19.8034   19.4238 C.ar    1  UNL1        0.0007
     23 C          -8.2254  -19.6474   20.8130 C.ar    1  UNL1        0.0009
     24 C          -8.9109  -18.7379   21.7892 C.ar    1  UNL1        0.0374
     25 C         -10.1404  -17.9846   21.3762 C.ar    1  UNL1        0.1718
     26 C         -11.8725  -15.8926   19.4528 C.3     1  UNL1        0.2526
     27 O         -11.9141  -17.3870   19.5742 O.3     1  UNL1       -0.4684
     28 O         -10.8260  -17.0751   22.3524 O.3     1  UNL1       -0.4761
     29 C         -11.9259  -17.6035   23.2248 C.3     1  UNL1        0.1660
     30 C         -13.3879  -17.3001   23.0813 C.3     1  UNL1        0.0435
     31 C         -14.1225  -18.0372   24.1616 C.3     1  UNL1        0.0038
     32 C         -13.1145  -18.7961   24.9728 C.3     1  UNL1        0.0038
     33 C         -11.7569  -18.5280   24.3938 C.3     1  UNL1        0.0435
@<TRIPOS>BOND
     1    26    27    1
     2    27    20    1
     3    20    21   ar
     4    21    22   ar
     5    22    23   ar
     6    23    19    1
     7    19     1    1
     8     1     2   am
     9     2     3    2
    10     2    13    1
    11    13    14   ar
    12    14    15   ar
    13    15    16    1
    14    15    17   ar
    15    17    18   ar
    16     4     1    1
    17     4     5    1
    18     6     5    1
    19     6     7    1
    20     7     8    1
    21     8     9    1
    22    10     9    1
    23    10    11    1
    24    23    24   ar
    25    24    25   ar
    26    25    28    1
    27    28    29    1
    28    29    30    1
    29    30    31    1
    30    31    32    1
    31    32    33    1
    32    25    20   ar
    33    33    29    1
    34    18    13   ar
    35    11     4    1
    36    10     6    1
    37     8    12    1
@<TRIPOS>MOLECULE
*****
 33 37 0 0 0
SMALL
GASTEIGER

@<TRIPOS>ATOM
      1 N           6.9427   -3.2935   22.5059 N.am    1  UNL1       -0.2723
      2 C           6.7861   -3.9128   21.1487 C.2     1  UNL1        0.2685
      3 O           7.7261   -4.9942   20.7047 O.2     1  UNL1       -0.2682
      4 C           6.0028   -2.2122   22.9499 C.3     1  UNL1        0.0761
      5 C           4.6609   -2.4175   23.5881 C.3     1  UNL1        0.0213
      6 C           4.0684   -1.0678   23.8662 C.3     1  UNL1        0.0188
      7 C           2.8730   -0.3606   24.4326 C.3     1  UNL1        0.0686
      8 N           3.1099    1.1160   24.3163 N.3     1  UNL1       -0.2975
      9 C           4.4517    1.3214   23.6780 C.3     1  UNL1        0.0686
     10 C           5.0441   -0.0283   23.3999 C.3     1  UNL1        0.0188
     11 C           6.2396   -0.7355   22.8336 C.3     1  UNL1        0.0213
     12 H           3.0983    1.5424   25.2428 H       1  UNL1        0.1232
     13 C           5.6896   -3.4507   20.2355 C.ar    1  UNL1        0.1535
     14 C           5.7957   -2.3591   19.2122 C.ar    1  UNL1        0.1012
     15 N           4.4661   -2.2328   18.5295 N.ar    1  UNL1       -0.3057
     16 C           4.1244   -1.2633   17.4371 C.3     1  UNL1        0.1321
     17 C           3.5382   -3.2463   19.1309 C.ar    1  UNL1        0.1787
     18 N           4.2943   -3.9989   20.1852 N.ar    1  UNL1       -0.2192
     19 C           8.0393   -3.7556   23.4192 C.3     1  UNL1        0.1205
     20 C           7.4626   -7.4343   25.9460 C.ar    1  UNL1        0.1724
     21 C           8.1939   -7.5287   24.6397 C.ar    1  UNL1        0.0398
     22 C           8.3861   -6.3025   23.7974 C.ar    1  UNL1        0.0007
     23 C           7.8471   -4.9818   24.2614 C.ar    1  UNL1        0.0009
     24 C           7.1158   -4.8874   25.5677 C.ar    1  UNL1        0.0374
     25 C           6.9237   -6.1136   26.4099 C.ar    1  UNL1        0.1718
     26 C           8.4091   -9.1955   27.6049 C.3     1  UNL1        0.2526
     27 O           7.2704   -8.6605   26.7883 O.3     1  UNL1       -0.4684
     28 O           6.1924   -6.0192   27.7163 O.3     1  UNL1       -0.4761
     29 C           6.8928   -5.4869   28.9311 C.3     1  UNL1        0.1660
     30 C           7.9194   -6.2154   29.7471 C.3     1  UNL1        0.0435
     31 C           8.3507   -5.3114   30.8636 C.3     1  UNL1        0.0038
     32 C           7.5909   -4.0242   30.7378 C.3     1  UNL1        0.0038
     33 C           6.6899   -4.1327   29.5434 C.3     1  UNL1        0.0435
@<TRIPOS>BOND
     1    26    27    1
     2    27    20    1
     3    20    21   ar
     4    21    22   ar
     5    22    23   ar
     6    23    19    1
     7    19     1    1
     8     1     2   am
     9     2     3    2
    10     2    13    1
    11    13    14   ar
    12    14    15   ar
    13    15    16    1
    14    15    17   ar
    15    17    18   ar
    16     4     1    1
    17     4     5    1
    18     6     5    1
    19     6     7    1
    20     7     8    1
    21     8     9    1
    22    10     9    1
    23    10    11    1
    24    23    24   ar
    25    24    25   ar
    26    25    28    1
    27    28    29    1
    28    29    30    1
    29    30    31    1
    30    31    32    1
    31    32    33    1
    32    25    20   ar
    33    33    29    1
    34    18    13   ar
    35    11     4    1
    36    10     6    1
    37     8    12    1
@<TRIPOS>MOLECULE
*****
 33 37 0 0 0
SMALL
GASTEIGER

@<TRIPOS>ATOM
      1 N           6.7317   -2.5630   23.5975 N.am    1  UNL1       -0.2723
      2 C           6.1743   -1.4389   24.4196 C.2     1  UNL1        0.2685
      3 O           6.8271   -1.0631   25.7169 O.2     1  UNL1       -0.2682
      4 C           6.0790   -2.9387   22.3004 C.3     1  UNL1        0.0761
      5 C           6.5110   -2.4938   20.9345 C.3     1  UNL1        0.0213
      6 C           5.5786   -3.1056   19.9313 C.3     1  UNL1        0.0188
      7 C           5.2694   -3.2086   18.4671 C.3     1  UNL1        0.0686
      8 N           4.0701   -4.0953   18.3080 N.3     1  UNL1       -0.2975
      9 C           3.6380   -4.5402   19.6738 C.3     1  UNL1        0.0686
     10 C           4.5704   -3.9285   20.6770 C.3     1  UNL1        0.0188
     11 C           4.8796   -3.8255   22.1412 C.3     1  UNL1        0.0213
     12 H           4.3127   -4.9071   17.7401 H       1  UNL1        0.1232
     13 C           4.9643   -0.6907   23.9445 C.ar    1  UNL1        0.1535
     14 C           4.9653    0.4957   23.0266 C.ar    1  UNL1        0.1012
     15 N           3.5424    0.9222   22.8187 N.ar    1  UNL1       -0.3057
     16 C           3.0809    2.0699   21.9703 C.3     1  UNL1        0.1321
     17 C           2.6618   -0.0005   23.6081 C.ar    1  UNL1        0.1787
     18 N           3.5406   -0.9973   24.3039 N.ar    1  UNL1       -0.2192
     19 C           7.9418   -3.3113   24.0727 C.3     1  UNL1        0.1205
     20 C           7.4753   -7.3446   26.0129 C.ar    1  UNL1        0.1724
     21 C           8.0648   -7.2375   24.6377 C.ar    1  UNL1        0.0398
     22 C           8.2203   -5.8931   23.9910 C.ar    1  UNL1        0.0007
     23 C           7.7863   -4.6556   24.7194 C.ar    1  UNL1        0.0009
     24 C           7.1968   -4.7628   26.0946 C.ar    1  UNL1        0.0374
     25 C           7.0413   -6.1072   26.7412 C.ar    1  UNL1        0.1718
     26 C           8.3730   -9.1952   27.6000 C.3     1  UNL1        0.2526
     27 O           7.3197   -8.6890   26.6596 O.3     1  UNL1       -0.4684
     28 O           6.4518   -6.2143   28.1164 O.3     1  UNL1       -0.4761
     29 C           7.2116   -5.6948   29.3007 C.3     1  UNL1        0.1660
     30 C           8.5243   -6.2176   29.8046 C.3     1  UNL1        0.0435
     31 C           8.9162   -5.4072   31.0044 C.3     1  UNL1        0.0038
     32 C           7.8458   -4.3836   31.2422 C.3     1  UNL1        0.0038
     33 C           6.7924   -4.5614   30.1893 C.3     1  UNL1        0.0435
@<TRIPOS>BOND
     1    26    27    1
     2    27    20    1
     3    20    21   ar
     4    21    22   ar
     5    22    23   ar
     6    23    19    1
     7    19     1    1
     8     1     2   am
     9     2     3    2
    10     2    13    1
    11    13    14   ar
    12    14    15   ar
    13    15    16    1
    14    15    17   ar
    15    17    18   ar
    16     4     1    1
    17     4     5    1
    18     6     5    1
    19     6     7    1
    20     7     8    1
    21     8     9    1
    22    10     9    1
    23    10    11    1
    24    23    24   ar
    25    24    25   ar
    26    25    28    1
    27    28    29    1
    28    29    30    1
    29    30    31    1
    30    31    32    1
    31    32    33    1
    32    25    20   ar
    33    33    29    1
    34    18    13   ar
    35    11     4    1
    36    10     6    1
    37     8    12    1
@<TRIPOS>MOLECULE
*****
 33 37 0 0 0
SMALL
GASTEIGER

@<TRIPOS>ATOM
      1 N           7.4536   -4.3615   23.1225 N.am    1  UNL1       -0.2723
      2 C           8.0098   -5.1228   24.2891 C.2     1  UNL1        0.2685
      3 O           8.9234   -6.2896   24.0566 O.2     1  UNL1       -0.2682
      4 C           6.5401   -3.1948   23.3550 C.3     1  UNL1        0.0761
      5 C           6.9637   -1.7706   23.5605 C.3     1  UNL1        0.0213
      6 C           5.7279   -0.9430   23.7554 C.3     1  UNL1        0.0188
      7 C           5.2260    0.4487   24.0029 C.3     1  UNL1        0.0686
      8 N           3.7285    0.3961   24.0708 N.3     1  UNL1       -0.2975
      9 C           3.3049   -1.0281   23.8653 C.3     1  UNL1        0.0686
     10 C           4.5406   -1.8557   23.6704 C.3     1  UNL1        0.0188
     11 C           5.0425   -3.2474   23.4229 C.3     1  UNL1        0.0213
     12 H           3.3280    0.9852   23.3407 H       1  UNL1        0.1232
     13 C           7.6525   -4.7173   25.6883 C.ar    1  UNL1        0.1535
     14 C           8.3356   -3.6574   26.5008 C.ar    1  UNL1        0.1012
     15 N           7.6546   -3.5856   27.8354 N.ar    1  UNL1       -0.3057
     16 C           8.0144   -2.6607   28.9601 C.3     1  UNL1        0.1321
     17 C           6.5507   -4.6010   27.8477 C.ar    1  UNL1        0.1787
     18 N           6.5494   -5.3004   26.5208 N.ar    1  UNL1       -0.2192
     19 C           7.8110   -4.7671   21.7232 C.3     1  UNL1        0.1205
     20 C           7.0460   -1.9495   18.2989 C.ar    1  UNL1        0.1724
     21 C           8.4222   -2.0611   18.8853 C.ar    1  UNL1        0.0398
     22 C           8.6772   -3.0003   20.0267 C.ar    1  UNL1        0.0007
     23 C           7.5560   -3.8280   20.5818 C.ar    1  UNL1        0.0009
     24 C           6.1798   -3.7163   19.9954 C.ar    1  UNL1        0.0374
     25 C           5.9249   -2.7771   18.8541 C.ar    1  UNL1        0.1718
     26 C           6.9713    0.4667   17.3469 C.3     1  UNL1        0.2526
     27 O           6.7910   -1.0103   17.1575 O.3     1  UNL1       -0.4684
     28 O           4.5487   -2.6655   18.2677 O.3     1  UNL1       -0.4761
     29 C           3.5979   -1.6242   18.7789 C.3     1  UNL1        0.1660
     30 C           2.8694   -1.6627   20.0896 C.3     1  UNL1        0.0435
     31 C           2.0298   -0.4238   20.1899 C.3     1  UNL1        0.0038
     32 C           2.2393    0.3805   18.9412 C.3     1  UNL1        0.0038
     33 C           3.2084   -0.3613   18.0692 C.3     1  UNL1        0.0435
@<TRIPOS>BOND
     1    26    27    1
     2    27    20    1
     3    20    21   ar
     4    21    22   ar
     5    22    23   ar
     6    23    19    1
     7    19     1    1
     8     1     2   am
     9     2     3    2
    10     2    13    1
    11    13    14   ar
    12    14    15   ar
    13    15    16    1
    14    15    17   ar
    15    17    18   ar
    16     4     1    1
    17     4     5    1
    18     6     5    1
    19     6     7    1
    20     7     8    1
    21     8     9    1
    22    10     9    1
    23    10    11    1
    24    23    24   ar
    25    24    25   ar
    26    25    28    1
    27    28    29    1
    28    29    30    1
    29    30    31    1
    30    31    32    1
    31    32    33    1
    32    25    20   ar
    33    33    29    1
    34    18    13   ar
    35    11     4    1
    36    10     6    1
    37     8    12    1
@<TRIPOS>MOLECULE
*****
 33 37 0 0 0
SMALL
GASTEIGER

@<TRIPOS>ATOM
      1 N           4.3650    1.8761   32.8815 N.am    1  UNL1       -0.2723
      2 C           5.1276    0.9273   33.7580 C.2     1  UNL1        0.2685
      3 O           5.8822    1.4456   34.9463 O.2     1  UNL1       -0.2682
      4 C           3.6105    1.3577   31.6934 C.3     1  UNL1        0.0761
      5 C           4.2128    0.8922   30.4008 C.3     1  UNL1        0.0213
      6 C           3.0956    0.4606   29.4977 C.3     1  UNL1        0.0188
      7 C           2.7775   -0.0938   28.1407 C.3     1  UNL1        0.0686
      8 N           1.2881   -0.2377   28.0364 N.3     1  UNL1       -0.2975
      9 C           0.6857    0.2277   29.3289 C.3     1  UNL1        0.0686
     10 C           1.8028    0.6593   30.2320 C.3     1  UNL1        0.0188
     11 C           2.1210    1.2137   31.5890 C.3     1  UNL1        0.0213
     12 H           1.0453   -1.2149   27.8735 H       1  UNL1        0.1232
     13 C           5.1357   -0.5399   33.4462 C.ar    1  UNL1        0.1535
     14 C           6.2477   -1.2933   32.7785 C.ar    1  UNL1        0.1012
     15 N           5.8324   -2.7304   32.6670 N.ar    1  UNL1       -0.3057
     16 C           6.6433   -3.8382   32.0628 C.3     1  UNL1        0.1321
     17 C           4.4637   -2.8651   33.2659 C.ar    1  UNL1        0.1787
     18 N           4.0332   -1.5114   33.7474 N.ar    1  UNL1       -0.2192
     19 C           4.3570    3.3433   33.1934 C.3     1  UNL1        0.1205
     20 C           1.2307    5.0410   35.9491 C.ar    1  UNL1        0.1724
     21 C           1.1481    5.2964   34.4734 C.ar    1  UNL1        0.0398
     22 C           2.1902    4.7306   33.5547 C.ar    1  UNL1        0.0007
     23 C           3.3150    3.9092   34.1119 C.ar    1  UNL1        0.0009
     24 C           3.3975    3.6537   35.5878 C.ar    1  UNL1        0.0374
     25 C           2.3554    4.2196   36.5063 C.ar    1  UNL1        0.1718
     26 C          -0.5850    6.8267   36.4634 C.3     1  UNL1        0.2526
     27 O           0.1886    5.6069   36.8677 O.3     1  UNL1       -0.4684
     28 O           2.4380    3.9642   37.9821 O.3     1  UNL1       -0.4761
     29 C           1.9316    2.6711   38.5489 C.3     1  UNL1        0.1660
     30 C           2.6522    1.3557   38.5250 C.3     1  UNL1        0.0435
     31 C           1.7817    0.3379   39.2005 C.3     1  UNL1        0.0038
     32 C           0.5231    1.0243   39.6420 C.3     1  UNL1        0.0038
     33 C           0.6158    2.4662   39.2393 C.3     1  UNL1        0.0435
@<TRIPOS>BOND
     1    26    27    1
     2    27    20    1
     3    20    21   ar
     4    21    22   ar
     5    22    23   ar
     6    23    19    1
     7    19     1    1
     8     1     2   am
     9     2     3    2
    10     2    13    1
    11    13    14   ar
    12    14    15   ar
    13    15    16    1
    14    15    17   ar
    15    17    18   ar
    16     4     1    1
    17     4     5    1
    18     6     5    1
    19     6     7    1
    20     7     8    1
    21     8     9    1
    22    10     9    1
    23    10    11    1
    24    23    24   ar
    25    24    25   ar
    26    25    28    1
    27    28    29    1
    28    29    30    1
    29    30    31    1
    30    31    32    1
    31    32    33    1
    32    25    20   ar
    33    33    29    1
    34    18    13   ar
    35    11     4    1
    36    10     6    1
    37     8    12    1
@<TRIPOS>MOLECULE
*****
 33 37 0 0 0
SMALL
GASTEIGER

@<TRIPOS>ATOM
      1 N           4.5863   -2.5284   21.1622 N.am    1  UNL1       -0.2723
      2 C           5.6832   -2.3897   20.1486 C.2     1  UNL1        0.2685
      3 O           6.8300   -3.3567   20.1472 O.2     1  UNL1       -0.2682
      4 C           3.4396   -1.5615   21.1635 C.3     1  UNL1        0.0761
      5 C           2.3907   -1.4362   20.0986 C.3     1  UNL1        0.0213
      6 C           1.4433   -0.3473   20.5069 C.3     1  UNL1        0.0188
      7 C           0.2095    0.4031   20.1010 C.3     1  UNL1        0.0686
      8 N          -0.0896    1.4146   21.1675 N.3     1  UNL1       -0.2975
      9 C           0.9593    1.2894   22.2325 C.3     1  UNL1        0.0686
     10 C           1.9067    0.2004   21.8242 C.3     1  UNL1        0.0188
     11 C           3.1404   -0.5499   22.2300 C.3     1  UNL1        0.0213
     12 H          -1.0110    1.2349   21.5663 H       1  UNL1        0.1232
     13 C           5.6334   -1.2840   19.1362 C.ar    1  UNL1        0.1535
     14 C           5.9995    0.1503   19.3784 C.ar    1  UNL1        0.1012
     15 N           5.8011    0.9023   18.0957 N.ar    1  UNL1       -0.3057
     16 C           6.0480    2.3667   17.8850 C.3     1  UNL1        0.1321
     17 C           5.3125   -0.0673   17.0608 C.ar    1  UNL1        0.1787
     18 N           5.2088   -1.4185   17.7039 N.ar    1  UNL1       -0.2192
     19 C           4.6361   -3.6342   22.1746 C.3     1  UNL1        0.1205
     20 C           6.9845   -3.1004   25.9759 C.ar    1  UNL1        0.1724
     21 C           5.7842   -2.2414   25.7090 C.ar    1  UNL1        0.0398
     22 C           5.0014   -2.4193   24.4419 C.ar    1  UNL1        0.0007
     23 C           5.4189   -3.4563   23.4417 C.ar    1  UNL1        0.0009
     24 C           6.6193   -4.3153   23.7086 C.ar    1  UNL1        0.0374
     25 C           7.4020   -4.1373   24.9757 C.ar    1  UNL1        0.1718
     26 C           7.2115   -3.4203   28.5442 C.3     1  UNL1        0.2526
     27 O           7.7674   -2.9225   27.2430 O.3     1  UNL1       -0.4684
     28 O           8.6024   -4.9964   25.2427 O.3     1  UNL1       -0.4761
     29 C           8.4699   -6.2286   26.0877 C.3     1  UNL1        0.1660
     30 C           7.7224   -7.4753   25.7176 C.3     1  UNL1        0.0435
     31 C           7.8522   -8.4477   26.8523 C.3     1  UNL1        0.0038
     32 C           8.6799   -7.8020   27.9238 C.3     1  UNL1        0.0038
     33 C           9.0617   -6.4305   27.4512 C.3     1  UNL1        0.0435
@<TRIPOS>BOND
     1    26    27    1
     2    27    20    1
     3    20    21   ar
     4    21    22   ar
     5    22    23   ar
     6    23    19    1
     7    19     1    1
     8     1     2   am
     9     2     3    2
    10     2    13    1
    11    13    14   ar
    12    14    15   ar
    13    15    16    1
    14    15    17   ar
    15    17    18   ar
    16     4     1    1
    17     4     5    1
    18     6     5    1
    19     6     7    1
    20     7     8    1
    21     8     9    1
    22    10     9    1
    23    10    11    1
    24    23    24   ar
    25    24    25   ar
    26    25    28    1
    27    28    29    1
    28    29    30    1
    29    30    31    1
    30    31    32    1
    31    32    33    1
    32    25    20   ar
    33    33    29    1
    34    18    13   ar
    35    11     4    1
    36    10     6    1
    37     8    12    1
