@<TRIPOS>MOLECULE
*****
 37 42 0 0 0
SMALL
GASTEIGER

@<TRIPOS>ATOM
      1 C           6.0662   -2.0064   26.0076 C.ar    1  UNL1        0.0486
      2 C           4.9133   -1.6636   26.9040 C.ar    1  UNL1        0.0146
      3 C           3.6283   -1.1624   26.3147 C.ar    1  UNL1        0.0015
      4 C           3.4960   -1.0039   24.8289 C.ar    1  UNL1        0.0078
      5 C           4.6488   -1.3466   23.9325 C.ar    1  UNL1        0.0896
      6 C           5.9339   -1.8479   24.5219 C.ar    1  UNL1        0.0223
      7 C           4.5165   -1.1881   22.4468 C.2     1  UNL1        0.3753
      8 N           3.2809   -0.7593   21.7124 N.2     1  UNL1       -0.0307
      9 C           3.5974   -0.7368   20.2463 C.2     1  UNL1        0.2363
     10 C           2.7672   -0.3921   19.0455 C.2     1  UNL1        0.0992
     11 C           3.3683   -0.4622   17.6730 C.2     1  UNL1        0.0042
     12 C           4.7995   -0.8771   17.5014 C.2     1  UNL1       -0.0170
     13 C           5.6297   -1.2219   18.7022 C.3     1  UNL1        0.1037
     14 C           5.0286   -1.1517   20.0747 C.2     1  UNL1        0.2179
     15 N           5.5967   -1.4306   21.4346 N.2     1  UNL1       -0.0347
     16 C           1.3360    0.0228   19.2172 C.2     1  UNL1        0.2465
     17 N           0.5236   -0.5357   20.3477 N.am    1  UNL1       -0.3252
     18 O           0.7172    0.9963   18.2584 O.2     1  UNL1       -0.2702
     19 H           0.9298   -1.1747   20.9770 H       1  UNL1        0.1453
     20 H          -0.4157   -0.2634   20.4603 H       1  UNL1        0.1453
     21 N           7.3512   -2.5077   26.5969 N.pl3   1  UNL1       -0.3124
     22 H           8.1729   -1.9718   26.5140 H       1  UNL1        0.1522
     23 C           7.9385   -8.9909   27.2074 C.3     1  UNL1        0.0326
     24 C           7.9053   -7.6732   26.4916 C.ar    1  UNL1       -0.0042
     25 C           8.1160   -7.6203   25.0074 C.ar    1  UNL1       -0.0028
     26 C           8.0829   -6.3025   24.2917 C.ar    1  UNL1       -0.0002
     27 C           7.8390   -5.0376   25.0601 C.ar    1  UNL1        0.0027
     28 C           7.6283   -5.0904   26.5443 C.ar    1  UNL1        0.0308
     29 C           7.3844   -3.8255   27.3127 C.ar    1  UNL1        0.0511
     30 C           7.1737   -3.8783   28.7969 C.ar    1  UNL1        0.0311
     31 C           6.9298   -2.6134   29.5653 C.ar    1  UNL1        0.0027
     32 C           6.7191   -2.6663   31.0495 C.ar    1  UNL1        0.0001
     33 C           6.7522   -3.9841   31.7652 C.ar    1  UNL1        0.0015
     34 C           6.9961   -5.2490   30.9968 C.ar    1  UNL1        0.0191
     35 C           7.2068   -5.1961   29.5127 C.ar    1  UNL1        0.0824
     36 N           7.4507   -6.4611   28.7442 N.ar    1  UNL1       -0.2456
     37 C           7.6614   -6.4082   27.2601 C.ar    1  UNL1        0.0785
@<TRIPOS>BOND
     1    23    24    1
     2    24    25   ar
     3    25    26   ar
     4    26    27   ar
     5    27    28   ar
     6    28    29   ar
     7    29    21    1
     8    21     1    1
     9     1     2   ar
    10     2     3   ar
    11     3     4   ar
    12     4     5   ar
    13     5     7    1
    14     7     8    2
    15     8     9    1
    16     9    10    2
    17    10    16    1
    18    16    17   am
    19    16    18    2
    20    10    11    1
    21    11    12    2
    22    12    13    1
    23    13    14    1
    24    14    15    2
    25     5     6   ar
    26    29    30   ar
    27    30    31   ar
    28    31    32   ar
    29    32    33   ar
    30    33    34   ar
    31    34    35   ar
    32    35    36   ar
    33    36    37   ar
    34    37    24   ar
    35    37    28   ar
    36     6     1   ar
    37    35    30   ar
    38    15     7    1
    39    14     9    1
    40    21    22    1
    41    17    19    1
    42    17    20    1
@<TRIPOS>MOLECULE
*****
 37 42 0 0 0
SMALL
GASTEIGER

@<TRIPOS>ATOM
      1 C          -4.8366  -16.9594   24.0096 C.ar    1  UNL1        0.0486
      2 C          -4.6461  -15.9403   25.0937 C.ar    1  UNL1        0.0146
      3 C          -5.7895  -15.0614   25.5062 C.ar    1  UNL1        0.0015
      4 C          -7.1234  -15.2016   24.8346 C.ar    1  UNL1        0.0078
      5 C          -7.3139  -16.2206   23.7506 C.ar    1  UNL1        0.0896
      6 C          -6.1705  -17.0996   23.3381 C.ar    1  UNL1        0.0223
      7 C          -8.6479  -16.3607   23.0790 C.2     1  UNL1        0.3753
      8 N          -9.8625  -17.0216   23.6602 N.2     1  UNL1       -0.0307
      9 C         -10.9667  -16.9340   22.6487 C.2     1  UNL1        0.2363
     10 C         -12.3880  -17.4129   22.6704 C.2     1  UNL1        0.0992
     11 C         -13.2771  -17.1767   21.4856 C.2     1  UNL1        0.0042
     12 C         -12.7448  -16.4616   20.2792 C.2     1  UNL1       -0.0170
     13 C         -11.3235  -15.9827   20.2576 C.3     1  UNL1        0.1037
     14 C         -10.4345  -16.2189   21.4423 C.2     1  UNL1        0.2179
     15 N          -9.0013  -15.8646   21.7082 N.2     1  UNL1       -0.0347
     16 C         -12.9203  -18.1279   23.8767 C.2     1  UNL1        0.2465
     17 N         -11.9781  -18.8324   24.8074 N.am    1  UNL1       -0.3252
     18 O         -14.3946  -18.1386   24.1525 O.2     1  UNL1       -0.2702
     19 H         -11.0104  -18.8254   24.6264 H       1  UNL1        0.1453
     20 H         -12.3275  -19.3017   25.5992 H       1  UNL1        0.1453
     21 N          -3.6932  -17.8383   23.5972 N.pl3   1  UNL1       -0.3124
     22 H          -3.0256  -18.1222   24.2627 H       1  UNL1        0.1522
     23 C          -1.1408  -18.0542   17.5815 C.3     1  UNL1        0.0326
     24 C          -1.2671  -17.6079   19.0079 C.ar    1  UNL1       -0.0042
     25 C          -0.3066  -16.6002   19.5663 C.ar    1  UNL1       -0.0028
     26 C          -0.4328  -16.1539   20.9928 C.ar    1  UNL1       -0.0002
     27 C          -1.5196  -16.7153   21.8609 C.ar    1  UNL1        0.0027
     28 C          -2.4802  -17.7231   21.3026 C.ar    1  UNL1        0.0308
     29 C          -3.5670  -18.2846   22.1707 C.ar    1  UNL1        0.0511
     30 C          -4.5275  -19.2924   21.6123 C.ar    1  UNL1        0.0311
     31 C          -5.6143  -19.8538   22.4804 C.ar    1  UNL1        0.0027
     32 C          -6.5748  -20.8616   21.9220 C.ar    1  UNL1        0.0001
     33 C          -6.4485  -21.3079   20.4955 C.ar    1  UNL1        0.0015
     34 C          -5.3618  -20.7464   19.6274 C.ar    1  UNL1        0.0191
     35 C          -4.4013  -19.7387   20.1858 C.ar    1  UNL1        0.0824
     36 N          -3.3144  -19.1772   19.3177 N.ar    1  UNL1       -0.2456
     37 C          -2.3539  -18.1694   19.8761 C.ar    1  UNL1        0.0785
@<TRIPOS>BOND
     1    23    24    1
     2    24    25   ar
     3    25    26   ar
     4    26    27   ar
     5    27    28   ar
     6    28    29   ar
     7    29    21    1
     8    21     1    1
     9     1     2   ar
    10     2     3   ar
    11     3     4   ar
    12     4     5   ar
    13     5     7    1
    14     7     8    2
    15     8     9    1
    16     9    10    2
    17    10    16    1
    18    16    17   am
    19    16    18    2
    20    10    11    1
    21    11    12    2
    22    12    13    1
    23    13    14    1
    24    14    15    2
    25     5     6   ar
    26    29    30   ar
    27    30    31   ar
    28    31    32   ar
    29    32    33   ar
    30    33    34   ar
    31    34    35   ar
    32    35    36   ar
    33    36    37   ar
    34    37    24   ar
    35    37    28   ar
    36     6     1   ar
    37    35    30   ar
    38    15     7    1
    39    14     9    1
    40    21    22    1
    41    17    19    1
    42    17    20    1
@<TRIPOS>MOLECULE
*****
 37 42 0 0 0
SMALL
GASTEIGER

@<TRIPOS>ATOM
      1 C           6.0606   -1.8638   25.8192 C.ar    1  UNL1        0.0486
      2 C           4.9136   -1.5395   26.7298 C.ar    1  UNL1        0.0146
      3 C           3.6186   -1.0441   26.1577 C.ar    1  UNL1        0.0015
      4 C           3.4704   -0.8729   24.6749 C.ar    1  UNL1        0.0078
      5 C           4.6174   -1.1972   23.7642 C.ar    1  UNL1        0.0896
      6 C           5.9125   -1.6927   24.3363 C.ar    1  UNL1        0.0223
      7 C           4.4692   -1.0261   22.2814 C.2     1  UNL1        0.3753
      8 N           3.2225   -0.6024   21.5629 N.2     1  UNL1       -0.0307
      9 C           3.5246   -0.5630   20.0941 C.2     1  UNL1        0.2363
     10 C           2.6796   -0.2152   18.9046 C.2     1  UNL1        0.0992
     11 C           3.2680   -0.2666   17.5259 C.2     1  UNL1        0.0042
     12 C           4.7015   -0.6660   17.3366 C.2     1  UNL1       -0.0170
     13 C           5.5464   -1.0139   18.5261 C.3     1  UNL1        0.1037
     14 C           4.9580   -0.9624   19.9049 C.2     1  UNL1        0.2179
     15 N           5.5419   -1.2486   21.2566 N.2     1  UNL1       -0.0347
     16 C           1.2462    0.1842   19.0939 C.2     1  UNL1        0.2465
     17 N           0.4513   -0.3899   20.2290 N.am    1  UNL1       -0.3252
     18 O           0.6077    1.1577   18.1481 O.2     1  UNL1       -0.2702
     19 H           0.8703   -1.0289   20.8498 H       1  UNL1        0.1453
     20 H          -0.4895   -0.1278   20.3532 H       1  UNL1        0.1453
     21 N           7.3556   -2.3593   26.3913 N.pl3   1  UNL1       -0.3124
     22 H           8.1859   -1.8516   26.2421 H       1  UNL1        0.1522
     23 C           7.1426   -6.0667   31.7727 C.3     1  UNL1        0.0326
     24 C           7.1125   -4.7979   30.9732 C.ar    1  UNL1       -0.0042
     25 C           6.9307   -3.4795   31.6652 C.ar    1  UNL1       -0.0028
     26 C           6.9006   -2.2107   30.8658 C.ar    1  UNL1       -0.0002
     27 C           7.0523   -2.2602   29.3743 C.ar    1  UNL1        0.0027
     28 C           7.2341   -3.5786   28.6822 C.ar    1  UNL1        0.0308
     29 C           7.3857   -3.6281   27.1908 C.ar    1  UNL1        0.0511
     30 C           7.5675   -4.9465   26.4987 C.ar    1  UNL1        0.0311
     31 C           7.7191   -4.9960   25.0072 C.ar    1  UNL1        0.0027
     32 C           7.9009   -6.3143   24.3152 C.ar    1  UNL1        0.0001
     33 C           7.9310   -7.5832   25.1147 C.ar    1  UNL1        0.0015
     34 C           7.7793   -7.5337   26.6062 C.ar    1  UNL1        0.0191
     35 C           7.5976   -6.2153   27.2982 C.ar    1  UNL1        0.0824
     36 N           7.4459   -6.1658   28.7897 N.ar    1  UNL1       -0.2456
     37 C           7.2641   -4.8474   29.4817 C.ar    1  UNL1        0.0785
@<TRIPOS>BOND
     1    23    24    1
     2    24    25   ar
     3    25    26   ar
     4    26    27   ar
     5    27    28   ar
     6    28    29   ar
     7    29    21    1
     8    21     1    1
     9     1     2   ar
    10     2     3   ar
    11     3     4   ar
    12     4     5   ar
    13     5     7    1
    14     7     8    2
    15     8     9    1
    16     9    10    2
    17    10    16    1
    18    16    17   am
    19    16    18    2
    20    10    11    1
    21    11    12    2
    22    12    13    1
    23    13    14    1
    24    14    15    2
    25     5     6   ar
    26    29    30   ar
    27    30    31   ar
    28    31    32   ar
    29    32    33   ar
    30    33    34   ar
    31    34    35   ar
    32    35    36   ar
    33    36    37   ar
    34    37    24   ar
    35    37    28   ar
    36     6     1   ar
    37    35    30   ar
    38    15     7    1
    39    14     9    1
    40    21    22    1
    41    17    19    1
    42    17    20    1
@<TRIPOS>MOLECULE
*****
 37 42 0 0 0
SMALL
GASTEIGER

@<TRIPOS>ATOM
      1 C           5.9681   -1.9180   26.2579 C.ar    1  UNL1        0.0486
      2 C           4.8706   -1.5695   27.2193 C.ar    1  UNL1        0.0146
      3 C           3.5610   -1.0487   26.7057 C.ar    1  UNL1        0.0015
      4 C           3.3489   -0.8762   25.2308 C.ar    1  UNL1        0.0078
      5 C           4.4463   -1.2246   24.2695 C.ar    1  UNL1        0.0896
      6 C           5.7560   -1.7455   24.7830 C.ar    1  UNL1        0.0223
      7 C           4.2342   -1.0522   22.7946 C.2     1  UNL1        0.3753
      8 N           5.0416   -1.6957   21.7065 N.2     1  UNL1       -0.0307
      9 C           4.4839   -1.2472   20.3883 C.2     1  UNL1        0.2363
     10 C           4.8763   -1.5582   18.9744 C.2     1  UNL1        0.0992
     11 C           4.1165   -0.9485   17.8338 C.2     1  UNL1        0.0042
     12 C           2.9644   -0.0277   18.1072 C.2     1  UNL1       -0.0170
     13 C           2.5720    0.2833   19.5211 C.3     1  UNL1        0.1037
     14 C           3.3317   -0.3264   20.6617 C.2     1  UNL1        0.2179
     15 N           3.1774   -0.2059   22.1488 N.2     1  UNL1       -0.0347
     16 C           6.0284   -2.4790   18.7010 C.2     1  UNL1        0.2465
     17 N           6.3426   -3.5915   19.6568 N.am    1  UNL1       -0.3252
     18 O           6.8664   -2.2873   17.4718 O.2     1  UNL1       -0.2702
     19 H           5.7926   -3.7173   20.4636 H       1  UNL1        0.1453
     20 H           7.0988   -4.1958   19.4774 H       1  UNL1        0.1453
     21 N           7.2776   -2.4389   26.7714 N.pl3   1  UNL1       -0.3124
     22 H           8.0972   -1.9047   26.6611 H       1  UNL1        0.1522
     23 C           7.9308   -8.9300   27.2057 C.3     1  UNL1        0.0326
     24 C           7.8700   -7.5952   26.5241 C.ar    1  UNL1       -0.0042
     25 C           8.0445   -7.5038   25.0371 C.ar    1  UNL1       -0.0028
     26 C           7.9836   -6.1691   24.3554 C.ar    1  UNL1       -0.0002
     27 C           7.7483   -4.9257   25.1607 C.ar    1  UNL1        0.0027
     28 C           7.5738   -5.0170   26.6478 C.ar    1  UNL1        0.0308
     29 C           7.3385   -3.7736   27.4531 C.ar    1  UNL1        0.0511
     30 C           7.1640   -3.8650   28.9402 C.ar    1  UNL1        0.0311
     31 C           6.9286   -2.6216   29.7455 C.ar    1  UNL1        0.0027
     32 C           6.7541   -2.7130   31.2325 C.ar    1  UNL1        0.0001
     33 C           6.8150   -4.0478   31.9141 C.ar    1  UNL1        0.0015
     34 C           7.0503   -5.2912   31.1088 C.ar    1  UNL1        0.0191
     35 C           7.2248   -5.1998   29.6218 C.ar    1  UNL1        0.0824
     36 N           7.4602   -6.4432   28.8164 N.ar    1  UNL1       -0.2456
     37 C           7.6346   -6.3518   27.3295 C.ar    1  UNL1        0.0785
@<TRIPOS>BOND
     1    23    24    1
     2    24    25   ar
     3    25    26   ar
     4    26    27   ar
     5    27    28   ar
     6    28    29   ar
     7    29    21    1
     8    21     1    1
     9     1     2   ar
    10     2     3   ar
    11     3     4   ar
    12     4     5   ar
    13     5     7    1
    14     7     8    2
    15     8     9    1
    16     9    10    2
    17    10    16    1
    18    16    17   am
    19    16    18    2
    20    10    11    1
    21    11    12    2
    22    12    13    1
    23    13    14    1
    24    14    15    2
    25     5     6   ar
    26    29    30   ar
    27    30    31   ar
    28    31    32   ar
    29    32    33   ar
    30    33    34   ar
    31    34    35   ar
    32    35    36   ar
    33    36    37   ar
    34    37    24   ar
    35    37    28   ar
    36     6     1   ar
    37    35    30   ar
    38    15     7    1
    39    14     9    1
    40    21    22    1
    41    17    19    1
    42    17    20    1
@<TRIPOS>MOLECULE
*****
 37 42 0 0 0
SMALL
GASTEIGER

@<TRIPOS>ATOM
      1 C           4.3910   -0.5938   24.5953 C.ar    1  UNL1        0.0486
      2 C           3.5125   -0.5710   23.3796 C.ar    1  UNL1        0.0146
      3 C           3.5766   -1.6936   22.3867 C.ar    1  UNL1        0.0015
      4 C           4.5193   -2.8389   22.6095 C.ar    1  UNL1        0.0078
      5 C           5.3977   -2.8618   23.8251 C.ar    1  UNL1        0.0896
      6 C           5.3336   -1.7392   24.8180 C.ar    1  UNL1        0.0223
      7 C           6.3404   -4.0071   24.0478 C.2     1  UNL1        0.3753
      8 N           6.7133   -4.5967   25.3757 N.2     1  UNL1       -0.0307
      9 C           7.6790   -5.7180   25.1303 C.2     1  UNL1        0.2363
     10 C           8.3833   -6.6581   26.0630 C.2     1  UNL1        0.0992
     11 C           9.3116   -7.7017   25.5161 C.2     1  UNL1        0.0042
     12 C           9.5356   -7.8051   24.0365 C.2     1  UNL1       -0.0170
     13 C           8.8312   -6.8650   23.1039 C.3     1  UNL1        0.1037
     14 C           7.9029   -5.8214   23.6508 C.2     1  UNL1        0.2179
     15 N           7.0756   -4.7640   22.9816 N.2     1  UNL1       -0.0347
     16 C           8.1594   -6.5547   27.5426 C.2     1  UNL1        0.2465
     17 N           6.7662   -6.4251   28.0830 N.am    1  UNL1       -0.3252
     18 O           9.3287   -6.5808   28.4817 O.2     1  UNL1       -0.2702
     19 H           5.9987   -6.4080   27.4666 H       1  UNL1        0.1453
     20 H           6.6192   -6.3572   29.0541 H       1  UNL1        0.1453
     21 N           4.3269    0.5287   25.5881 N.pl3   1  UNL1       -0.3124
     22 H           4.7221    1.4032   25.3685 H       1  UNL1        0.1522
     23 C           3.9152   -1.1276   31.8998 C.3     1  UNL1        0.0326
     24 C           4.5815   -0.9177   30.5724 C.ar    1  UNL1       -0.0042
     25 C           6.0415   -1.2210   30.4098 C.ar    1  UNL1       -0.0028
     26 C           6.7078   -1.0111   29.0824 C.ar    1  UNL1       -0.0002
     27 C           5.9142   -0.4979   27.9176 C.ar    1  UNL1        0.0027
     28 C           4.4542   -0.1945   28.0802 C.ar    1  UNL1        0.0308
     29 C           3.6606    0.3188   26.9155 C.ar    1  UNL1        0.0511
     30 C           2.2005    0.6222   27.0781 C.ar    1  UNL1        0.0311
     31 C           1.4069    1.1354   25.9133 C.ar    1  UNL1        0.0027
     32 C          -0.0530    1.4388   26.0759 C.ar    1  UNL1        0.0001
     33 C          -0.7194    1.2289   27.4033 C.ar    1  UNL1        0.0015
     34 C           0.0742    0.7156   28.5681 C.ar    1  UNL1        0.0191
     35 C           1.5342    0.4123   28.4054 C.ar    1  UNL1        0.0824
     36 N           2.3279   -0.1010   29.5702 N.ar    1  UNL1       -0.2456
     37 C           3.7878   -0.4044   29.4076 C.ar    1  UNL1        0.0785
@<TRIPOS>BOND
     1    23    24    1
     2    24    25   ar
     3    25    26   ar
     4    26    27   ar
     5    27    28   ar
     6    28    29   ar
     7    29    21    1
     8    21     1    1
     9     1     2   ar
    10     2     3   ar
    11     3     4   ar
    12     4     5   ar
    13     5     7    1
    14     7     8    2
    15     8     9    1
    16     9    10    2
    17    10    16    1
    18    16    17   am
    19    16    18    2
    20    10    11    1
    21    11    12    2
    22    12    13    1
    23    13    14    1
    24    14    15    2
    25     5     6   ar
    26    29    30   ar
    27    30    31   ar
    28    31    32   ar
    29    32    33   ar
    30    33    34   ar
    31    34    35   ar
    32    35    36   ar
    33    36    37   ar
    34    37    24   ar
    35    37    28   ar
    36     6     1   ar
    37    35    30   ar
    38    15     7    1
    39    14     9    1
    40    21    22    1
    41    17    19    1
    42    17    20    1
@<TRIPOS>MOLECULE
*****
 37 42 0 0 0
SMALL
GASTEIGER

@<TRIPOS>ATOM
      1 C           4.7535   -0.2473   24.7647 C.ar    1  UNL1        0.0486
      2 C           3.7598    0.4413   25.6528 C.ar    1  UNL1        0.0146
      3 C           3.5798   -0.0134   27.0708 C.ar    1  UNL1        0.0015
      4 C           4.3934   -1.1567   27.6008 C.ar    1  UNL1        0.0078
      5 C           5.3870   -1.8453   26.7129 C.ar    1  UNL1        0.0896
      6 C           5.5671   -1.3906   25.2948 C.ar    1  UNL1        0.0223
      7 C           6.2007   -2.9886   27.2429 C.2     1  UNL1        0.3753
      8 N           6.1715   -3.5151   28.6472 N.2     1  UNL1       -0.0307
      9 C           7.1391   -4.6580   28.7340 C.2     1  UNL1        0.2363
     10 C           7.5301   -5.5581   29.8683 C.2     1  UNL1        0.0992
     11 C           8.5482   -6.6382   29.6520 C.2     1  UNL1        0.0042
     12 C           9.1754   -6.8180   28.3013 C.2     1  UNL1       -0.0170
     13 C           8.7844   -5.9179   27.1670 C.3     1  UNL1        0.1037
     14 C           7.7663   -4.8379   27.3833 C.2     1  UNL1        0.2179
     15 N           7.1863   -3.8061   26.4617 N.2     1  UNL1       -0.0347
     16 C           6.9029   -5.3783   31.2190 C.2     1  UNL1        0.2465
     17 N           6.3423   -4.0442   31.6139 N.am    1  UNL1       -0.3252
     18 O           6.8363   -6.5324   32.1747 O.2     1  UNL1       -0.2702
     19 H           6.3860   -3.2867   30.9867 H       1  UNL1        0.1453
     20 H           5.9307   -3.9262   32.5004 H       1  UNL1        0.1453
     21 N           4.9335    0.2073   23.3467 N.pl3   1  UNL1       -0.3124
     22 H           5.4460    1.0254   23.1534 H       1  UNL1        0.1522
     23 C           4.6689   -4.4305   18.7456 C.3     1  UNL1        0.0326
     24 C           5.2697   -3.6388   19.8691 C.ar    1  UNL1       -0.0042
     25 C           6.6395   -3.9786   20.3772 C.ar    1  UNL1       -0.0028
     26 C           7.2403   -3.1869   21.5007 C.ar    1  UNL1       -0.0002
     27 C           6.4714   -2.0555   22.1160 C.ar    1  UNL1        0.0027
     28 C           5.1016   -1.7157   21.6079 C.ar    1  UNL1        0.0308
     29 C           4.3327   -0.5843   22.2232 C.ar    1  UNL1        0.0511
     30 C           2.9628   -0.2446   21.7151 C.ar    1  UNL1        0.0311
     31 C           2.1939    0.8868   22.3304 C.ar    1  UNL1        0.0027
     32 C           0.8241    1.2266   21.8222 C.ar    1  UNL1        0.0001
     33 C           0.2233    0.4349   20.6987 C.ar    1  UNL1        0.0015
     34 C           0.9922   -0.6965   20.0834 C.ar    1  UNL1        0.0191
     35 C           2.3620   -1.0362   20.5916 C.ar    1  UNL1        0.0824
     36 N           3.1309   -2.1677   19.9762 N.ar    1  UNL1       -0.2456
     37 C           4.5007   -2.5074   20.4844 C.ar    1  UNL1        0.0785
@<TRIPOS>BOND
     1    23    24    1
     2    24    25   ar
     3    25    26   ar
     4    26    27   ar
     5    27    28   ar
     6    28    29   ar
     7    29    21    1
     8    21     1    1
     9     1     2   ar
    10     2     3   ar
    11     3     4   ar
    12     4     5   ar
    13     5     7    1
    14     7     8    2
    15     8     9    1
    16     9    10    2
    17    10    16    1
    18    16    17   am
    19    16    18    2
    20    10    11    1
    21    11    12    2
    22    12    13    1
    23    13    14    1
    24    14    15    2
    25     5     6   ar
    26    29    30   ar
    27    30    31   ar
    28    31    32   ar
    29    32    33   ar
    30    33    34   ar
    31    34    35   ar
    32    35    36   ar
    33    36    37   ar
    34    37    24   ar
    35    37    28   ar
    36     6     1   ar
    37    35    30   ar
    38    15     7    1
    39    14     9    1
    40    21    22    1
    41    17    19    1
    42    17    20    1
@<TRIPOS>MOLECULE
*****
 37 42 0 0 0
SMALL
GASTEIGER

@<TRIPOS>ATOM
      1 C           3.6305   -0.1256   24.5100 C.ar    1  UNL1        0.0486
      2 C           4.3164    1.1635   24.1667 C.ar    1  UNL1        0.0146
      3 C           5.4193    1.6822   25.0410 C.ar    1  UNL1        0.0015
      4 C           5.8365    0.9118   26.2585 C.ar    1  UNL1        0.0078
      5 C           5.1507   -0.3772   26.6018 C.ar    1  UNL1        0.0896
      6 C           4.0477   -0.8960   25.7275 C.ar    1  UNL1        0.0223
      7 C           5.5679   -1.1476   27.8194 C.2     1  UNL1        0.3753
      8 N           5.9018   -2.6092   27.8664 N.2     1  UNL1       -0.0307
      9 C           6.2646   -2.9566   29.2798 C.2     1  UNL1        0.2363
     10 C           6.6807   -4.2472   29.9210 C.2     1  UNL1        0.0992
     11 C           6.9872   -4.2909   31.3887 C.2     1  UNL1        0.0042
     12 C           6.8774   -3.0440   32.2152 C.2     1  UNL1       -0.0170
     13 C           6.4613   -1.7534   31.5741 C.3     1  UNL1        0.1037
     14 C           6.1549   -1.7097   30.1064 C.2     1  UNL1        0.2179
     15 N           5.7243   -0.5916   29.2038 N.2     1  UNL1       -0.0347
     16 C           6.7905   -5.4941   29.0945 C.2     1  UNL1        0.2465
     17 N           5.8231   -5.7392   27.9746 N.am    1  UNL1       -0.3252
     18 O           7.8675   -6.4960   29.3878 O.2     1  UNL1       -0.2702
     19 H           5.1161   -5.0816   27.7821 H       1  UNL1        0.1453
     20 H           5.8951   -6.5576   27.4322 H       1  UNL1        0.1453
     21 N           2.5276   -0.6443   23.6357 N.pl3   1  UNL1       -0.3124
     22 H           1.6526   -0.8679   24.0276 H       1  UNL1        0.1522
     23 C           5.2135   -3.1970   18.2486 C.3     1  UNL1        0.0326
     24 C           4.9833   -3.0189   19.7201 C.ar    1  UNL1       -0.0042
     25 C           5.7506   -3.8498   20.7053 C.ar    1  UNL1       -0.0028
     26 C           5.5204   -3.6716   22.1768 C.ar    1  UNL1       -0.0002
     27 C           4.5228   -2.6626   22.6631 C.ar    1  UNL1        0.0027
     28 C           3.7554   -1.8316   21.6779 C.ar    1  UNL1        0.0308
     29 C           2.7578   -0.8225   22.1642 C.ar    1  UNL1        0.0511
     30 C           1.9903    0.0085   21.1790 C.ar    1  UNL1        0.0311
     31 C           0.9928    1.0176   21.6653 C.ar    1  UNL1        0.0027
     32 C           0.2254    1.8485   20.6801 C.ar    1  UNL1        0.0001
     33 C           0.4556    1.6703   19.2086 C.ar    1  UNL1        0.0015
     34 C           1.4532    0.6613   18.7223 C.ar    1  UNL1        0.0191
     35 C           2.2206   -0.1697   19.7075 C.ar    1  UNL1        0.0824
     36 N           3.2182   -1.1788   19.2212 N.ar    1  UNL1       -0.2456
     37 C           3.9856   -2.0097   20.2064 C.ar    1  UNL1        0.0785
@<TRIPOS>BOND
     1    23    24    1
     2    24    25   ar
     3    25    26   ar
     4    26    27   ar
     5    27    28   ar
     6    28    29   ar
     7    29    21    1
     8    21     1    1
     9     1     2   ar
    10     2     3   ar
    11     3     4   ar
    12     4     5   ar
    13     5     7    1
    14     7     8    2
    15     8     9    1
    16     9    10    2
    17    10    16    1
    18    16    17   am
    19    16    18    2
    20    10    11    1
    21    11    12    2
    22    12    13    1
    23    13    14    1
    24    14    15    2
    25     5     6   ar
    26    29    30   ar
    27    30    31   ar
    28    31    32   ar
    29    32    33   ar
    30    33    34   ar
    31    34    35   ar
    32    35    36   ar
    33    36    37   ar
    34    37    24   ar
    35    37    28   ar
    36     6     1   ar
    37    35    30   ar
    38    15     7    1
    39    14     9    1
    40    21    22    1
    41    17    19    1
    42    17    20    1
@<TRIPOS>MOLECULE
*****
 37 42 0 0 0
SMALL
GASTEIGER

@<TRIPOS>ATOM
      1 C           2.0768    1.3330   24.4847 C.ar    1  UNL1        0.0486
      2 C           0.5996    1.4783   24.2685 C.ar    1  UNL1        0.0146
      3 C          -0.3446    1.3441   25.4262 C.ar    1  UNL1        0.0015
      4 C           0.1883    1.0645   26.8002 C.ar    1  UNL1        0.0078
      5 C           1.6654    0.9192   27.0164 C.ar    1  UNL1        0.0896
      6 C           2.6098    1.0534   25.8587 C.ar    1  UNL1        0.0223
      7 C           2.1984    0.6396   28.3904 C.2     1  UNL1        0.3753
      8 N           1.7790    1.3275   29.6557 N.2     1  UNL1       -0.0307
      9 C           2.5657    0.7361   30.7876 C.2     1  UNL1        0.2363
     10 C           2.5743    1.0208   32.2603 C.2     1  UNL1        0.0992
     11 C           3.4887    0.2519   33.1674 C.2     1  UNL1        0.0042
     12 C           4.3943   -0.8016   32.6017 C.2     1  UNL1       -0.0170
     13 C           4.3856   -1.0862   31.1290 C.3     1  UNL1        0.1037
     14 C           3.4713   -0.3174   30.2220 C.2     1  UNL1        0.2179
     15 N           3.2444   -0.3771   28.7404 N.2     1  UNL1       -0.0347
     16 C           1.6687    2.0743   32.8259 C.2     1  UNL1        0.2465
     17 N           0.4318    2.4792   32.0802 N.am    1  UNL1       -0.3252
     18 O           1.9999    2.7228   34.1373 O.2     1  UNL1       -0.2702
     19 H           0.2144    2.0536   31.2196 H       1  UNL1        0.1453
     20 H          -0.1626    3.1707   32.4515 H       1  UNL1        0.1453
     21 N           3.0211    1.4672   23.3270 N.pl3   1  UNL1       -0.3124
     22 H           3.7260    2.1542   23.3438 H       1  UNL1        0.1522
     23 C           3.8097   -4.0283   19.8732 C.3     1  UNL1        0.0326
     24 C           3.9394   -3.1156   21.0565 C.ar    1  UNL1       -0.0042
     25 C           4.6580   -3.5817   22.2879 C.ar    1  UNL1       -0.0028
     26 C           4.7877   -2.6690   23.4712 C.ar    1  UNL1       -0.0002
     27 C           4.1988   -1.2903   23.4232 C.ar    1  UNL1        0.0027
     28 C           3.4802   -0.8242   22.1917 C.ar    1  UNL1        0.0308
     29 C           2.8914    0.5545   22.1437 C.ar    1  UNL1        0.0511
     30 C           2.1727    1.0206   20.9122 C.ar    1  UNL1        0.0311
     31 C           1.5839    2.3994   20.8641 C.ar    1  UNL1        0.0027
     32 C           0.8653    2.8654   19.6327 C.ar    1  UNL1        0.0001
     33 C           0.7356    1.9528   18.4494 C.ar    1  UNL1        0.0015
     34 C           1.3244    0.5741   18.4975 C.ar    1  UNL1        0.0191
     35 C           2.0430    0.1080   19.7289 C.ar    1  UNL1        0.0824
     36 N           2.6319   -1.2708   19.7770 N.ar    1  UNL1       -0.2456
     37 C           3.3505   -1.7368   21.0084 C.ar    1  UNL1        0.0785
@<TRIPOS>BOND
     1    23    24    1
     2    24    25   ar
     3    25    26   ar
     4    26    27   ar
     5    27    28   ar
     6    28    29   ar
     7    29    21    1
     8    21     1    1
     9     1     2   ar
    10     2     3   ar
    11     3     4   ar
    12     4     5   ar
    13     5     7    1
    14     7     8    2
    15     8     9    1
    16     9    10    2
    17    10    16    1
    18    16    17   am
    19    16    18    2
    20    10    11    1
    21    11    12    2
    22    12    13    1
    23    13    14    1
    24    14    15    2
    25     5     6   ar
    26    29    30   ar
    27    30    31   ar
    28    31    32   ar
    29    32    33   ar
    30    33    34   ar
    31    34    35   ar
    32    35    36   ar
    33    36    37   ar
    34    37    24   ar
    35    37    28   ar
    36     6     1   ar
    37    35    30   ar
    38    15     7    1
    39    14     9    1
    40    21    22    1
    41    17    19    1
    42    17    20    1
@<TRIPOS>MOLECULE
*****
 37 42 0 0 0
SMALL
GASTEIGER

@<TRIPOS>ATOM
      1 C           5.1618   -0.6090   25.8749 C.ar    1  UNL1        0.0486
      2 C           5.7759   -1.9061   26.3114 C.ar    1  UNL1        0.0146
      3 C           6.1029   -2.9604   25.2957 C.ar    1  UNL1        0.0015
      4 C           5.8157   -2.7177   23.8436 C.ar    1  UNL1        0.0078
      5 C           5.2016   -1.4207   23.4072 C.ar    1  UNL1        0.0896
      6 C           4.8746   -0.3663   24.4228 C.ar    1  UNL1        0.0223
      7 C           4.9144   -1.1779   21.9551 C.2     1  UNL1        0.3753
      8 N           3.5906   -0.7801   21.3726 N.2     1  UNL1       -0.0307
      9 C           3.7586   -0.6467   19.8880 C.2     1  UNL1        0.2363
     10 C           2.7960   -0.2789   18.7980 C.2     1  UNL1        0.0992
     11 C           3.2612   -0.2263   17.3730 C.2     1  UNL1        0.0042
     12 C           4.6889   -0.5417   17.0379 C.2     1  UNL1       -0.0170
     13 C           5.6514   -0.9096   18.1279 C.3     1  UNL1        0.1037
     14 C           5.1863   -0.9621   19.5529 C.2     1  UNL1        0.2179
     15 N           5.9006   -1.2904   20.8304 N.2     1  UNL1       -0.0347
     16 C           1.3684    0.0365   19.1331 C.2     1  UNL1        0.2465
     17 N           0.6880   -0.6771   20.2634 N.am    1  UNL1       -0.3252
     18 O           0.6210    1.0656   18.3378 O.2     1  UNL1       -0.2702
     19 H           1.1785   -1.3525   20.7854 H       1  UNL1        0.1453
     20 H          -0.2490   -0.4701   20.4834 H       1  UNL1        0.1453
     21 N           4.8348    0.4453   26.8905 N.pl3   1  UNL1       -0.3124
     22 H           5.3329    1.2944   26.8964 H       1  UNL1        0.1522
     23 C          -1.2782    0.3195   29.2069 C.3     1  UNL1        0.0326
     24 C          -0.1923    0.5590   28.2002 C.ar    1  UNL1       -0.0042
     25 C          -0.5341    1.0948   26.8415 C.ar    1  UNL1       -0.0028
     26 C           0.5517    1.3343   25.8348 C.ar    1  UNL1       -0.0002
     27 C           1.9794    1.0380   26.1867 C.ar    1  UNL1        0.0027
     28 C           2.3213    0.5021   27.5454 C.ar    1  UNL1        0.0308
     29 C           3.7489    0.2058   27.8973 C.ar    1  UNL1        0.0511
     30 C           4.0908   -0.3301   29.2560 C.ar    1  UNL1        0.0311
     31 C           5.5185   -0.6264   29.6079 C.ar    1  UNL1        0.0027
     32 C           5.8603   -1.1623   30.9666 C.ar    1  UNL1        0.0001
     33 C           4.7745   -1.4018   31.9733 C.ar    1  UNL1        0.0015
     34 C           3.3468   -1.1055   31.6214 C.ar    1  UNL1        0.0191
     35 C           3.0050   -0.5696   30.2628 C.ar    1  UNL1        0.0824
     36 N           1.5772   -0.2732   29.9108 N.ar    1  UNL1       -0.2456
     37 C           1.2354    0.2626   28.5521 C.ar    1  UNL1        0.0785
@<TRIPOS>BOND
     1    23    24    1
     2    24    25   ar
     3    25    26   ar
     4    26    27   ar
     5    27    28   ar
     6    28    29   ar
     7    29    21    1
     8    21     1    1
     9     1     2   ar
    10     2     3   ar
    11     3     4   ar
    12     4     5   ar
    13     5     7    1
    14     7     8    2
    15     8     9    1
    16     9    10    2
    17    10    16    1
    18    16    17   am
    19    16    18    2
    20    10    11    1
    21    11    12    2
    22    12    13    1
    23    13    14    1
    24    14    15    2
    25     5     6   ar
    26    29    30   ar
    27    30    31   ar
    28    31    32   ar
    29    32    33   ar
    30    33    34   ar
    31    34    35   ar
    32    35    36   ar
    33    36    37   ar
    34    37    24   ar
    35    37    28   ar
    36     6     1   ar
    37    35    30   ar
    38    15     7    1
    39    14     9    1
    40    21    22    1
    41    17    19    1
    42    17    20    1
