@<TRIPOS>MOLECULE
*****
 33 37 0 0 0
SMALL
GASTEIGER

@<TRIPOS>ATOM
      1 C           3.8885   -0.8565   30.1438 C.3     1  UNL1        0.0827
      2 C           2.6354   -0.4119   29.4494 C.3     1  UNL1        0.0309
      3 C           2.5947   -0.3356   27.9519 C.3     1  UNL1        0.0954
      4 N           3.8069   -0.7039   27.1489 N.am    1  UNL1       -0.2642
      5 C           3.7660   -0.6276   25.6513 C.2     1  UNL1        0.3039
      6 O           4.9782   -0.9958   24.8482 O.2     1  UNL1       -0.2526
      7 N           2.5130   -0.1830   24.9569 N.am    1  UNL1       -0.2901
      8 C           5.0598   -1.1484   27.8432 C.3     1  UNL1        0.0954
      9 C           5.1007   -1.2248   29.3407 C.3     1  UNL1        0.0309
     10 H           1.7174    0.0587   25.4840 H       1  UNL1        0.1509
     11 C           4.0267   -0.3019   33.9829 C.ar    1  UNL1        0.2033
     12 N           3.9579   -1.7985   33.9085 N.ar    1  UNL1       -0.0560
     13 O           3.8977   -2.1884   32.4613 O.2     1  UNL1       -0.3370
     14 C           3.9294   -0.9328   31.6413 C.ar    1  UNL1        0.2362
     15 N           4.0091    0.2331   32.5817 N.ar    1  UNL1       -0.1908
     16 C           4.2472    2.1519   37.7486 C.ar    1  UNL1        0.0140
     17 C           3.5767    2.7096   36.5282 C.ar    1  UNL1        0.0012
     18 C           3.5032    1.8916   35.2729 C.ar    1  UNL1        0.0032
     19 C           4.1002    0.5160   35.2381 C.ar    1  UNL1        0.0391
     20 C           4.7706   -0.0417   36.4585 C.ar    1  UNL1        0.0032
     21 C           4.8442    0.7763   37.7138 C.ar    1  UNL1        0.0012
     22 O           3.5931    4.2787   39.0898 O.co2   1  UNL1       -0.5446
     23 C           4.3207    2.9699   39.0038 C.2     1  UNL1        0.0729
     24 O           5.1219    2.4790   40.1730 O.co2   1  UNL1       -0.5446
     25 C           2.4721   -0.1067   23.4594 C.3     1  UNL1        0.0774
     26 C           2.0708    0.6127   22.2058 C.3     1  UNL1        0.0259
     27 C           2.8026   -0.6938   22.1192 C.3     1  UNL1        0.0420
     28 C           3.4160   -1.7871   21.2955 C.ar    1  UNL1       -0.0208
     29 C           3.1418   -1.8601   19.8226 C.ar    1  UNL1       -0.0042
     30 C           3.7552   -2.9534   18.9988 C.ar    1  UNL1       -0.0003
     31 C           4.6426   -3.9736   19.6480 C.ar    1  UNL1       -0.0000
     32 C           4.9167   -3.9006   21.1209 C.ar    1  UNL1       -0.0003
     33 C           4.3034   -2.8074   21.9446 C.ar    1  UNL1       -0.0042
@<TRIPOS>UNITY_ATOM_ATTR
22 1
charge -1
@<TRIPOS>BOND
     1    22    23   ar
     2    23    24   ar
     3    23    16    1
     4    16    17   ar
     5    17    18   ar
     6    18    19   ar
     7    19    11    1
     8    11    12   ar
     9    12    13   ar
    10    13    14   ar
    11    14     1    1
    12     1     2    1
    13     2     3    1
    14     3     4    1
    15     4     5   am
    16     5     6    2
    17     5     7   am
    18     7    25    1
    19    25    26    1
    20    26    27    1
    21    27    28    1
    22    28    29   ar
    23    29    30   ar
    24    30    31   ar
    25    31    32   ar
    26    32    33   ar
    27     4     8    1
    28     8     9    1
    29    14    15   ar
    30    19    20   ar
    31    20    21   ar
    32    21    16   ar
    33    15    11   ar
    34     9     1    1
    35    27    25    1
    36    33    28   ar
    37     7    10    1
@<TRIPOS>MOLECULE
*****
 33 37 0 0 0
SMALL
GASTEIGER

@<TRIPOS>ATOM
      1 C          -1.8920    3.2173   21.2425 C.3     1  UNL1        0.0827
      2 C          -3.3285    3.3778   20.8412 C.3     1  UNL1        0.0309
      3 C          -4.3213    3.9380   21.8160 C.3     1  UNL1        0.0954
      4 N          -3.8778    4.3378   23.1921 N.am    1  UNL1       -0.2642
      5 C          -4.8707    4.8981   24.1669 C.2     1  UNL1        0.3039
      6 O          -4.4272    5.2979   25.5430 O.2     1  UNL1       -0.2526
      7 N          -6.3071    5.0586   23.7657 N.am    1  UNL1       -0.2901
      8 C          -2.4415    4.1773   23.5933 C.3     1  UNL1        0.0954
      9 C          -1.4485    3.6170   22.6185 C.3     1  UNL1        0.0309
     10 H          -6.5982    4.7963   22.8625 H       1  UNL1        0.1509
     11 C           0.8255    1.2721   19.2684 C.ar    1  UNL1        0.2033
     12 N           0.4322    2.3174   18.2671 N.ar    1  UNL1       -0.0560
     13 O          -0.6336    3.1733   18.8846 O.2     1  UNL1       -0.3370
     14 C          -0.8991    2.6570   20.2677 C.ar    1  UNL1        0.2362
     15 N           0.0026    1.4820   20.5049 N.ar    1  UNL1       -0.1908
     16 C           3.9288   -1.9310   18.6685 C.ar    1  UNL1        0.0140
     17 C           3.8201   -0.7993   17.6900 C.ar    1  UNL1        0.0012
     18 C           2.7857    0.2684   17.8900 C.ar    1  UNL1        0.0032
     19 C           1.8599    0.2044   19.0684 C.ar    1  UNL1        0.0391
     20 C           1.9685   -0.9273   20.0469 C.ar    1  UNL1        0.0032
     21 C           3.0030   -1.9950   19.8469 C.ar    1  UNL1        0.0012
     22 O           4.7669   -4.3562   19.0755 O.co2   1  UNL1       -0.5446
     23 C           4.9632   -2.9987   18.4685 C.2     1  UNL1        0.0729
     24 O           6.1939   -2.7088   17.6614 O.co2   1  UNL1       -0.5446
     25 C          -7.3000    5.6189   24.7404 C.3     1  UNL1        0.0774
     26 C          -7.5987    6.3133   26.0361 C.3     1  UNL1        0.0259
     27 C          -8.7211    5.8950   25.1332 C.3     1  UNL1        0.0420
     28 C         -10.1896    5.8128   24.8387 C.ar    1  UNL1       -0.0208
     29 C         -10.9471    7.0481   24.4512 C.ar    1  UNL1       -0.0042
     30 C         -12.4157    6.9660   24.1567 C.ar    1  UNL1       -0.0003
     31 C         -13.1266    5.6485   24.2498 C.ar    1  UNL1       -0.0000
     32 C         -12.3691    4.4132   24.6373 C.ar    1  UNL1       -0.0003
     33 C         -10.9007    4.4953   24.9318 C.ar    1  UNL1       -0.0042
@<TRIPOS>UNITY_ATOM_ATTR
22 1
charge -1
@<TRIPOS>BOND
     1    22    23   ar
     2    23    24   ar
     3    23    16    1
     4    16    17   ar
     5    17    18   ar
     6    18    19   ar
     7    19    11    1
     8    11    12   ar
     9    12    13   ar
    10    13    14   ar
    11    14     1    1
    12     1     2    1
    13     2     3    1
    14     3     4    1
    15     4     5   am
    16     5     6    2
    17     5     7   am
    18     7    25    1
    19    25    26    1
    20    26    27    1
    21    27    28    1
    22    28    29   ar
    23    29    30   ar
    24    30    31   ar
    25    31    32   ar
    26    32    33   ar
    27     4     8    1
    28     8     9    1
    29    14    15   ar
    30    19    20   ar
    31    20    21   ar
    32    21    16   ar
    33    15    11   ar
    34     9     1    1
    35    27    25    1
    36    33    28   ar
    37     7    10    1
@<TRIPOS>MOLECULE
*****
 33 37 0 0 0
SMALL
GASTEIGER

@<TRIPOS>ATOM
      1 C           0.5430    1.5863   26.8984 C.3     1  UNL1        0.0827
      2 C           2.0052    1.3661   26.6459 C.3     1  UNL1        0.0309
      3 C           2.8437    0.6555   27.6664 C.3     1  UNL1        0.0954
      4 N           2.2203    0.1650   28.9395 N.am    1  UNL1       -0.2642
      5 C           3.0590   -0.5457   29.9602 C.2     1  UNL1        0.3039
      6 O           2.4355   -1.0362   31.2332 O.2     1  UNL1       -0.2526
      7 N           4.5211   -0.7659   29.7077 N.am    1  UNL1       -0.2901
      8 C           0.7583    0.3852   29.1920 C.3     1  UNL1        0.0954
      9 C          -0.0804    1.0958   28.1714 C.3     1  UNL1        0.0309
     10 H           4.9303   -0.4440   28.8721 H       1  UNL1        0.1509
     11 C          -2.2024    3.2364   24.7063 C.ar    1  UNL1        0.2033
     12 N          -0.9702    3.5445   23.9083 N.ar    1  UNL1       -0.0560
     13 O           0.2082    2.9639   24.6323 O.2     1  UNL1       -0.3370
     14 C          -0.2957    2.2969   25.8778 C.ar    1  UNL1        0.2362
     15 N          -1.7855    2.4654   25.9235 N.ar    1  UNL1       -0.1908
     16 C          -6.4107    4.4179   23.6366 C.ar    1  UNL1        0.0140
     17 C          -5.9160    4.5953   25.0415 C.ar    1  UNL1        0.0012
     18 C          -4.5133    4.2015   25.3981 C.ar    1  UNL1        0.0032
     19 C          -3.6052    3.6303   24.3497 C.ar    1  UNL1        0.0391
     20 C          -4.0999    3.4528   22.9449 C.ar    1  UNL1        0.0032
     21 C          -5.5026    3.8467   22.5883 C.ar    1  UNL1        0.0012
     22 O          -8.0551    5.9423   22.3243 O.co2   1  UNL1       -0.5446
     23 C          -7.8135    4.8117   23.2800 C.2     1  UNL1        0.0729
     24 O          -8.9746    4.0750   23.8792 O.co2   1  UNL1       -0.5446
     25 C           5.3598   -1.4765   30.7283 C.3     1  UNL1        0.0774
     26 C           6.2872   -2.5969   31.0953 C.3     1  UNL1        0.0259
     27 C           5.8851   -1.5870   32.1289 C.3     1  UNL1        0.0420
     28 C           5.9562   -1.0678   33.5344 C.ar    1  UNL1       -0.0208
     29 C           7.2526   -0.5412   34.0747 C.ar    1  UNL1       -0.0042
     30 C           7.3237   -0.0219   35.4801 C.ar    1  UNL1       -0.0003
     31 C           6.0984   -0.0293   36.3453 C.ar    1  UNL1       -0.0000
     32 C           4.8020   -0.5560   35.8050 C.ar    1  UNL1       -0.0003
     33 C           4.7309   -1.0752   34.3996 C.ar    1  UNL1       -0.0042
@<TRIPOS>UNITY_ATOM_ATTR
22 1
charge -1
@<TRIPOS>BOND
     1    22    23   ar
     2    23    24   ar
     3    23    16    1
     4    16    17   ar
     5    17    18   ar
     6    18    19   ar
     7    19    11    1
     8    11    12   ar
     9    12    13   ar
    10    13    14   ar
    11    14     1    1
    12     1     2    1
    13     2     3    1
    14     3     4    1
    15     4     5   am
    16     5     6    2
    17     5     7   am
    18     7    25    1
    19    25    26    1
    20    26    27    1
    21    27    28    1
    22    28    29   ar
    23    29    30   ar
    24    30    31   ar
    25    31    32   ar
    26    32    33   ar
    27     4     8    1
    28     8     9    1
    29    14    15   ar
    30    19    20   ar
    31    20    21   ar
    32    21    16   ar
    33    15    11   ar
    34     9     1    1
    35    27    25    1
    36    33    28   ar
    37     7    10    1
@<TRIPOS>MOLECULE
*****
 33 37 0 0 0
SMALL
GASTEIGER

@<TRIPOS>ATOM
      1 C           4.4086   -1.9903   21.6984 C.3     1  UNL1        0.0827
      2 C           3.7800   -1.0190   22.6531 C.3     1  UNL1        0.0309
      3 C           2.6652   -0.1282   22.1911 C.3     1  UNL1        0.0954
      4 N           2.1789   -0.2087   20.7744 N.am    1  UNL1       -0.2642
      5 C           1.0640    0.6822   20.3123 C.2     1  UNL1        0.3039
      6 O           0.5778    0.6018   18.8956 O.2     1  UNL1       -0.2526
      7 N           0.4354    1.6535   21.2670 N.am    1  UNL1       -0.2901
      8 C           2.8075   -1.1799   19.8197 C.3     1  UNL1        0.0954
      9 C           3.9224   -2.0707   20.2817 C.3     1  UNL1        0.0309
     10 H           0.7545    1.7063   22.1968 H       1  UNL1        0.1509
     11 C           6.8163   -4.4831   23.4462 C.ar    1  UNL1        0.2033
     12 N           7.6619   -4.0210   22.2966 N.ar    1  UNL1       -0.0560
     13 O           6.8629   -3.0310   21.5020 O.2     1  UNL1       -0.3370
     14 C           5.5235   -2.8811   22.1604 C.ar    1  UNL1        0.2362
     15 N           5.4947   -3.7786   23.3620 N.ar    1  UNL1       -0.1908
     16 C           8.0310   -7.4600   26.5946 C.ar    1  UNL1        0.0140
     17 C           8.4305   -7.6753   25.1649 C.ar    1  UNL1        0.0012
     18 C           8.0256   -6.6830   24.1154 C.ar    1  UNL1        0.0032
     19 C           7.2212   -5.4754   24.4956 C.ar    1  UNL1        0.0391
     20 C           6.8216   -5.2602   25.9253 C.ar    1  UNL1        0.0032
     21 C           7.2265   -6.2525   26.9748 C.ar    1  UNL1        0.0012
     22 O           7.9196   -9.8594   27.5847 O.co2   1  UNL1       -0.5446
     23 C           8.4358   -8.4524   27.6440 C.2     1  UNL1        0.0729
     24 O           9.3570   -8.0376   28.7528 O.co2   1  UNL1       -0.5446
     25 C          -0.6795    2.5443   20.8050 C.3     1  UNL1        0.0774
     26 C          -1.2878    3.4256   19.7546 C.3     1  UNL1        0.0259
     27 C          -2.0022    3.2061   21.0551 C.3     1  UNL1        0.0420
     28 C          -3.1783    3.4614   21.9505 C.ar    1  UNL1       -0.0208
     29 C          -4.5575    3.5558   21.3683 C.ar    1  UNL1       -0.0042
     30 C          -5.7336    3.8111   22.2636 C.ar    1  UNL1       -0.0003
     31 C          -5.5305    3.9720   23.7410 C.ar    1  UNL1       -0.0000
     32 C          -4.1513    3.8775   24.3231 C.ar    1  UNL1       -0.0003
     33 C          -2.9753    3.6222   23.4279 C.ar    1  UNL1       -0.0042
@<TRIPOS>UNITY_ATOM_ATTR
22 1
charge -1
@<TRIPOS>BOND
     1    22    23   ar
     2    23    24   ar
     3    23    16    1
     4    16    17   ar
     5    17    18   ar
     6    18    19   ar
     7    19    11    1
     8    11    12   ar
     9    12    13   ar
    10    13    14   ar
    11    14     1    1
    12     1     2    1
    13     2     3    1
    14     3     4    1
    15     4     5   am
    16     5     6    2
    17     5     7   am
    18     7    25    1
    19    25    26    1
    20    26    27    1
    21    27    28    1
    22    28    29   ar
    23    29    30   ar
    24    30    31   ar
    25    31    32   ar
    26    32    33   ar
    27     4     8    1
    28     8     9    1
    29    14    15   ar
    30    19    20   ar
    31    20    21   ar
    32    21    16   ar
    33    15    11   ar
    34     9     1    1
    35    27    25    1
    36    33    28   ar
    37     7    10    1
@<TRIPOS>MOLECULE
*****
 33 37 0 0 0
SMALL
GASTEIGER

@<TRIPOS>ATOM
      1 C           6.3663   -1.9291   31.0601 C.3     1  UNL1        0.0827
      2 C           5.9491   -1.1298   29.8613 C.3     1  UNL1        0.0309
      3 C           5.9999   -1.7458   28.4946 C.3     1  UNL1        0.0954
      4 N           6.4681   -3.1609   28.3266 N.am    1  UNL1       -0.2642
      5 C           6.5189   -3.7769   26.9598 C.2     1  UNL1        0.3039
      6 O           6.9871   -5.1920   26.7918 O.2     1  UNL1       -0.2526
      7 N           6.1016   -2.9777   25.7610 N.am    1  UNL1       -0.2901
      8 C           6.8853   -3.9601   29.5253 C.3     1  UNL1        0.0954
      9 C           6.8345   -3.3442   30.8921 C.3     1  UNL1        0.0309
     10 H           5.7944   -2.0488   25.8712 H       1  UNL1        0.1509
     11 C           5.5173   -0.1848   34.4219 C.ar    1  UNL1        0.2033
     12 N           6.9570   -0.5460   34.6383 N.ar    1  UNL1       -0.0560
     13 O           7.4503   -1.2434   33.4053 O.2     1  UNL1       -0.3370
     14 C           6.3155   -1.3132   32.4268 C.ar    1  UNL1        0.2362
     15 N           5.1209   -0.6589   33.0552 N.ar    1  UNL1       -0.1908
     16 C           2.8552    1.9470   37.3576 C.ar    1  UNL1        0.0140
     17 C           3.8212    0.9059   37.8400 C.ar    1  UNL1        0.0012
     18 C           4.7086    0.1953   36.8615 C.ar    1  UNL1        0.0032
     19 C           4.6300    0.5258   35.4005 C.ar    1  UNL1        0.0391
     20 C           3.6639    1.5670   34.9181 C.ar    1  UNL1        0.0032
     21 C           2.7766    2.2776   35.8966 C.ar    1  UNL1        0.0012
     22 O           0.8614    3.5412   37.8410 O.co2   1  UNL1       -0.5446
     23 C           1.9678    2.6576   38.3362 C.2     1  UNL1        0.0729
     24 O           2.1868    2.4847   39.8100 O.co2   1  UNL1       -0.5446
     25 C           6.1525   -3.5935   24.3942 C.3     1  UNL1        0.0774
     26 C           6.7323   -4.5977   23.4426 C.3     1  UNL1        0.0259
     27 C           5.6608   -3.6562   22.9785 C.3     1  UNL1        0.0420
     28 C           4.7582   -3.1488   21.8931 C.ar    1  UNL1       -0.0208
     29 C           4.6548   -3.8928   20.5948 C.ar    1  UNL1       -0.0042
     30 C           3.7523   -3.3854   19.5094 C.ar    1  UNL1       -0.0003
     31 C           2.9532   -2.1340   19.7225 C.ar    1  UNL1       -0.0000
     32 C           3.0566   -1.3901   21.0208 C.ar    1  UNL1       -0.0003
     33 C           3.9591   -1.8974   22.1061 C.ar    1  UNL1       -0.0042
@<TRIPOS>UNITY_ATOM_ATTR
22 1
charge -1
@<TRIPOS>BOND
     1    22    23   ar
     2    23    24   ar
     3    23    16    1
     4    16    17   ar
     5    17    18   ar
     6    18    19   ar
     7    19    11    1
     8    11    12   ar
     9    12    13   ar
    10    13    14   ar
    11    14     1    1
    12     1     2    1
    13     2     3    1
    14     3     4    1
    15     4     5   am
    16     5     6    2
    17     5     7   am
    18     7    25    1
    19    25    26    1
    20    26    27    1
    21    27    28    1
    22    28    29   ar
    23    29    30   ar
    24    30    31   ar
    25    31    32   ar
    26    32    33   ar
    27     4     8    1
    28     8     9    1
    29    14    15   ar
    30    19    20   ar
    31    20    21   ar
    32    21    16   ar
    33    15    11   ar
    34     9     1    1
    35    27    25    1
    36    33    28   ar
    37     7    10    1
@<TRIPOS>MOLECULE
*****
 33 37 0 0 0
SMALL
GASTEIGER

@<TRIPOS>ATOM
      1 C           0.7571    1.8748   25.9356 C.3     1  UNL1        0.0827
      2 C           1.7360    2.7919   26.6069 C.3     1  UNL1        0.0309
      3 C           1.7378    2.9228   28.1011 C.3     1  UNL1        0.0954
      4 N           0.7607    2.1367   28.9240 N.am    1  UNL1       -0.2642
      5 C           0.7625    2.2676   30.4184 C.2     1  UNL1        0.3039
      6 O          -0.2146    1.4814   31.2413 O.2     1  UNL1       -0.2526
      7 N           1.7414    3.1847   31.0897 N.am    1  UNL1       -0.2901
      8 C          -0.2181    1.2196   28.2527 C.3     1  UNL1        0.0954
      9 C          -0.2200    1.0886   26.7585 C.3     1  UNL1        0.0309
     10 H           2.3827    3.7007   30.5496 H       1  UNL1        0.1509
     11 C           1.3460    1.0853   22.1812 C.ar    1  UNL1        0.2033
     12 N           0.1591    1.9990   22.1025 N.ar    1  UNL1       -0.0560
     13 O          -0.2061    2.4060   23.4993 O.2     1  UNL1       -0.3370
     14 C           0.7553    1.7438   24.4413 C.ar    1  UNL1        0.2362
     15 N           1.7145    0.9276   23.6266 N.ar    1  UNL1       -0.1908
     16 C           3.4348   -0.8438   18.6932 C.ar    1  UNL1        0.0140
     17 C           3.7129   -1.3170   20.0891 C.ar    1  UNL1        0.0012
     18 C           3.0167   -0.6740   21.2518 C.ar    1  UNL1        0.0032
     19 C           2.0423    0.4423   21.0185 C.ar    1  UNL1        0.0391
     20 C           1.7641    0.9155   19.6226 C.ar    1  UNL1        0.0032
     21 C           2.4604    0.2725   18.4599 C.ar    1  UNL1        0.0012
     22 O           3.7736   -1.0894   16.1291 O.co2   1  UNL1       -0.5446
     23 C           4.1310   -1.4869   17.5306 C.2     1  UNL1        0.0729
     24 O           5.1847   -2.5274   17.7694 O.co2   1  UNL1       -0.5446
     25 C           1.7432    3.3157   32.5840 C.3     1  UNL1        0.0774
     26 C           1.2777    4.0138   33.8274 C.3     1  UNL1        0.0259
     27 C           2.2118    2.8445   33.9287 C.3     1  UNL1        0.0420
     28 C           3.0217    1.8974   34.7636 C.ar    1  UNL1       -0.0208
     29 C           3.0087    2.0166   36.2588 C.ar    1  UNL1       -0.0042
     30 C           3.8185    1.0695   37.0938 C.ar    1  UNL1       -0.0003
     31 C           4.6414    0.0033   36.4335 C.ar    1  UNL1       -0.0000
     32 C           4.6544   -0.1159   34.9383 C.ar    1  UNL1       -0.0003
     33 C           3.8446    0.8312   34.1034 C.ar    1  UNL1       -0.0042
@<TRIPOS>UNITY_ATOM_ATTR
22 1
charge -1
@<TRIPOS>BOND
     1    22    23   ar
     2    23    24   ar
     3    23    16    1
     4    16    17   ar
     5    17    18   ar
     6    18    19   ar
     7    19    11    1
     8    11    12   ar
     9    12    13   ar
    10    13    14   ar
    11    14     1    1
    12     1     2    1
    13     2     3    1
    14     3     4    1
    15     4     5   am
    16     5     6    2
    17     5     7   am
    18     7    25    1
    19    25    26    1
    20    26    27    1
    21    27    28    1
    22    28    29   ar
    23    29    30   ar
    24    30    31   ar
    25    31    32   ar
    26    32    33   ar
    27     4     8    1
    28     8     9    1
    29    14    15   ar
    30    19    20   ar
    31    20    21   ar
    32    21    16   ar
    33    15    11   ar
    34     9     1    1
    35    27    25    1
    36    33    28   ar
    37     7    10    1
@<TRIPOS>MOLECULE
*****
 33 37 0 0 0
SMALL
GASTEIGER

@<TRIPOS>ATOM
      1 C          -0.5718    2.2329   27.5246 C.3     1  UNL1        0.0827
      2 C           0.2891    3.1641   28.3257 C.3     1  UNL1        0.0309
      3 C           1.2027    2.6182   29.3827 C.3     1  UNL1        0.0954
      4 N           1.2555    1.1412   29.6385 N.am    1  UNL1       -0.2642
      5 C           2.1692    0.5952   30.6956 C.2     1  UNL1        0.3039
      6 O           2.2219   -0.8818   30.9515 O.2     1  UNL1       -0.2526
      7 N           3.0301    1.5264   31.4967 N.am    1  UNL1       -0.2901
      8 C           0.3946    0.2100   28.8375 C.3     1  UNL1        0.0954
      9 C          -0.5190    0.7559   27.7805 C.3     1  UNL1        0.0309
     10 H           2.9954    2.4959   31.3288 H       1  UNL1        0.1509
     11 C          -3.4206    3.7366   25.3593 C.ar    1  UNL1        0.2033
     12 N          -2.3623    3.5010   24.3228 N.ar    1  UNL1       -0.0560
     13 O          -1.1662    2.9091   25.0078 O.2     1  UNL1       -0.3370
     14 C          -1.4854    2.7788   26.4676 C.ar    1  UNL1        0.2362
     15 N          -2.8787    3.2902   26.6849 N.ar    1  UNL1       -0.1908
     16 C          -7.5044    5.4768   24.6217 C.ar    1  UNL1        0.0140
     17 C          -6.9075    4.5194   23.6334 C.ar    1  UNL1        0.0012
     18 C          -5.5462    3.9393   23.8792 C.ar    1  UNL1        0.0032
     19 C          -4.7819    4.3167   25.1135 C.ar    1  UNL1        0.0391
     20 C          -5.3788    5.2741   26.1018 C.ar    1  UNL1        0.0032
     21 C          -6.7401    5.8542   25.8559 C.ar    1  UNL1        0.0012
     22 O          -9.9751    5.8076   25.3541 O.co2   1  UNL1       -0.5446
     23 C          -8.8657    6.0569   24.3759 C.2     1  UNL1        0.0729
     24 O          -9.1176    6.8863   23.1517 O.co2   1  UNL1       -0.5446
     25 C           3.9437    0.9805   32.5537 C.3     1  UNL1        0.0774
     26 C           4.4587    1.0007   33.9624 C.3     1  UNL1        0.0259
     27 C           5.0112    0.0150   32.9759 C.3     1  UNL1        0.0420
     28 C           5.9464   -1.1115   32.6500 C.ar    1  UNL1       -0.0208
     29 C           5.4610   -2.2804   31.8449 C.ar    1  UNL1       -0.0042
     30 C           6.3963   -3.4069   31.5191 C.ar    1  UNL1       -0.0003
     31 C           7.8169   -3.3646   31.9983 C.ar    1  UNL1       -0.0000
     32 C           8.3024   -2.1958   32.8034 C.ar    1  UNL1       -0.0003
     33 C           7.3672   -1.0693   33.1293 C.ar    1  UNL1       -0.0042
@<TRIPOS>UNITY_ATOM_ATTR
22 1
charge -1
@<TRIPOS>BOND
     1    22    23   ar
     2    23    24   ar
     3    23    16    1
     4    16    17   ar
     5    17    18   ar
     6    18    19   ar
     7    19    11    1
     8    11    12   ar
     9    12    13   ar
    10    13    14   ar
    11    14     1    1
    12     1     2    1
    13     2     3    1
    14     3     4    1
    15     4     5   am
    16     5     6    2
    17     5     7   am
    18     7    25    1
    19    25    26    1
    20    26    27    1
    21    27    28    1
    22    28    29   ar
    23    29    30   ar
    24    30    31   ar
    25    31    32   ar
    26    32    33   ar
    27     4     8    1
    28     8     9    1
    29    14    15   ar
    30    19    20   ar
    31    20    21   ar
    32    21    16   ar
    33    15    11   ar
    34     9     1    1
    35    27    25    1
    36    33    28   ar
    37     7    10    1
@<TRIPOS>MOLECULE
*****
 33 37 0 0 0
SMALL
GASTEIGER

@<TRIPOS>ATOM
      1 C           1.7360    0.6972   20.0209 C.3     1  UNL1        0.0827
      2 C           2.2253    0.2912   21.3795 C.3     1  UNL1        0.0309
      3 C           3.3691   -0.6706   21.5082 C.3     1  UNL1        0.0954
      4 N           4.0235   -1.2265   20.2783 N.am    1  UNL1       -0.2642
      5 C           5.1674   -2.1885   20.4070 C.2     1  UNL1        0.3039
      6 O           5.8219   -2.7443   19.1771 O.2     1  UNL1       -0.2526
      7 N           5.6567   -2.5944   21.7656 N.am    1  UNL1       -0.2901
      8 C           3.5343   -0.8206   18.9198 C.3     1  UNL1        0.0954
      9 C           2.3905    0.1413   18.7911 C.3     1  UNL1        0.0309
     10 H           5.2271   -2.2296   22.5728 H       1  UNL1        0.1509
     11 C          -1.4763    2.8557   20.3162 C.ar    1  UNL1        0.2033
     12 N          -0.8595    3.4226   19.0720 N.ar    1  UNL1       -0.0560
     13 O           0.4190    2.6831   18.8099 O.2     1  UNL1       -0.3370
     14 C           0.5923    1.6590   19.8922 C.ar    1  UNL1        0.2362
     15 N          -0.5791    1.7657   20.8231 N.ar    1  UNL1       -0.1908
     16 C          -5.3400    4.1904   22.1978 C.ar    1  UNL1        0.0140
     17 C          -4.0849    4.1395   23.0175 C.ar    1  UNL1        0.0012
     18 C          -2.7970    3.6946   22.3903 C.ar    1  UNL1        0.0032
     19 C          -2.7642    3.3006   20.9434 C.ar    1  UNL1        0.0391
     20 C          -4.0193    3.3514   20.1237 C.ar    1  UNL1        0.0032
     21 C          -5.3072    3.7963   20.7509 C.ar    1  UNL1        0.0012
     22 O          -6.8615    4.4209   24.2911 O.co2   1  UNL1       -0.5446
     23 C          -6.6279    4.6353   22.8250 C.2     1  UNL1        0.0729
     24 O          -7.6822    5.2945   21.9861 O.co2   1  UNL1       -0.5446
     25 C           6.8005   -3.5563   21.8944 C.3     1  UNL1        0.0774
     26 C           8.0561   -4.1629   21.3418 C.3     1  UNL1        0.0259
     27 C           7.5259   -4.6157   22.6699 C.3     1  UNL1        0.0420
     28 C           7.6386   -5.4887   23.8844 C.ar    1  UNL1       -0.0208
     29 C           7.0096   -5.0604   25.1770 C.ar    1  UNL1       -0.0042
     30 C           7.1223   -5.9334   26.3915 C.ar    1  UNL1       -0.0003
     31 C           7.8640   -7.2348   26.3134 C.ar    1  UNL1       -0.0000
     32 C           8.4930   -7.6632   25.0208 C.ar    1  UNL1       -0.0003
     33 C           8.3803   -6.7902   23.8064 C.ar    1  UNL1       -0.0042
@<TRIPOS>UNITY_ATOM_ATTR
22 1
charge -1
@<TRIPOS>BOND
     1    22    23   ar
     2    23    24   ar
     3    23    16    1
     4    16    17   ar
     5    17    18   ar
     6    18    19   ar
     7    19    11    1
     8    11    12   ar
     9    12    13   ar
    10    13    14   ar
    11    14     1    1
    12     1     2    1
    13     2     3    1
    14     3     4    1
    15     4     5   am
    16     5     6    2
    17     5     7   am
    18     7    25    1
    19    25    26    1
    20    26    27    1
    21    27    28    1
    22    28    29   ar
    23    29    30   ar
    24    30    31   ar
    25    31    32   ar
    26    32    33   ar
    27     4     8    1
    28     8     9    1
    29    14    15   ar
    30    19    20   ar
    31    20    21   ar
    32    21    16   ar
    33    15    11   ar
    34     9     1    1
    35    27    25    1
    36    33    28   ar
    37     7    10    1
@<TRIPOS>MOLECULE
*****
 33 37 0 0 0
SMALL
GASTEIGER

@<TRIPOS>ATOM
      1 C           4.9408   -1.0266   28.7669 C.3     1  UNL1        0.0827
      2 C           5.7454   -1.9478   27.8984 C.3     1  UNL1        0.0309
      3 C           5.4026   -2.0990   26.4460 C.3     1  UNL1        0.0954
      4 N           4.2553   -1.3291   25.8620 N.am    1  UNL1       -0.2642
      5 C           3.9125   -1.4803   24.4095 C.2     1  UNL1        0.3039
      6 O           2.7653   -0.7104   23.8255 O.2     1  UNL1       -0.2526
      7 N           4.7170   -2.4015   23.5410 N.am    1  UNL1       -0.2901
      8 C           3.4508   -0.4080   26.7304 C.3     1  UNL1        0.0954
      9 C           3.7936   -0.2567   28.1829 C.3     1  UNL1        0.0309
     10 H           5.4700   -2.9068   23.9243 H       1  UNL1        0.1509
     11 C           5.1445   -0.3215   32.5783 C.ar    1  UNL1        0.2033
     12 N           6.4773   -0.9636   32.3307 N.ar    1  UNL1       -0.0560
     13 O           6.5633   -1.3059   30.8728 O.2     1  UNL1       -0.3370
     14 C           5.2836   -0.8754   30.2193 C.ar    1  UNL1        0.2362
     15 N           4.4068   -0.2669   31.2734 N.ar    1  UNL1       -0.1908
     16 C           3.6261    1.1781   36.5401 C.ar    1  UNL1        0.0140
     17 C           4.5597    0.0051   36.4899 C.ar    1  UNL1        0.0012
     18 C           5.0658   -0.4948   35.1693 C.ar    1  UNL1        0.0032
     19 C           4.6384    0.1784   33.8989 C.ar    1  UNL1        0.0391
     20 C           3.7048    1.3514   33.9490 C.ar    1  UNL1        0.0032
     21 C           3.1987    1.8512   35.2696 C.ar    1  UNL1        0.0012
     22 O           1.7799    2.3464   37.9459 O.co2   1  UNL1       -0.5446
     23 C           3.1200    1.6779   37.8607 C.2     1  UNL1        0.0729
     24 O           3.9539    1.5092   39.0960 O.co2   1  UNL1       -0.5446
     25 C           4.3743   -2.5527   22.0885 C.3     1  UNL1        0.0774
     26 C           4.4569   -3.3304   20.8085 C.3     1  UNL1        0.0259
     27 C           3.6982   -2.0372   20.8528 C.3     1  UNL1        0.0420
     28 C           2.8697   -0.9929   20.1650 C.ar    1  UNL1       -0.0208
     29 C           3.4590   -0.1841   19.0476 C.ar    1  UNL1       -0.0042
     30 C           2.6305    0.8602   18.3597 C.ar    1  UNL1       -0.0003
     31 C           1.2129    1.0957   18.7893 C.ar    1  UNL1       -0.0000
     32 C           0.6236    0.2869   19.9067 C.ar    1  UNL1       -0.0003
     33 C           1.4520   -0.7573   20.5946 C.ar    1  UNL1       -0.0042
@<TRIPOS>UNITY_ATOM_ATTR
22 1
charge -1
@<TRIPOS>BOND
     1    22    23   ar
     2    23    24   ar
     3    23    16    1
     4    16    17   ar
     5    17    18   ar
     6    18    19   ar
     7    19    11    1
     8    11    12   ar
     9    12    13   ar
    10    13    14   ar
    11    14     1    1
    12     1     2    1
    13     2     3    1
    14     3     4    1
    15     4     5   am
    16     5     6    2
    17     5     7   am
    18     7    25    1
    19    25    26    1
    20    26    27    1
    21    27    28    1
    22    28    29   ar
    23    29    30   ar
    24    30    31   ar
    25    31    32   ar
    26    32    33   ar
    27     4     8    1
    28     8     9    1
    29    14    15   ar
    30    19    20   ar
    31    20    21   ar
    32    21    16   ar
    33    15    11   ar
    34     9     1    1
    35    27    25    1
    36    33    28   ar
    37     7    10    1
