@<TRIPOS>MOLECULE
*****
 21 22 0 0 0
SMALL
GASTEIGER

@<TRIPOS>ATOM
      1 C          -6.9817  -19.9961   20.6167 C.ar    1  UNL1        0.1386
      2 C          -8.0763  -19.6988   19.6351 C.ar    1  UNL1        0.0384
      3 C          -9.3302  -19.0154   20.0942 C.ar    1  UNL1        0.0207
      4 C          -9.4894  -18.6292   21.5348 C.ar    1  UNL1        0.0657
      5 C          -8.3948  -18.9264   22.5164 C.ar    1  UNL1        0.0207
      6 C          -7.1410  -19.6099   22.0573 C.ar    1  UNL1        0.0384
      7 N         -10.7432  -17.9457   21.9939 N.ar    1  UNL1       -0.2864
      8 C         -11.8608  -18.5803   22.7673 C.ar    1  UNL1        0.1022
      9 C         -12.9079  -17.5344   23.0116 C.ar    1  UNL1        0.1196
     10 N         -12.4374  -16.2533   22.3892 N.ar    1  UNL1       -0.2220
     11 C         -11.0996  -16.5075   21.7602 C.ar    1  UNL1        0.1828
     12 O          -5.7279  -20.6796   20.1576 O.3     1  UNL1       -0.4755
     13 C          -4.4565  -19.8968   20.0141 C.3     1  UNL1        0.2054
     14 C          -3.3851  -20.0086   21.0581 C.3     1  UNL1        0.0473
     15 C          -3.4892  -19.2160   22.3273 C.3     1  UNL1        0.0039
     16 C          -2.4276  -18.2151   22.6757 C.3     1  UNL1        0.0016
     17 C          -2.5344  -16.8043   22.1777 C.3     1  UNL1        0.0173
     18 C          -1.6091  -16.3163   21.1027 C.3     1  UNL1        0.0722
     19 C           0.0224  -17.9419   19.9004 C.3     1  UNL1        0.0897
     20 N          -1.2813  -17.2011   19.9366 N.3     1  UNL1       -0.2703
     21 C          -2.2574  -17.3450   18.8067 C.3     1  UNL1        0.0897
@<TRIPOS>BOND
     1    19    20    1
     2    20    21    1
     3    20    18    1
     4    18    17    1
     5    17    16    1
     6    16    15    1
     7    15    14    1
     8    14    13    1
     9    13    12    1
    10    12     1    1
    11     1     2   ar
    12     2     3   ar
    13     3     4   ar
    14     4     7    1
    15     7     8   ar
    16     8     9   ar
    17     9    10   ar
    18    10    11   ar
    19     4     5   ar
    20     5     6   ar
    21     6     1   ar
    22    11     7   ar
@<TRIPOS>MOLECULE
*****
 21 22 0 0 0
SMALL
GASTEIGER

@<TRIPOS>ATOM
      1 C          -9.8362  -19.5479   21.0163 C.ar    1  UNL1        0.1386
      2 C          -9.0201  -19.4081   19.7655 C.ar    1  UNL1        0.0384
      3 C          -7.5236  -19.4844   19.8339 C.ar    1  UNL1        0.0207
      4 C          -6.8432  -19.7005   21.1531 C.ar    1  UNL1        0.0657
      5 C          -7.6592  -19.8403   22.4039 C.ar    1  UNL1        0.0207
      6 C          -9.1557  -19.7640   22.3354 C.ar    1  UNL1        0.0384
      7 N          -5.3467  -19.7767   21.2215 N.ar    1  UNL1       -0.2864
      8 C          -4.4823  -19.1907   22.2983 C.ar    1  UNL1        0.1022
      9 C          -3.0532  -19.5042   21.9674 C.ar    1  UNL1        0.1196
     10 N          -3.0343  -20.2840   20.6862 N.ar    1  UNL1       -0.2220
     11 C          -4.4518  -20.4525   20.2253 C.ar    1  UNL1        0.1828
     12 O         -11.3326  -19.4717   20.9478 O.3     1  UNL1       -0.4755
     13 C         -12.0235  -18.1479   21.0904 C.3     1  UNL1        0.2054
     14 C         -12.5063  -17.6949   22.4364 C.3     1  UNL1        0.0473
     15 C         -11.5178  -17.3381   23.5067 C.3     1  UNL1        0.0039
     16 C         -10.3915  -16.3951   23.2032 C.3     1  UNL1        0.0016
     17 C          -9.0807  -16.5374   23.9183 C.3     1  UNL1        0.0173
     18 C          -8.8031  -15.7205   25.1453 C.3     1  UNL1        0.0722
     19 C          -7.0597  -15.5482   27.0639 C.3     1  UNL1        0.0897
     20 N          -7.3899  -15.5083   25.6012 N.3     1  UNL1       -0.2703
     21 C          -6.3069  -15.2561   24.5945 C.3     1  UNL1        0.0897
@<TRIPOS>BOND
     1    19    20    1
     2    20    21    1
     3    20    18    1
     4    18    17    1
     5    17    16    1
     6    16    15    1
     7    15    14    1
     8    14    13    1
     9    13    12    1
    10    12     1    1
    11     1     2   ar
    12     2     3   ar
    13     3     4   ar
    14     4     7    1
    15     7     8   ar
    16     8     9   ar
    17     9    10   ar
    18    10    11   ar
    19     4     5   ar
    20     5     6   ar
    21     6     1   ar
    22    11     7   ar
@<TRIPOS>MOLECULE
*****
 21 22 0 0 0
SMALL
GASTEIGER

@<TRIPOS>ATOM
      1 C          -6.5280  -19.7769   21.9773 C.ar    1  UNL1        0.1386
      2 C          -6.0289  -20.4286   20.7219 C.ar    1  UNL1        0.0384
      3 C          -4.7046  -20.0264   20.1434 C.ar    1  UNL1        0.0207
      4 C          -3.8795  -18.9725   20.8204 C.ar    1  UNL1        0.0657
      5 C          -4.3787  -18.3207   22.0758 C.ar    1  UNL1        0.0207
      6 C          -5.7029  -18.7230   22.6542 C.ar    1  UNL1        0.0384
      7 N          -2.5553  -18.5702   20.2420 N.ar    1  UNL1       -0.2864
      8 C          -1.3332  -18.1844   21.0216 C.ar    1  UNL1        0.1022
      9 C          -0.2432  -17.8589   20.0438 C.ar    1  UNL1        0.1196
     10 N          -0.7916  -18.0436   18.6599 N.ar    1  UNL1       -0.2220
     11 C          -2.2205  -18.4832   18.7824 C.ar    1  UNL1        0.1828
     12 O          -7.8523  -20.1792   22.5557 O.3     1  UNL1       -0.4755
     13 C          -9.1206  -19.6097   21.9928 C.3     1  UNL1        0.2054
     14 C         -10.4416  -19.9720   22.6042 C.3     1  UNL1        0.0473
     15 C         -10.7846  -19.4965   23.9849 C.3     1  UNL1        0.0039
     16 C         -11.7877  -18.3970   24.1719 C.3     1  UNL1        0.0016
     17 C         -12.6767  -17.9914   23.0339 C.3     1  UNL1        0.0173
     18 C         -12.3910  -16.7319   22.2710 C.3     1  UNL1        0.0722
     19 C         -11.3536  -17.2201   19.9396 C.3     1  UNL1        0.0897
     20 N         -11.2240  -16.6732   21.3303 N.3     1  UNL1       -0.2703
     21 C          -9.9276  -16.0676   21.7803 C.3     1  UNL1        0.0897
@<TRIPOS>BOND
     1    19    20    1
     2    20    21    1
     3    20    18    1
     4    18    17    1
     5    17    16    1
     6    16    15    1
     7    15    14    1
     8    14    13    1
     9    13    12    1
    10    12     1    1
    11     1     2   ar
    12     2     3   ar
    13     3     4   ar
    14     4     7    1
    15     7     8   ar
    16     8     9   ar
    17     9    10   ar
    18    10    11   ar
    19     4     5   ar
    20     5     6   ar
    21     6     1   ar
    22    11     7   ar
@<TRIPOS>MOLECULE
*****
 21 22 0 0 0
SMALL
GASTEIGER

@<TRIPOS>ATOM
      1 C         -10.7114  -17.3531   22.1644 C.ar    1  UNL1        0.1386
      2 C          -9.6796  -16.4123   21.6167 C.ar    1  UNL1        0.0384
      3 C          -8.5802  -15.9063   22.5029 C.ar    1  UNL1        0.0207
      4 C          -8.5127  -16.3413   23.9369 C.ar    1  UNL1        0.0657
      5 C          -9.5445  -17.2821   24.4846 C.ar    1  UNL1        0.0207
      6 C         -10.6439  -17.7880   23.5983 C.ar    1  UNL1        0.0384
      7 N          -7.4133  -15.8353   24.8231 N.ar    1  UNL1       -0.2864
      8 C          -7.4468  -15.7730   26.3214 C.ar    1  UNL1        0.1022
      9 C          -6.1416  -15.2020   26.7910 C.ar    1  UNL1        0.1196
     10 N          -5.3014  -14.9115   25.5828 N.ar    1  UNL1       -0.2220
     11 C          -6.0873  -15.3029   24.3666 C.ar    1  UNL1        0.1828
     12 O         -11.8108  -17.8590   21.2782 O.3     1  UNL1       -0.4755
     13 C         -11.4971  -18.8142   20.1649 C.3     1  UNL1        0.2054
     14 C         -10.3190  -19.7358   20.2770 C.3     1  UNL1        0.0473
     15 C          -9.1382  -19.5574   19.3693 C.3     1  UNL1        0.0039
     16 C          -7.7694  -19.3583   19.9498 C.3     1  UNL1        0.0016
     17 C          -7.5511  -19.5117   21.4258 C.3     1  UNL1        0.0173
     18 C          -6.3434  -20.2425   21.9334 C.3     1  UNL1        0.0722
     19 C          -4.3930  -18.6722   22.6262 C.3     1  UNL1        0.0897
     20 N          -4.9720  -19.6874   21.6860 N.3     1  UNL1       -0.2703
     21 C          -4.1796  -20.1476   20.4985 C.3     1  UNL1        0.0897
@<TRIPOS>BOND
     1    19    20    1
     2    20    21    1
     3    20    18    1
     4    18    17    1
     5    17    16    1
     6    16    15    1
     7    15    14    1
     8    14    13    1
     9    13    12    1
    10    12     1    1
    11     1     2   ar
    12     2     3   ar
    13     3     4   ar
    14     4     7    1
    15     7     8   ar
    16     8     9   ar
    17     9    10   ar
    18    10    11   ar
    19     4     5   ar
    20     5     6   ar
    21     6     1   ar
    22    11     7   ar
@<TRIPOS>MOLECULE
*****
 21 22 0 0 0
SMALL
GASTEIGER

@<TRIPOS>ATOM
      1 C          -8.4179  -19.3440   21.0536 C.ar    1  UNL1        0.1386
      2 C          -7.7375  -19.5272   19.7294 C.ar    1  UNL1        0.0384
      3 C          -6.2432  -19.4374   19.6351 C.ar    1  UNL1        0.0207
      4 C          -5.4292  -19.1644   20.8651 C.ar    1  UNL1        0.0657
      5 C          -6.1095  -18.9812   22.1893 C.ar    1  UNL1        0.0207
      6 C          -7.6039  -19.0710   22.2835 C.ar    1  UNL1        0.0384
      7 N          -3.9348  -19.0746   20.7709 N.ar    1  UNL1       -0.2864
      8 C          -3.1573  -18.4778   19.6354 C.ar    1  UNL1        0.1022
      9 C          -1.6976  -18.6001   19.9583 C.ar    1  UNL1        0.1196
     10 N          -1.5730  -19.2725   21.2934 N.ar    1  UNL1       -0.2220
     11 C          -2.9557  -19.5657   21.7955 C.ar    1  UNL1        0.1828
     12 O          -9.9122  -19.4339   21.1478 O.3     1  UNL1       -0.4755
     13 C         -10.7679  -18.8737   20.0505 C.3     1  UNL1        0.2054
     14 C         -11.0912  -17.4092   20.0250 C.3     1  UNL1        0.0473
     15 C         -12.2282  -16.8777   20.8465 C.3     1  UNL1        0.0039
     16 C         -11.9506  -16.1400   22.1228 C.3     1  UNL1        0.0016
     17 C         -11.0110  -16.7224   23.1366 C.3     1  UNL1        0.0173
     18 C         -11.3548  -18.0098   23.8253 C.3     1  UNL1        0.0722
     19 C         -10.2121  -20.1934   24.6477 C.3     1  UNL1        0.0897
     20 N         -10.3334  -18.6987   24.6810 N.3     1  UNL1       -0.2703
     21 C          -9.4332  -17.8928   25.5700 C.3     1  UNL1        0.0897
@<TRIPOS>BOND
     1    19    20    1
     2    20    21    1
     3    20    18    1
     4    18    17    1
     5    17    16    1
     6    16    15    1
     7    15    14    1
     8    14    13    1
     9    13    12    1
    10    12     1    1
    11     1     2   ar
    12     2     3   ar
    13     3     4   ar
    14     4     7    1
    15     7     8   ar
    16     8     9   ar
    17     9    10   ar
    18    10    11   ar
    19     4     5   ar
    20     5     6   ar
    21     6     1   ar
    22    11     7   ar
@<TRIPOS>MOLECULE
*****
 21 22 0 0 0
SMALL
GASTEIGER

@<TRIPOS>ATOM
      1 C          -2.0218  -17.6988   21.8855 C.ar    1  UNL1        0.1386
      2 C          -2.3395  -16.2335   21.8401 C.ar    1  UNL1        0.0384
      3 C          -3.4702  -15.6855   22.6595 C.ar    1  UNL1        0.0207
      4 C          -4.2831  -16.6028   23.5242 C.ar    1  UNL1        0.0657
      5 C          -3.9654  -18.0680   23.5695 C.ar    1  UNL1        0.0207
      6 C          -2.8348  -18.6160   22.7502 C.ar    1  UNL1        0.0384
      7 N          -5.4138  -16.0548   24.3435 N.ar    1  UNL1       -0.2864
      8 C          -6.7964  -15.7519   23.8470 C.ar    1  UNL1        0.1022
      9 C          -7.5975  -15.2234   24.9999 C.ar    1  UNL1        0.1196
     10 N          -6.7099  -15.1997   26.2088 N.ar    1  UNL1       -0.2220
     11 C          -5.3603  -15.7135   25.8032 C.ar    1  UNL1        0.1828
     12 O          -0.8912  -18.2468   21.0661 O.3     1  UNL1       -0.4755
     13 C          -0.9527  -18.1876   19.5686 C.3     1  UNL1        0.2054
     14 C          -2.2672  -18.3518   18.8649 C.3     1  UNL1        0.0473
     15 C          -3.1900  -19.4696   19.2509 C.3     1  UNL1        0.0039
     16 C          -4.5835  -19.1652   19.7153 C.3     1  UNL1        0.0016
     17 C          -5.4024  -20.2320   20.3796 C.3     1  UNL1        0.0173
     18 C          -6.5042  -19.8526   21.3242 C.3     1  UNL1        0.0722
     19 C          -8.2975  -19.6551   19.4547 C.3     1  UNL1        0.0897
     20 N          -7.7679  -19.2412   20.7956 N.3     1  UNL1       -0.2703
     21 C          -8.5019  -18.2159   21.6080 C.3     1  UNL1        0.0897
@<TRIPOS>BOND
     1    19    20    1
     2    20    21    1
     3    20    18    1
     4    18    17    1
     5    17    16    1
     6    16    15    1
     7    15    14    1
     8    14    13    1
     9    13    12    1
    10    12     1    1
    11     1     2   ar
    12     2     3   ar
    13     3     4   ar
    14     4     7    1
    15     7     8   ar
    16     8     9   ar
    17     9    10   ar
    18    10    11   ar
    19     4     5   ar
    20     5     6   ar
    21     6     1   ar
    22    11     7   ar
@<TRIPOS>MOLECULE
*****
 21 22 0 0 0
SMALL
GASTEIGER

@<TRIPOS>ATOM
      1 C         -14.4666   -3.9151   19.8203 C.ar    1  UNL1        0.1386
      2 C         -15.9154   -4.2927   19.7283 C.ar    1  UNL1        0.0384
      3 C         -16.3040   -5.7193   19.4760 C.ar    1  UNL1        0.0207
      4 C         -15.2440   -6.7684   19.3157 C.ar    1  UNL1        0.0657
      5 C         -13.7952   -6.3908   19.4077 C.ar    1  UNL1        0.0207
      6 C         -13.4066   -4.9642   19.6600 C.ar    1  UNL1        0.0384
      7 N         -15.6327   -8.1950   19.0634 N.ar    1  UNL1       -0.2864
      8 C         -16.8929   -8.8613   19.5303 C.ar    1  UNL1        0.1022
      9 C         -16.8685  -10.2839   19.0554 C.ar    1  UNL1        0.1196
     10 N         -15.5932  -10.4969   18.2950 N.ar    1  UNL1       -0.2220
     11 C         -14.8294   -9.2059   18.3000 C.ar    1  UNL1        0.1828
     12 O         -14.0779   -2.4885   20.0726 O.3     1  UNL1       -0.4755
     13 C         -13.9135   -1.5411   18.9214 C.3     1  UNL1        0.2054
     14 C         -12.5462   -1.0604   18.5350 C.3     1  UNL1        0.0473
     15 C         -11.3330   -1.8424   18.9437 C.3     1  UNL1        0.0039
     16 C         -10.7596   -2.8748   18.0189 C.3     1  UNL1        0.0016
     17 C         -10.0291   -4.0596   18.5779 C.3     1  UNL1        0.0173
     18 C          -9.5833   -5.1643   17.6665 C.3     1  UNL1        0.0722
     19 C         -11.2314   -7.0258   16.9125 C.3     1  UNL1        0.0897
     20 N         -10.1466   -6.5449   17.8300 N.3     1  UNL1       -0.2703
     21 C          -9.6251   -7.4445   18.9110 C.3     1  UNL1        0.0897
@<TRIPOS>BOND
     1    19    20    1
     2    20    21    1
     3    20    18    1
     4    18    17    1
     5    17    16    1
     6    16    15    1
     7    15    14    1
     8    14    13    1
     9    13    12    1
    10    12     1    1
    11     1     2   ar
    12     2     3   ar
    13     3     4   ar
    14     4     7    1
    15     7     8   ar
    16     8     9   ar
    17     9    10   ar
    18    10    11   ar
    19     4     5   ar
    20     5     6   ar
    21     6     1   ar
    22    11     7   ar
@<TRIPOS>MOLECULE
*****
 21 22 0 0 0
SMALL
GASTEIGER

@<TRIPOS>ATOM
      1 C         -10.6161   -5.8518   17.9143 C.ar    1  UNL1        0.1386
      2 C         -11.4900   -5.4747   19.0736 C.ar    1  UNL1        0.0384
      3 C         -12.7971   -6.1787   19.2878 C.ar    1  UNL1        0.0207
      4 C         -13.2304   -7.2598   18.3425 C.ar    1  UNL1        0.0657
      5 C         -12.3566   -7.6368   17.1831 C.ar    1  UNL1        0.0207
      6 C         -11.0494   -6.9329   16.9690 C.ar    1  UNL1        0.0384
      7 N         -14.5375   -7.9637   18.5566 N.ar    1  UNL1       -0.2864
      8 C         -15.7024   -7.4403   19.3435 C.ar    1  UNL1        0.1022
      9 C         -16.7941   -8.4678   19.2946 C.ar    1  UNL1        0.1196
     10 N         -16.3040   -9.6263   18.4776 N.ar    1  UNL1       -0.2220
     11 C         -14.9093   -9.3148   18.0215 C.ar    1  UNL1        0.1828
     12 O          -9.3090   -5.1478   17.7002 O.3     1  UNL1       -0.4755
     13 C          -9.1809   -4.1167   16.6184 C.3     1  UNL1        0.2054
     14 C         -10.3690   -3.2891   16.2266 C.3     1  UNL1        0.0473
     15 C         -10.6363   -1.9856   16.9192 C.3     1  UNL1        0.0039
     16 C         -10.9830   -1.9690   18.3785 C.3     1  UNL1        0.0016
     17 C         -12.3341   -1.4926   18.8230 C.3     1  UNL1        0.0173
     18 C         -13.5485   -2.3343   18.5647 C.3     1  UNL1        0.0722
     19 C         -13.8595   -3.1670   21.0060 C.3     1  UNL1        0.0897
     20 N         -14.4486   -2.7208   19.7007 N.3     1  UNL1       -0.2703
     21 C         -15.9378   -2.6611   19.5314 C.3     1  UNL1        0.0897
@<TRIPOS>BOND
     1    19    20    1
     2    20    21    1
     3    20    18    1
     4    18    17    1
     5    17    16    1
     6    16    15    1
     7    15    14    1
     8    14    13    1
     9    13    12    1
    10    12     1    1
    11     1     2   ar
    12     2     3   ar
    13     3     4   ar
    14     4     7    1
    15     7     8   ar
    16     8     9   ar
    17     9    10   ar
    18    10    11   ar
    19     4     5   ar
    20     5     6   ar
    21     6     1   ar
    22    11     7   ar
@<TRIPOS>MOLECULE
*****
 21 22 0 0 0
SMALL
GASTEIGER

@<TRIPOS>ATOM
      1 C         -12.7801   -6.1439   19.1474 C.ar    1  UNL1        0.1386
      2 C         -12.6262   -7.3464   18.2641 C.ar    1  UNL1        0.0384
      3 C         -13.8191   -8.1958   17.9390 C.ar    1  UNL1        0.0207
      4 C         -15.1657   -7.8427   18.4972 C.ar    1  UNL1        0.0657
      5 C         -15.3196   -6.6402   19.3805 C.ar    1  UNL1        0.0207
      6 C         -14.1268   -5.7908   19.7056 C.ar    1  UNL1        0.0384
      7 N         -16.3586   -8.6921   18.1721 N.ar    1  UNL1       -0.2864
      8 C         -17.5788   -8.2481   17.4211 C.ar    1  UNL1        0.1022
      9 C         -18.5150   -9.4162   17.3258 C.ar    1  UNL1        0.1196
     10 N         -17.8734  -10.5821   18.0179 N.ar    1  UNL1       -0.2220
     11 C         -16.5407  -10.1345   18.5410 C.ar    1  UNL1        0.1828
     12 O         -11.5872   -5.2946   19.4725 O.3     1  UNL1       -0.4755
     13 C         -10.2344   -5.6670   18.9422 C.3     1  UNL1        0.2054
     14 C          -9.5688   -4.8034   17.9121 C.3     1  UNL1        0.0473
     15 C          -9.9559   -4.9250   16.4680 C.3     1  UNL1        0.0039
     16 C         -11.3395   -4.5479   16.0280 C.3     1  UNL1        0.0016
     17 C         -11.8446   -3.1538   16.2545 C.3     1  UNL1        0.0173
     18 C         -13.0387   -2.9220   17.1322 C.3     1  UNL1        0.0722
     19 C         -11.5361   -1.6994   18.8636 C.3     1  UNL1        0.0897
     20 N         -12.8716   -2.2539   18.4648 N.3     1  UNL1       -0.2703
     21 C         -14.0400   -2.1403   19.3986 C.3     1  UNL1        0.0897
@<TRIPOS>BOND
     1    19    20    1
     2    20    21    1
     3    20    18    1
     4    18    17    1
     5    17    16    1
     6    16    15    1
     7    15    14    1
     8    14    13    1
     9    13    12    1
    10    12     1    1
    11     1     2   ar
    12     2     3   ar
    13     3     4   ar
    14     4     7    1
    15     7     8   ar
    16     8     9   ar
    17     9    10   ar
    18    10    11   ar
    19     4     5   ar
    20     5     6   ar
    21     6     1   ar
    22    11     7   ar
