@<TRIPOS>MOLECULE
*****
 27 29 0 0 0
SMALL
GASTEIGER

@<TRIPOS>ATOM
      1 C           5.1939   -0.7375   34.1588 C.ar    1  UNL1        0.0506
      2 C           4.2623   -1.8776   33.8718 C.ar    1  UNL1        0.0160
      3 C           4.7060   -3.0038   32.9859 C.ar    1  UNL1        0.0160
      4 C           6.0813   -2.9899   32.3871 C.ar    1  UNL1        0.0507
      5 C           7.0128   -1.8498   32.6742 C.ar    1  UNL1        0.0160
      6 C           6.5691   -0.7236   33.5600 C.ar    1  UNL1        0.0160
      7 C           5.2449    0.4705   36.4584 C.2     1  UNL1        0.2496
      8 O           6.1833   -0.5739   36.9863 O.2     1  UNL1       -0.2698
      9 N           4.7502    0.3887   35.0448 N.am    1  UNL1       -0.2804
     10 H           4.1343    1.0742   34.6983 H       1  UNL1        0.1552
     11 C           3.0645    2.6200   38.9835 C.ar    1  UNL1        0.1389
     12 C           3.9139    3.8492   39.1161 C.ar    1  UNL1        0.0369
     13 C           5.2069    3.9522   38.3628 C.ar    1  UNL1        0.0033
     14 C           5.6506    2.8260   37.4769 C.ar    1  UNL1        0.0047
     15 C           4.8012    1.5968   37.3443 C.ar    1  UNL1        0.0567
     16 C           3.5082    1.4938   38.0976 C.ar    1  UNL1        0.0414
     17 C           0.9089    1.2995   39.5831 C.3     1  UNL1        0.2525
     18 O           1.7715    2.5169   39.7368 O.3     1  UNL1       -0.4714
     19 N           6.5249   -4.1162   31.5012 N.am    1  UNL1       -0.2779
     20 C           6.5609   -3.9305   30.0132 C.2     1  UNL1        0.2842
     21 O           6.1532   -2.6185   29.4110 O.2     1  UNL1       -0.2665
     22 H           6.7925   -4.9772   31.8964 H       1  UNL1        0.1553
     23 C           7.0045   -5.0567   29.1274 C.ar    1  UNL1        0.1988
     24 C           6.5685   -5.2888   27.7111 C.ar    1  UNL1        0.0455
     25 C           7.2566   -6.5242   27.2107 C.ar    1  UNL1        0.0440
     26 C           8.1180   -7.0556   28.3178 C.ar    1  UNL1        0.1798
     27 O           7.9622   -6.1487   29.5024 O.2     1  UNL1       -0.4458
@<TRIPOS>BOND
     1    17    18    1
     2    18    11    1
     3    11    12   ar
     4    12    13   ar
     5    13    14   ar
     6    14    15   ar
     7    15     7    1
     8     7     8    2
     9     7     9   am
    10     9     1    1
    11     1     2   ar
    12     2     3   ar
    13     3     4   ar
    14     4    19    1
    15    19    20   am
    16    20    21    2
    17    20    23    1
    18    23    24   ar
    19    24    25   ar
    20    25    26   ar
    21    26    27   ar
    22     4     5   ar
    23     5     6   ar
    24    15    16   ar
    25    16    11   ar
    26     6     1   ar
    27    27    23   ar
    28     9    10    1
    29    19    22    1
@<TRIPOS>MOLECULE
*****
 27 29 0 0 0
SMALL
GASTEIGER

@<TRIPOS>ATOM
      1 C           3.8711   -1.3678   27.4709 C.ar    1  UNL1        0.0506
      2 C           5.1892   -1.4077   28.1857 C.ar    1  UNL1        0.0160
      3 C           5.3066   -0.8518   29.5739 C.ar    1  UNL1        0.0160
      4 C           4.1060   -0.2559   30.2472 C.ar    1  UNL1        0.0507
      5 C           2.7879   -0.2160   29.5324 C.ar    1  UNL1        0.0160
      6 C           2.6704   -0.7719   28.1442 C.ar    1  UNL1        0.0160
      7 C           4.1628   -1.0909   24.9041 C.2     1  UNL1        0.2496
      8 O           4.6895    0.2979   25.1138 O.2     1  UNL1       -0.2698
      9 N           3.7536   -1.9237   26.0826 N.am    1  UNL1       -0.2804
     10 H           3.4079   -2.8352   25.9450 H       1  UNL1        0.1552
     11 C           3.1319   -1.4676   21.0902 C.ar    1  UNL1        0.1389
     12 C           3.8103   -2.7585   20.7394 C.ar    1  UNL1        0.0369
     13 C           4.6062   -3.4936   21.7768 C.ar    1  UNL1        0.0033
     14 C           4.7237   -2.9378   23.1650 C.ar    1  UNL1        0.0047
     15 C           4.0453   -1.6468   23.5158 C.ar    1  UNL1        0.0567
     16 C           3.2494   -0.9117   22.4784 C.ar    1  UNL1        0.0414
     17 C           0.9190   -0.3325   20.3390 C.3     1  UNL1        0.2525
     18 O           2.3360   -0.7324   20.0529 O.3     1  UNL1       -0.4714
     19 N           4.2234    0.3000   31.6355 N.am    1  UNL1       -0.2779
     20 C           4.0329   -0.5981   32.8217 C.2     1  UNL1        0.2842
     21 O           3.7248   -2.0522   32.6197 O.2     1  UNL1       -0.2665
     22 H           4.4256    1.2543   31.7681 H       1  UNL1        0.1553
     23 C           4.1503   -0.0422   34.2099 C.ar    1  UNL1        0.1988
     24 C           4.8743   -0.6817   35.3574 C.ar    1  UNL1        0.0455
     25 C           4.7359    0.2162   36.5511 C.ar    1  UNL1        0.0440
     26 C           3.9264    1.4107   36.1412 C.ar    1  UNL1        0.1798
     27 O           3.5645    1.2510   34.6943 O.2     1  UNL1       -0.4458
@<TRIPOS>BOND
     1    17    18    1
     2    18    11    1
     3    11    12   ar
     4    12    13   ar
     5    13    14   ar
     6    14    15   ar
     7    15     7    1
     8     7     8    2
     9     7     9   am
    10     9     1    1
    11     1     2   ar
    12     2     3   ar
    13     3     4   ar
    14     4    19    1
    15    19    20   am
    16    20    21    2
    17    20    23    1
    18    23    24   ar
    19    24    25   ar
    20    25    26   ar
    21    26    27   ar
    22     4     5   ar
    23     5     6   ar
    24    15    16   ar
    25    16    11   ar
    26     6     1   ar
    27    27    23   ar
    28     9    10    1
    29    19    22    1
@<TRIPOS>MOLECULE
*****
 27 29 0 0 0
SMALL
GASTEIGER

@<TRIPOS>ATOM
      1 C          -0.3191    2.7445   20.8444 C.ar    1  UNL1        0.0506
      2 C          -1.4815    3.2517   20.0435 C.ar    1  UNL1        0.0160
      3 C          -2.6175    3.9502   20.7301 C.ar    1  UNL1        0.0160
      4 C          -2.5911    4.1417   22.2176 C.ar    1  UNL1        0.0507
      5 C          -1.4286    3.6345   23.0185 C.ar    1  UNL1        0.0160
      6 C          -0.2926    2.9359   22.3319 C.ar    1  UNL1        0.0160
      7 C           0.8521    0.5473   20.1021 C.2     1  UNL1        0.2496
      8 O          -0.2488   -0.2526   20.7330 O.2     1  UNL1       -0.2698
      9 N           0.8170    2.0459   20.1578 N.am    1  UNL1       -0.2804
     10 H           1.5395    2.5709   19.7437 H       1  UNL1        0.1552
     11 C           3.6410   -2.1504   19.2689 C.ar    1  UNL1        0.1389
     12 C           4.2601   -1.5485   18.0424 C.ar    1  UNL1        0.0369
     13 C           3.7433   -0.2480   17.5025 C.ar    1  UNL1        0.0033
     14 C           2.6073    0.4506   18.1890 C.ar    1  UNL1        0.0047
     15 C           1.9881   -0.1513   19.4155 C.ar    1  UNL1        0.0567
     16 C           2.5050   -1.4518   19.9554 C.ar    1  UNL1        0.0414
     17 C           4.4881   -4.5740   18.8710 C.3     1  UNL1        0.2525
     18 O           4.1578   -3.4510   19.8088 O.3     1  UNL1       -0.4714
     19 N          -3.7271    4.8403   22.9042 N.am    1  UNL1       -0.2779
     20 C          -4.9701    4.0798   23.2599 C.2     1  UNL1        0.2842
     21 O          -5.0772    2.6207   22.9290 O.2     1  UNL1       -0.2665
     22 H          -3.6569    5.7980   23.1214 H       1  UNL1        0.1553
     23 C          -6.1061    4.7784   23.9465 C.ar    1  UNL1        0.1988
     24 C          -7.5394    4.7759   23.5039 C.ar    1  UNL1        0.0455
     25 C          -8.3274    5.5982   24.4802 C.ar    1  UNL1        0.0440
     26 C          -7.3811    6.1090   25.5260 C.ar    1  UNL1        0.1798
     27 O          -6.0083    5.6024   25.1962 O.2     1  UNL1       -0.4458
@<TRIPOS>BOND
     1    17    18    1
     2    18    11    1
     3    11    12   ar
     4    12    13   ar
     5    13    14   ar
     6    14    15   ar
     7    15     7    1
     8     7     8    2
     9     7     9   am
    10     9     1    1
    11     1     2   ar
    12     2     3   ar
    13     3     4   ar
    14     4    19    1
    15    19    20   am
    16    20    21    2
    17    20    23    1
    18    23    24   ar
    19    24    25   ar
    20    25    26   ar
    21    26    27   ar
    22     4     5   ar
    23     5     6   ar
    24    15    16   ar
    25    16    11   ar
    26     6     1   ar
    27    27    23   ar
    28     9    10    1
    29    19    22    1
@<TRIPOS>MOLECULE
*****
 27 29 0 0 0
SMALL
GASTEIGER

@<TRIPOS>ATOM
      1 C          -0.6062    2.1173   27.6211 C.ar    1  UNL1        0.0506
      2 C           0.8169    2.5752   27.7432 C.ar    1  UNL1        0.0160
      3 C           1.8383    1.6854   28.3874 C.ar    1  UNL1        0.0160
      4 C           1.4366    0.3378   28.9095 C.ar    1  UNL1        0.0507
      5 C           0.0134   -0.1200   28.7874 C.ar    1  UNL1        0.0160
      6 C          -1.0080    0.7697   28.1432 C.ar    1  UNL1        0.0160
      7 C          -1.6884    3.1198   25.4824 C.2     1  UNL1        0.2496
      8 O          -0.7277    2.3427   24.6320 O.2     1  UNL1       -0.2698
      9 N          -1.6277    3.0071   26.9769 N.am    1  UNL1       -0.2804
     10 H          -2.2583    3.5172   27.5350 H       1  UNL1        0.1552
     11 C          -4.9652    4.3045   23.5825 C.ar    1  UNL1        0.1389
     12 C          -4.7528    5.7890   23.5498 C.ar    1  UNL1        0.0369
     13 C          -3.5190    6.3838   24.1613 C.ar    1  UNL1        0.0033
     14 C          -2.4976    5.4941   24.8055 C.ar    1  UNL1        0.0047
     15 C          -2.7099    4.0096   24.8382 C.ar    1  UNL1        0.0567
     16 C          -3.9437    3.4148   24.2267 C.ar    1  UNL1        0.0414
     17 C          -7.4884    4.4757   22.9878 C.3     1  UNL1        0.2525
     18 O          -6.1990    3.7097   22.9710 O.3     1  UNL1       -0.4714
     19 N           2.4580   -0.5520   29.5537 N.am    1  UNL1       -0.2779
     20 C           2.8133   -0.3624   30.9986 C.2     1  UNL1        0.2842
     21 O           2.1471    0.7169   31.7993 O.2     1  UNL1       -0.2665
     22 H           2.8953   -1.2604   29.0281 H       1  UNL1        0.1553
     23 C           3.8347   -1.2522   31.6427 C.ar    1  UNL1        0.1988
     24 C           5.1930   -1.5760   31.0947 C.ar    1  UNL1        0.0455
     25 C           5.8750   -2.4983   32.0613 C.ar    1  UNL1        0.0440
     26 C           4.9382   -2.7446   33.2067 C.ar    1  UNL1        0.1798
     27 O           3.6773   -1.9745   32.9480 O.2     1  UNL1       -0.4458
@<TRIPOS>BOND
     1    17    18    1
     2    18    11    1
     3    11    12   ar
     4    12    13   ar
     5    13    14   ar
     6    14    15   ar
     7    15     7    1
     8     7     8    2
     9     7     9   am
    10     9     1    1
    11     1     2   ar
    12     2     3   ar
    13     3     4   ar
    14     4    19    1
    15    19    20   am
    16    20    21    2
    17    20    23    1
    18    23    24   ar
    19    24    25   ar
    20    25    26   ar
    21    26    27   ar
    22     4     5   ar
    23     5     6   ar
    24    15    16   ar
    25    16    11   ar
    26     6     1   ar
    27    27    23   ar
    28     9    10    1
    29    19    22    1
@<TRIPOS>MOLECULE
*****
 27 29 0 0 0
SMALL
GASTEIGER

@<TRIPOS>ATOM
      1 C           6.3978   -2.9600   32.5047 C.ar    1  UNL1        0.0506
      2 C           7.1735   -1.7201   32.8379 C.ar    1  UNL1        0.0160
      3 C           6.5059   -0.5905   33.5646 C.ar    1  UNL1        0.0160
      4 C           5.0626   -0.7006   33.9580 C.ar    1  UNL1        0.0507
      5 C           4.2869   -1.9404   33.6248 C.ar    1  UNL1        0.0160
      6 C           4.9545   -3.0701   32.8981 C.ar    1  UNL1        0.0160
      7 C           6.9750   -4.1775   30.2834 C.2     1  UNL1        0.2496
      8 O           6.2171   -3.1356   29.5153 O.2     1  UNL1       -0.2698
      9 N           7.0654   -4.0897   31.7780 N.am    1  UNL1       -0.2804
     10 H           7.5629   -4.7736   32.2821 H       1  UNL1        0.1552
     11 C           7.7518   -6.9237   27.5256 C.ar    1  UNL1        0.1389
     12 C           8.9777   -7.5667   28.1033 C.ar    1  UNL1        0.0369
     13 C           9.5360   -7.0801   29.4077 C.ar    1  UNL1        0.0033
     14 C           8.8685   -5.9504   30.1344 C.ar    1  UNL1        0.0047
     15 C           7.6426   -5.3073   29.5567 C.ar    1  UNL1        0.0567
     16 C           7.0843   -5.7940   28.2523 C.ar    1  UNL1        0.0414
     17 C           8.0867   -7.5337   25.0224 C.3     1  UNL1        0.2525
     18 O           7.1935   -7.4104   26.2212 O.3     1  UNL1       -0.4714
     19 N           4.3950    0.4292   34.6847 N.am    1  UNL1       -0.2779
     20 C           4.5840    0.5847   36.1646 C.2     1  UNL1        0.2842
     21 O           5.4405   -0.3894   36.9178 O.2     1  UNL1       -0.2665
     22 H           3.8329    1.0686   34.1903 H       1  UNL1        0.1553
     23 C           3.9164    1.7145   36.8912 C.ar    1  UNL1        0.1988
     24 C           4.5432    2.5769   37.9463 C.ar    1  UNL1        0.0455
     25 C           3.5189    3.5756   38.3975 C.ar    1  UNL1        0.0440
     26 C           2.2590    3.3304   37.6212 C.ar    1  UNL1        0.1798
     27 O           2.5047    2.1802   36.6903 O.2     1  UNL1       -0.4458
@<TRIPOS>BOND
     1    17    18    1
     2    18    11    1
     3    11    12   ar
     4    12    13   ar
     5    13    14   ar
     6    14    15   ar
     7    15     7    1
     8     7     8    2
     9     7     9   am
    10     9     1    1
    11     1     2   ar
    12     2     3   ar
    13     3     4   ar
    14     4    19    1
    15    19    20   am
    16    20    21    2
    17    20    23    1
    18    23    24   ar
    19    24    25   ar
    20    25    26   ar
    21    26    27   ar
    22     4     5   ar
    23     5     6   ar
    24    15    16   ar
    25    16    11   ar
    26     6     1   ar
    27    27    23   ar
    28     9    10    1
    29    19    22    1
@<TRIPOS>MOLECULE
*****
 27 29 0 0 0
SMALL
GASTEIGER

@<TRIPOS>ATOM
      1 C           4.5476   -1.6066   26.6810 C.ar    1  UNL1        0.0506
      2 C           3.3661   -1.2423   27.5302 C.ar    1  UNL1        0.0160
      3 C           3.5697   -0.8042   28.9502 C.ar    1  UNL1        0.0160
      4 C           4.9549   -0.7304   29.5210 C.ar    1  UNL1        0.0507
      5 C           6.1364   -1.0947   28.6718 C.ar    1  UNL1        0.0160
      6 C           5.9328   -1.5328   27.2517 C.ar    1  UNL1        0.0160
      7 C           3.9216   -1.0487   24.2219 C.2     1  UNL1        0.2496
      8 O           3.7028    0.3855   24.6030 O.2     1  UNL1       -0.2698
      9 N           4.3439   -2.0447   25.2609 N.am    1  UNL1       -0.2804
     10 H           4.4875   -2.9860   25.0107 H       1  UNL1        0.1552
     11 C           4.1996   -3.1580   20.8717 C.ar    1  UNL1        0.1389
     12 C           3.3107   -2.3631   19.9618 C.ar    1  UNL1        0.0369
     13 C           2.6254   -1.1302   20.4718 C.ar    1  UNL1        0.0033
     14 C           2.8290   -0.6920   21.8918 C.ar    1  UNL1        0.0047
     15 C           3.7179   -1.4868   22.8018 C.ar    1  UNL1        0.0567
     16 C           4.4032   -2.7198   22.2917 C.ar    1  UNL1        0.0414
     17 C           4.5561   -4.9219   18.9979 C.3     1  UNL1        0.2525
     18 O           4.8849   -4.3909   20.3616 O.3     1  UNL1       -0.4714
     19 N           5.1586   -0.2922   30.9411 N.am    1  UNL1       -0.2779
     20 C           5.4549   -1.3080   32.0042 C.2     1  UNL1        0.2842
     21 O           5.5476   -2.7620   31.6474 O.2     1  UNL1       -0.2665
     22 H           5.0977    0.6621   31.1754 H       1  UNL1        0.1553
     23 C           5.6586   -0.8699   33.4243 C.ar    1  UNL1        0.1988
     24 C           4.6434   -0.9494   34.5257 C.ar    1  UNL1        0.0455
     25 C           5.2706   -0.4039   35.7744 C.ar    1  UNL1        0.0440
     26 C           6.6734    0.0128   35.4447 C.ar    1  UNL1        0.1798
     27 O           6.9132   -0.2752   33.9923 O.2     1  UNL1       -0.4458
@<TRIPOS>BOND
     1    17    18    1
     2    18    11    1
     3    11    12   ar
     4    12    13   ar
     5    13    14   ar
     6    14    15   ar
     7    15     7    1
     8     7     8    2
     9     7     9   am
    10     9     1    1
    11     1     2   ar
    12     2     3   ar
    13     3     4   ar
    14     4    19    1
    15    19    20   am
    16    20    21    2
    17    20    23    1
    18    23    24   ar
    19    24    25   ar
    20    25    26   ar
    21    26    27   ar
    22     4     5   ar
    23     5     6   ar
    24    15    16   ar
    25    16    11   ar
    26     6     1   ar
    27    27    23   ar
    28     9    10    1
    29    19    22    1
@<TRIPOS>MOLECULE
*****
 27 29 0 0 0
SMALL
GASTEIGER

@<TRIPOS>ATOM
      1 C          -1.4398    3.1911   25.8591 C.ar    1  UNL1        0.0506
      2 C          -0.7865    1.8410   25.8810 C.ar    1  UNL1        0.0160
      3 C           0.2021    1.5037   26.9574 C.ar    1  UNL1        0.0160
      4 C           0.5375    2.5164   28.0119 C.ar    1  UNL1        0.0507
      5 C          -0.1157    3.8665   27.9899 C.ar    1  UNL1        0.0160
      6 C          -1.1044    4.2038   26.9135 C.ar    1  UNL1        0.0160
      7 C          -3.8713    3.7453   25.1307 C.2     1  UNL1        0.2496
      8 O          -4.3255    3.6248   26.5552 O.2     1  UNL1       -0.2698
      9 N          -2.4285    3.5284   24.7826 N.am    1  UNL1       -0.2804
     10 H          -2.1304    3.6075   23.8476 H       1  UNL1        0.1552
     11 C          -7.2899    4.6456   23.3272 C.ar    1  UNL1        0.1389
     12 C          -6.8374    4.7574   21.9015 C.ar    1  UNL1        0.0369
     13 C          -5.3962    4.5318   21.5521 C.ar    1  UNL1        0.0033
     14 C          -4.4075    4.1945   22.6285 C.ar    1  UNL1        0.0047
     15 C          -4.8600    4.0827   24.0542 C.ar    1  UNL1        0.0567
     16 C          -6.3012    4.3083   24.4035 C.ar    1  UNL1        0.0414
     17 C          -9.1148    6.0023   24.5839 C.3     1  UNL1        0.2525
     18 O          -8.7311    4.8712   23.6765 O.3     1  UNL1       -0.4714
     19 N           1.5262    2.1790   29.0884 N.am    1  UNL1       -0.2779
     20 C           1.0712    1.4695   30.3291 C.2     1  UNL1        0.2842
     21 O          -0.3726    1.0974   30.4934 O.2     1  UNL1       -0.2665
     22 H           2.4738    2.4233   28.9805 H       1  UNL1        0.1553
     23 C           2.0599    1.1322   31.4055 C.ar    1  UNL1        0.1988
     24 C           2.3646    1.9650   32.6153 C.ar    1  UNL1        0.0455
     25 C           3.4106    1.2503   33.4186 C.ar    1  UNL1        0.0440
     26 C           3.7523   -0.0243   32.7052 C.ar    1  UNL1        0.1798
     27 O           2.9175   -0.0972   31.4611 O.2     1  UNL1       -0.4458
@<TRIPOS>BOND
     1    17    18    1
     2    18    11    1
     3    11    12   ar
     4    12    13   ar
     5    13    14   ar
     6    14    15   ar
     7    15     7    1
     8     7     8    2
     9     7     9   am
    10     9     1    1
    11     1     2   ar
    12     2     3   ar
    13     3     4   ar
    14     4    19    1
    15    19    20   am
    16    20    21    2
    17    20    23    1
    18    23    24   ar
    19    24    25   ar
    20    25    26   ar
    21    26    27   ar
    22     4     5   ar
    23     5     6   ar
    24    15    16   ar
    25    16    11   ar
    26     6     1   ar
    27    27    23   ar
    28     9    10    1
    29    19    22    1
@<TRIPOS>MOLECULE
*****
 27 29 0 0 0
SMALL
GASTEIGER

@<TRIPOS>ATOM
      1 C           0.9836    2.2285   19.3197 C.ar    1  UNL1        0.0506
      2 C           0.6874    2.5798   20.7476 C.ar    1  UNL1        0.0160
      3 C          -0.4903    3.4482   21.0774 C.ar    1  UNL1        0.0160
      4 C          -1.3718    3.9653   19.9794 C.ar    1  UNL1        0.0507
      5 C          -1.0755    3.6140   18.5515 C.ar    1  UNL1        0.0160
      6 C           0.1022    2.7456   18.2217 C.ar    1  UNL1        0.0160
      7 C           2.1281   -0.1039   19.3146 C.2     1  UNL1        0.2496
      8 O           0.9171   -0.6996   19.9692 O.2     1  UNL1       -0.2698
      9 N           2.1614    1.3601   18.9898 N.am    1  UNL1       -0.2804
     10 H           2.9563    1.7511   18.5601 H       1  UNL1        0.1552
     11 C           5.6122   -1.2931   17.8323 C.ar    1  UNL1        0.1389
     12 C           5.6614   -2.7090   18.3249 C.ar    1  UNL1        0.0369
     13 C           4.5328   -3.2566   19.1474 C.ar    1  UNL1        0.0033
     14 C           3.3551   -2.3882   19.4773 C.ar    1  UNL1        0.0047
     15 C           3.3059   -0.9723   18.9847 C.ar    1  UNL1        0.0567
     16 C           4.4345   -0.4247   18.1622 C.ar    1  UNL1        0.0414
     17 C           6.8002    0.7209   16.6999 C.3     1  UNL1        0.2525
     18 O           6.7408   -0.7455   17.0098 O.3     1  UNL1       -0.4714
     19 N          -2.5496    4.8337   20.3092 N.am    1  UNL1       -0.2779
     20 C          -3.8098    4.2181   20.8409 C.2     1  UNL1        0.2842
     21 O          -3.8924    2.7340   21.0428 O.2     1  UNL1       -0.2665
     22 H          -2.4954    5.8078   20.1768 H       1  UNL1        0.1553
     23 C          -4.9875    5.0865   21.1708 C.ar    1  UNL1        0.1988
     24 C          -6.3934    4.8863   20.6877 C.ar    1  UNL1        0.0455
     25 C          -7.2409    5.9838   21.2600 C.ar    1  UNL1        0.0440
     26 C          -6.3588    6.8621   22.0969 C.ar    1  UNL1        0.1798
     27 O          -4.9661    6.3076   22.0417 O.2     1  UNL1       -0.4458
@<TRIPOS>BOND
     1    17    18    1
     2    18    11    1
     3    11    12   ar
     4    12    13   ar
     5    13    14   ar
     6    14    15   ar
     7    15     7    1
     8     7     8    2
     9     7     9   am
    10     9     1    1
    11     1     2   ar
    12     2     3   ar
    13     3     4   ar
    14     4    19    1
    15    19    20   am
    16    20    21    2
    17    20    23    1
    18    23    24   ar
    19    24    25   ar
    20    25    26   ar
    21    26    27   ar
    22     4     5   ar
    23     5     6   ar
    24    15    16   ar
    25    16    11   ar
    26     6     1   ar
    27    27    23   ar
    28     9    10    1
    29    19    22    1
@<TRIPOS>MOLECULE
*****
 27 29 0 0 0
SMALL
GASTEIGER

@<TRIPOS>ATOM
      1 C           6.0978   -2.6516   32.3211 C.ar    1  UNL1        0.0506
      2 C           4.7379   -2.7820   32.9404 C.ar    1  UNL1        0.0160
      3 C           4.3161   -1.8401   34.0289 C.ar    1  UNL1        0.0160
      4 C           5.2543   -0.7678   34.4981 C.ar    1  UNL1        0.0507
      5 C           6.6142   -0.6375   33.8788 C.ar    1  UNL1        0.0160
      6 C           7.0360   -1.5794   32.7903 C.ar    1  UNL1        0.0160
      7 C           6.3270   -3.2125   29.7946 C.2     1  UNL1        0.2496
      8 O           5.7125   -1.8895   29.4452 O.2     1  UNL1       -0.2698
      9 N           6.5197   -3.5936   31.2325 N.am    1  UNL1       -0.2804
     10 H           6.9230   -4.4619   31.4618 H       1  UNL1        0.1552
     11 C           7.6873   -6.4610   27.9651 C.ar    1  UNL1        0.1389
     12 C           7.5925   -6.0382   26.5291 C.ar    1  UNL1        0.0369
     13 C           7.0758   -4.6736   26.1815 C.ar    1  UNL1        0.0033
     14 C           6.6540   -3.7317   27.2700 C.ar    1  UNL1        0.0047
     15 C           6.7488   -4.1544   28.7060 C.ar    1  UNL1        0.0567
     16 C           7.2654   -5.5191   29.0536 C.ar    1  UNL1        0.0414
     17 C           9.5354   -8.2788   27.7913 C.3     1  UNL1        0.2525
     18 O           8.2039   -7.8256   28.3127 O.3     1  UNL1       -0.4714
     19 N           4.8325    0.1741   35.5866 N.am    1  UNL1       -0.2779
     20 C           3.8741    1.2879   35.2850 C.2     1  UNL1        0.2842
     21 O           3.3375    1.4597   33.8949 O.2     1  UNL1       -0.2665
     22 H           5.1847    0.0613   36.4990 H       1  UNL1        0.1553
     23 C           3.4523    2.2297   36.3736 C.ar    1  UNL1        0.1988
     24 C           4.2770    3.3464   36.9419 C.ar    1  UNL1        0.0455
     25 C           3.4661    4.0271   38.0046 C.ar    1  UNL1        0.0440
     26 C           2.1402    3.3311   38.0929 C.ar    1  UNL1        0.1798
     27 O           2.1317    2.2203   37.0850 O.2     1  UNL1       -0.4458
@<TRIPOS>BOND
     1    17    18    1
     2    18    11    1
     3    11    12   ar
     4    12    13   ar
     5    13    14   ar
     6    14    15   ar
     7    15     7    1
     8     7     8    2
     9     7     9   am
    10     9     1    1
    11     1     2   ar
    12     2     3   ar
    13     3     4   ar
    14     4    19    1
    15    19    20   am
    16    20    21    2
    17    20    23    1
    18    23    24   ar
    19    24    25   ar
    20    25    26   ar
    21    26    27   ar
    22     4     5   ar
    23     5     6   ar
    24    15    16   ar
    25    16    11   ar
    26     6     1   ar
    27    27    23   ar
    28     9    10    1
    29    19    22    1
