@<TRIPOS>MOLECULE
*****
 49 55 0 0 0
SMALL
GASTEIGER

@<TRIPOS>ATOM
      1 C           3.5930   -0.4905   23.9908 C.3     1  UNL1        0.1543
      2 N           2.3601    0.2175   24.4691 N.am    1  UNL1       -0.2822
      3 C           1.8191    1.3850   23.6983 C.2     1  UNL1        0.3043
      4 O           2.5109    1.8446   22.4493 O.2     1  UNL1       -0.2526
      5 N           0.5862    2.0929   24.1765 N.am    1  UNL1       -0.2641
      6 C           0.0451    3.2605   23.4057 C.3     1  UNL1        0.0966
      7 C          -1.1879    3.9684   23.8840 C.3     1  UNL1        0.0415
      8 C          -1.8797    3.5088   25.1330 C.3     1  UNL1        0.0806
      9 C          -1.3386    2.3413   25.9038 C.3     1  UNL1        0.0415
     10 C          -0.1057    1.6333   25.4256 C.3     1  UNL1        0.0966
     11 H           1.9060   -0.0842   25.2888 H       1  UNL1        0.1514
     12 N          -3.1126    4.2167   25.6112 N.am    1  UNL1       -0.2613
     13 C          -3.0107    5.2559   26.6881 C.3     1  UNL1        0.1229
     14 C          -4.2437    5.9639   27.1664 C.ar    1  UNL1        0.0135
     15 C          -4.1417    7.0031   28.2432 C.ar    1  UNL1       -0.0012
     16 C          -5.3746    7.7110   28.7215 C.ar    1  UNL1        0.0021
     17 C          -6.7096    7.3797   28.1228 C.ar    1  UNL1        0.0309
     18 C          -6.8115    6.3405   27.0459 C.ar    1  UNL1        0.1532
     19 F          -8.1463    6.0093   26.4473 F       1  UNL1       -0.2029
     20 C          -5.5785    5.6326   26.5677 C.ar    1  UNL1        0.0768
     21 N          -5.6804    4.5934   25.4908 N.am    1  UNL1       -0.2665
     22 C          -4.4475    3.8855   25.0126 C.2     1  UNL1        0.3079
     23 O          -4.5495    2.8463   23.9357 O.2     1  UNL1       -0.2522
     24 H          -6.5565    4.3760   25.0979 H       1  UNL1        0.1565
     25 C           4.9466   -0.0259   24.4403 C.2     1  UNL1        0.2439
     26 O           5.7137    0.9619   23.6121 O.2     1  UNL1       -0.2731
     27 N           5.5331   -0.5491   25.7179 N.am    1  UNL1       -0.2781
     28 C           4.7660   -1.5369   26.5460 C.3     1  UNL1        0.0948
     29 C           5.3525   -2.0602   27.8236 C.3     1  UNL1        0.0375
     30 C           6.7060   -1.5956   28.2731 C.3     1  UNL1        0.0609
     31 C           7.4731   -0.6078   27.4449 C.3     1  UNL1        0.0375
     32 C           6.8867   -0.0846   26.1673 C.3     1  UNL1        0.0948
     33 N           7.2925   -2.1189   29.5506 N.3     1  UNL1       -0.2738
     34 C           6.5191   -3.0953   30.3863 C.3     1  UNL1        0.0720
     35 C           7.1056   -3.6186   31.6639 C.3     1  UNL1        0.0174
     36 C           8.4655   -3.1654   32.1059 C.3     1  UNL1        0.0029
     37 C           9.2389   -2.1888   31.2701 C.3     1  UNL1        0.0174
     38 C           8.6524   -1.6656   29.9926 C.3     1  UNL1        0.0720
     39 C           3.4724   -1.6630   23.0631 C.3     1  UNL1        0.0553
     40 C           2.4150    0.0733   18.2811 C.3     1  UNL1        0.0287
     41 C           3.3247   -0.6513   19.2284 C.2     1  UNL1       -0.0163
     42 C           2.9437   -0.7949   20.6721 C.2     1  UNL1       -0.0105
     43 C           3.8534   -1.5194   21.6194 C.2     1  UNL1       -0.0208
     44 C           5.1442   -2.1005   21.1230 C.2     1  UNL1       -0.0046
     45 C           5.5252   -1.9569   19.6794 C.2     1  UNL1        0.0261
     46 C           6.7243   -2.4210   18.9068 C.2     1  UNL1        0.1197
     47 N           6.5556   -1.9832   17.4820 N.2     1  UNL1       -0.1508
     48 N           5.2523   -1.2486   17.3741 N.2     1  UNL1       -0.1677
     49 C           4.6155   -1.2323   18.7321 C.3     1  UNL1        0.1672
@<TRIPOS>BOND
     1    40    41    1
     2    41    42    2
     3    42    43    1
     4    43    39    1
     5     1    39    1
     6     1     2    1
     7     2     3   am
     8     3     4    2
     9     3     5   am
    10     5     6    1
    11     6     7    1
    12     7     8    1
    13     8    12    1
    14    12    13    1
    15    13    14    1
    16    14    15   ar
    17    15    16   ar
    18    16    17   ar
    19    17    18   ar
    20    18    19    1
    21    18    20   ar
    22    20    21    1
    23    21    22   am
    24    22    23    2
    25     8     9    1
    26     9    10    1
    27     1    25    1
    28    25    26    2
    29    25    27   am
    30    27    28    1
    31    28    29    1
    32    29    30    1
    33    30    33    1
    34    33    34    1
    35    34    35    1
    36    35    36    1
    37    36    37    1
    38    37    38    1
    39    30    31    1
    40    31    32    1
    41    43    44    2
    42    44    45    1
    43    45    46    2
    44    46    47    1
    45    47    48    2
    46    48    49    1
    47    49    41    1
    48    10     5    1
    49    32    27    1
    50    49    45    1
    51    22    12   am
    52    38    33    1
    53    20    14   ar
    54     2    11    1
    55    21    24    1
@<TRIPOS>MOLECULE
*****
 49 55 0 0 0
SMALL
GASTEIGER

@<TRIPOS>ATOM
      1 C           3.6479   -0.5825   23.9722 C.3     1  UNL1        0.1543
      2 N           2.4012    0.1218   24.4188 N.am    1  UNL1       -0.2822
      3 C           1.9212    1.3368   23.6817 C.2     1  UNL1        0.3043
      4 O           2.6879    1.8475   22.4980 O.2     1  UNL1       -0.2526
      5 N           0.6745    2.0412   24.1283 N.am    1  UNL1       -0.2641
      6 C           0.1945    3.2562   23.3912 C.3     1  UNL1        0.0966
      7 C          -1.0523    3.9606   23.8379 C.3     1  UNL1        0.0415
      8 C          -1.8190    3.4499   25.0217 C.3     1  UNL1        0.0806
      9 C          -1.3390    2.2349   25.7588 C.3     1  UNL1        0.0415
     10 C          -0.0923    1.5306   25.3121 C.3     1  UNL1        0.0966
     11 H           1.8979   -0.2133   25.1958 H       1  UNL1        0.1514
     12 N          -3.0657    4.1543   25.4683 N.am    1  UNL1       -0.2613
     13 C          -4.3031    4.0978   24.6223 C.3     1  UNL1        0.1229
     14 C          -5.5499    4.8022   25.0690 C.ar    1  UNL1        0.0135
     15 C          -6.7872    4.7458   24.2230 C.ar    1  UNL1       -0.0012
     16 C          -8.0339    5.4501   24.6696 C.ar    1  UNL1        0.0021
     17 C          -8.0433    6.2110   25.9623 C.ar    1  UNL1        0.0309
     18 C          -6.8060    6.2675   26.8083 C.ar    1  UNL1        0.1532
     19 F          -6.8153    7.0283   28.1010 F       1  UNL1       -0.2029
     20 C          -5.5592    5.5631   26.3616 C.ar    1  UNL1        0.0768
     21 N          -4.3219    5.6196   27.2076 N.am    1  UNL1       -0.2665
     22 C          -3.0751    4.9152   26.7610 C.2     1  UNL1        0.3079
     23 O          -1.8378    4.9717   27.6070 O.2     1  UNL1       -0.2522
     24 H          -4.3280    6.1189   28.0561 H       1  UNL1        0.1565
     25 C           4.9882   -0.1144   24.4563 C.2     1  UNL1        0.2439
     26 O           5.8166    0.7996   23.6028 O.2     1  UNL1       -0.2731
     27 N           5.5001   -0.5601   25.7939 N.am    1  UNL1       -0.2781
     28 C           4.6717   -1.4741   26.6474 C.3     1  UNL1        0.0948
     29 C           5.1836   -1.9199   27.9850 C.3     1  UNL1        0.0375
     30 C           6.5240   -1.4517   28.4691 C.3     1  UNL1        0.0609
     31 C           7.3524   -0.5377   27.6156 C.3     1  UNL1        0.0375
     32 C           6.8404   -0.0920   26.2780 C.3     1  UNL1        0.0948
     33 N           7.0359   -1.8974   29.8067 N.3     1  UNL1       -0.2738
     34 C           8.1066   -1.1089   30.5007 C.3     1  UNL1        0.0720
     35 C           8.6186   -1.5546   31.8384 C.3     1  UNL1        0.0174
     36 C           8.0598   -2.7889   32.4820 C.3     1  UNL1        0.0029
     37 C           6.9890   -3.5775   31.7879 C.3     1  UNL1        0.0174
     38 C           6.4770   -3.1317   30.4504 C.3     1  UNL1        0.0720
     39 C           3.5543   -1.7552   23.0414 C.3     1  UNL1        0.0553
     40 C           2.4913   -0.0396   18.2532 C.3     1  UNL1        0.0287
     41 C           3.4107   -0.7440   19.2064 C.2     1  UNL1       -0.0163
     42 C           3.0228   -0.8974   20.6473 C.2     1  UNL1       -0.0105
     43 C           3.9421   -1.6018   21.6005 C.2     1  UNL1       -0.0208
     44 C           5.2493   -2.1529   21.1129 C.2     1  UNL1       -0.0046
     45 C           5.6370   -1.9995   19.6720 C.2     1  UNL1        0.0261
     46 C           6.8518   -2.4356   18.9077 C.2     1  UNL1        0.1197
     47 N           6.6833   -2.0007   17.4820 N.2     1  UNL1       -0.1508
     48 N           5.3644   -1.2958   17.3653 N.2     1  UNL1       -0.1677
     49 C           4.7177   -1.2951   18.7188 C.3     1  UNL1        0.1672
@<TRIPOS>BOND
     1    40    41    1
     2    41    42    2
     3    42    43    1
     4    43    39    1
     5     1    39    1
     6     1     2    1
     7     2     3   am
     8     3     4    2
     9     3     5   am
    10     5     6    1
    11     6     7    1
    12     7     8    1
    13     8    12    1
    14    12    13    1
    15    13    14    1
    16    14    15   ar
    17    15    16   ar
    18    16    17   ar
    19    17    18   ar
    20    18    19    1
    21    18    20   ar
    22    20    21    1
    23    21    22   am
    24    22    23    2
    25     8     9    1
    26     9    10    1
    27     1    25    1
    28    25    26    2
    29    25    27   am
    30    27    28    1
    31    28    29    1
    32    29    30    1
    33    30    33    1
    34    33    34    1
    35    34    35    1
    36    35    36    1
    37    36    37    1
    38    37    38    1
    39    30    31    1
    40    31    32    1
    41    43    44    2
    42    44    45    1
    43    45    46    2
    44    46    47    1
    45    47    48    2
    46    48    49    1
    47    49    41    1
    48    10     5    1
    49    32    27    1
    50    49    45    1
    51    22    12   am
    52    38    33    1
    53    20    14   ar
    54     2    11    1
    55    21    24    1
@<TRIPOS>MOLECULE
*****
 49 55 0 0 0
SMALL
GASTEIGER

@<TRIPOS>ATOM
      1 C           1.8017    1.5963   21.0727 C.3     1  UNL1        0.1543
      2 N           2.2637    0.9181   22.3284 N.am    1  UNL1       -0.2822
      3 C           3.7245    0.8812   22.6669 C.2     1  UNL1        0.3043
      4 O           4.7234    1.5223   21.7497 O.2     1  UNL1       -0.2526
      5 N           4.1865    0.2030   23.9225 N.am    1  UNL1       -0.2641
      6 C           5.6474    0.1661   24.2610 C.3     1  UNL1        0.0966
      7 C           6.1094   -0.5121   25.5167 C.3     1  UNL1        0.0415
      8 C           5.1105   -1.1532   26.4338 C.3     1  UNL1        0.0806
      9 C           3.6497   -1.1163   26.0954 C.3     1  UNL1        0.0415
     10 C           3.1877   -0.4381   24.8397 C.3     1  UNL1        0.0966
     11 H           1.6081    0.4973   22.9304 H       1  UNL1        0.1514
     12 N           5.5725   -1.8314   27.6895 N.am    1  UNL1       -0.2613
     13 C           6.0453   -3.2541   27.6431 C.3     1  UNL1        0.1229
     14 C           6.5074   -3.9322   28.8988 C.ar    1  UNL1        0.0135
     15 C           6.9802   -5.3550   28.8524 C.ar    1  UNL1       -0.0012
     16 C           7.4422   -6.0331   30.1080 C.ar    1  UNL1        0.0021
     17 C           7.4314   -5.2885   31.4102 C.ar    1  UNL1        0.0309
     18 C           6.9586   -3.8657   31.4566 C.ar    1  UNL1        0.1532
     19 F           6.9478   -3.1210   32.7586 F       1  UNL1       -0.2029
     20 C           6.4965   -3.1876   30.2008 C.ar    1  UNL1        0.0768
     21 N           6.0237   -1.7648   30.2472 N.am    1  UNL1       -0.2665
     22 C           5.5617   -1.0867   28.9916 C.2     1  UNL1        0.3079
     23 O           5.0889    0.3361   29.0380 O.2     1  UNL1       -0.2522
     24 H           6.0166   -1.2761   31.1018 H       1  UNL1        0.1565
     25 C           1.5371    3.0727   21.0715 C.2     1  UNL1        0.2439
     26 O           2.6776    4.0392   21.1952 O.2     1  UNL1       -0.2731
     27 N           0.1320    3.5828   20.9466 N.am    1  UNL1       -0.2781
     28 C          -1.0084    2.6164   20.8229 C.3     1  UNL1        0.0948
     29 C          -2.4135    3.1264   20.6979 C.3     1  UNL1        0.0375
     30 C          -2.6781    4.6029   20.6967 C.3     1  UNL1        0.0609
     31 C          -1.5376    5.5693   20.8204 C.3     1  UNL1        0.0375
     32 C          -0.1325    5.0593   20.9454 C.3     1  UNL1        0.0948
     33 N          -4.0832    5.1129   20.5718 N.3     1  UNL1       -0.2738
     34 C          -5.2206    4.3279   21.1547 C.3     1  UNL1        0.0720
     35 C          -6.6257    4.8379   21.0297 C.3     1  UNL1        0.0174
     36 C          -6.8933    6.1331   20.3219 C.3     1  UNL1        0.0029
     37 C          -5.7558    6.9181   19.7390 C.3     1  UNL1        0.0174
     38 C          -4.3508    6.4081   19.8639 C.3     1  UNL1        0.0720
     39 C           1.6042    0.7979   19.8182 C.3     1  UNL1        0.0553
     40 C           3.4233   -4.0575   19.4769 C.3     1  UNL1        0.0287
     41 C           3.5727   -2.5916   19.1961 C.2     1  UNL1       -0.0163
     42 C           2.5137   -1.6298   19.6476 C.2     1  UNL1       -0.0105
     43 C           2.6631   -0.1639   19.3669 C.2     1  UNL1       -0.0208
     44 C           3.8714    0.3403   18.6347 C.2     1  UNL1       -0.0046
     45 C           4.9302   -0.6215   18.1834 C.2     1  UNL1        0.0261
     46 C           6.2213   -0.4198   17.4468 C.2     1  UNL1        0.1197
     47 N           6.8698   -1.7610   17.2722 N.2     1  UNL1       -0.1508
     48 N           5.9796   -2.7917   17.9009 N.2     1  UNL1       -0.1677
     49 C           4.7809   -2.0874   18.4641 C.3     1  UNL1        0.1672
@<TRIPOS>BOND
     1    40    41    1
     2    41    42    2
     3    42    43    1
     4    43    39    1
     5     1    39    1
     6     1     2    1
     7     2     3   am
     8     3     4    2
     9     3     5   am
    10     5     6    1
    11     6     7    1
    12     7     8    1
    13     8    12    1
    14    12    13    1
    15    13    14    1
    16    14    15   ar
    17    15    16   ar
    18    16    17   ar
    19    17    18   ar
    20    18    19    1
    21    18    20   ar
    22    20    21    1
    23    21    22   am
    24    22    23    2
    25     8     9    1
    26     9    10    1
    27     1    25    1
    28    25    26    2
    29    25    27   am
    30    27    28    1
    31    28    29    1
    32    29    30    1
    33    30    33    1
    34    33    34    1
    35    34    35    1
    36    35    36    1
    37    36    37    1
    38    37    38    1
    39    30    31    1
    40    31    32    1
    41    43    44    2
    42    44    45    1
    43    45    46    2
    44    46    47    1
    45    47    48    2
    46    48    49    1
    47    49    41    1
    48    10     5    1
    49    32    27    1
    50    49    45    1
    51    22    12   am
    52    38    33    1
    53    20    14   ar
    54     2    11    1
    55    21    24    1
@<TRIPOS>MOLECULE
*****
 49 55 0 0 0
SMALL
GASTEIGER

@<TRIPOS>ATOM
      1 C           2.5516    1.0681   23.2209 C.3     1  UNL1        0.1543
      2 N           2.7006    1.2647   24.7005 N.am    1  UNL1       -0.2822
      3 C           1.4942    1.2076   25.5900 C.2     1  UNL1        0.3043
      4 O           0.1386    0.9540   24.9999 O.2     1  UNL1       -0.2526
      5 N           1.6432    1.4042   27.0695 N.am    1  UNL1       -0.2641
      6 C           0.4367    1.3472   27.9590 C.3     1  UNL1        0.0966
      7 C           0.5858    1.5438   29.4386 C.3     1  UNL1        0.0415
      8 C           1.9413    1.7974   30.0287 C.3     1  UNL1        0.0806
      9 C           3.1478    1.8544   29.1392 C.3     1  UNL1        0.0415
     10 C           2.9988    1.6579   27.6597 C.3     1  UNL1        0.0966
     11 H           3.5903    1.4311   25.0878 H       1  UNL1        0.1514
     12 N           2.0904    1.9940   31.5082 N.am    1  UNL1       -0.2613
     13 C           1.5981    3.2570   32.1504 C.3     1  UNL1        0.1229
     14 C           1.7472    3.4536   33.6300 C.ar    1  UNL1        0.0135
     15 C           1.2550    4.7167   34.2721 C.ar    1  UNL1       -0.0012
     16 C           1.4040    4.9132   35.7517 C.ar    1  UNL1        0.0021
     17 C           2.0453    3.8467   36.5892 C.ar    1  UNL1        0.0309
     18 C           2.5375    2.5836   35.9470 C.ar    1  UNL1        0.1532
     19 F           3.1788    1.5171   36.7844 F       1  UNL1       -0.2029
     20 C           2.3885    2.3871   34.4674 C.ar    1  UNL1        0.0768
     21 N           2.8807    1.1240   33.8253 N.am    1  UNL1       -0.2665
     22 C           2.7316    0.9274   32.3457 C.2     1  UNL1        0.3079
     23 O           3.2239   -0.3357   31.7036 O.2     1  UNL1       -0.2522
     24 H           3.3016    0.4240   34.3749 H       1  UNL1        0.1565
     25 C           2.6704    2.2405   22.2928 C.2     1  UNL1        0.2439
     26 O           3.9887    2.9375   22.1300 O.2     1  UNL1       -0.2731
     27 N           1.4711    2.7159   21.5276 N.am    1  UNL1       -0.2781
     28 C           0.1530    2.0189   21.6905 C.3     1  UNL1        0.0948
     29 C          -1.0464    2.4942   20.9252 C.3     1  UNL1        0.0375
     30 C          -0.9276    3.6666   19.9971 C.3     1  UNL1        0.0609
     31 C           0.3907    4.3636   19.8342 C.3     1  UNL1        0.0375
     32 C           1.5900    3.8883   20.5995 C.3     1  UNL1        0.0948
     33 N          -2.1269    4.1420   19.2319 N.3     1  UNL1       -0.2738
     34 C          -1.9514    5.0499   18.0509 C.3     1  UNL1        0.0720
     35 C          -3.1507    5.5254   17.2855 C.3     1  UNL1        0.0174
     36 C          -4.5255    5.0928   17.7013 C.3     1  UNL1        0.0029
     37 C          -4.7009    4.1848   18.8824 C.3     1  UNL1        0.0174
     38 C          -3.5016    3.7094   19.6476 C.3     1  UNL1        0.0720
     39 C           2.2837   -0.3009   22.6694 C.3     1  UNL1        0.0553
     40 C           5.9483   -3.2991   20.5290 C.3     1  UNL1        0.0287
     41 C           4.8582   -2.2786   20.3867 C.2     1  UNL1       -0.0163
     42 C           4.1160   -1.8000   21.5993 C.2     1  UNL1       -0.0105
     43 C           3.0259   -0.7795   21.4570 C.2     1  UNL1       -0.0208
     44 C           2.6780   -0.2376   20.1022 C.2     1  UNL1       -0.0046
     45 C           3.4202   -0.7162   18.8898 C.2     1  UNL1        0.0261
     46 C           3.2998   -0.3661   17.4362 C.2     1  UNL1        0.1197
     47 N           4.3156   -1.1702   16.6800 N.2     1  UNL1       -0.1508
     48 N           5.0636   -2.0173   17.6664 N.2     1  UNL1       -0.1677
     49 C           4.5103   -1.7367   19.0320 C.3     1  UNL1        0.1672
@<TRIPOS>BOND
     1    40    41    1
     2    41    42    2
     3    42    43    1
     4    43    39    1
     5     1    39    1
     6     1     2    1
     7     2     3   am
     8     3     4    2
     9     3     5   am
    10     5     6    1
    11     6     7    1
    12     7     8    1
    13     8    12    1
    14    12    13    1
    15    13    14    1
    16    14    15   ar
    17    15    16   ar
    18    16    17   ar
    19    17    18   ar
    20    18    19    1
    21    18    20   ar
    22    20    21    1
    23    21    22   am
    24    22    23    2
    25     8     9    1
    26     9    10    1
    27     1    25    1
    28    25    26    2
    29    25    27   am
    30    27    28    1
    31    28    29    1
    32    29    30    1
    33    30    33    1
    34    33    34    1
    35    34    35    1
    36    35    36    1
    37    36    37    1
    38    37    38    1
    39    30    31    1
    40    31    32    1
    41    43    44    2
    42    44    45    1
    43    45    46    2
    44    46    47    1
    45    47    48    2
    46    48    49    1
    47    49    41    1
    48    10     5    1
    49    32    27    1
    50    49    45    1
    51    22    12   am
    52    38    33    1
    53    20    14   ar
    54     2    11    1
    55    21    24    1
@<TRIPOS>MOLECULE
*****
 49 55 0 0 0
SMALL
GASTEIGER

@<TRIPOS>ATOM
      1 C           4.5637    0.4439   32.5290 C.3     1  UNL1        0.1543
      2 N           3.6472    1.0241   31.4930 N.am    1  UNL1       -0.2822
      3 C           2.5850    0.1691   30.8680 C.2     1  UNL1        0.3043
      4 O           2.4392   -1.2660   31.2789 O.2     1  UNL1       -0.2526
      5 N           1.6685    0.7494   29.8320 N.am    1  UNL1       -0.2641
      6 C           0.6063   -0.1056   29.2069 C.3     1  UNL1        0.0966
      7 C          -0.3103    0.4747   28.1708 C.3     1  UNL1        0.0415
      8 C          -0.1645    1.9099   27.7599 C.3     1  UNL1        0.0806
      9 C           0.8977    2.7649   28.3850 C.3     1  UNL1        0.0415
     10 C           1.8142    2.1847   29.4210 C.3     1  UNL1        0.0966
     11 H           3.7429    1.9661   31.2233 H       1  UNL1        0.1514
     12 N          -1.0810    2.4902   26.7239 N.am    1  UNL1       -0.2613
     13 C          -2.3721    3.1311   27.1391 C.3     1  UNL1        0.1229
     14 C          -3.2886    3.7113   26.1030 C.ar    1  UNL1        0.0135
     15 C          -4.5796    4.3522   26.5182 C.ar    1  UNL1       -0.0012
     16 C          -5.4961    4.9325   25.4822 C.ar    1  UNL1        0.0021
     17 C          -5.1216    4.8718   24.0309 C.ar    1  UNL1        0.0309
     18 C          -3.8305    4.2309   23.6157 C.ar    1  UNL1        0.1532
     19 F          -3.4559    4.1702   22.1646 F       1  UNL1       -0.2029
     20 C          -2.9140    3.6506   24.6518 C.ar    1  UNL1        0.0768
     21 N          -1.6229    3.0097   24.2367 N.am    1  UNL1       -0.2665
     22 C          -0.7064    2.4295   25.2726 C.2     1  UNL1        0.3079
     23 O           0.5847    1.7886   24.8575 O.2     1  UNL1       -0.2522
     24 H          -1.3771    2.9699   23.2842 H       1  UNL1        0.1565
     25 C           6.0354    0.3437   32.2569 C.2     1  UNL1        0.2439
     26 O           6.9237    1.5297   32.4903 O.2     1  UNL1       -0.2731
     27 N           6.6188   -0.9424   31.7514 N.am    1  UNL1       -0.2781
     28 C           5.7305   -2.1283   31.5181 C.3     1  UNL1        0.0948
     29 C           6.3139   -3.4145   31.0126 C.3     1  UNL1        0.0375
     30 C           7.7856   -3.5147   30.7405 C.3     1  UNL1        0.0609
     31 C           8.6739   -2.3287   30.9738 C.3     1  UNL1        0.0375
     32 C           8.0905   -1.0426   31.4793 C.3     1  UNL1        0.0948
     33 N           8.3690   -4.8008   30.2350 N.3     1  UNL1       -0.2738
     34 C           8.6280   -4.9817   28.7687 C.3     1  UNL1        0.0720
     35 C           9.2114   -6.2678   28.2631 C.3     1  UNL1        0.0174
     36 C           9.5359   -7.3730   29.2240 C.3     1  UNL1        0.0029
     37 C           9.2770   -7.1920   30.6904 C.3     1  UNL1        0.0174
     38 C           8.6935   -5.9059   31.1959 C.3     1  UNL1        0.0720
     39 C           4.0085   -0.0362   33.8372 C.3     1  UNL1        0.0553
     40 C           1.6621    4.3122   35.4453 C.3     1  UNL1        0.0287
     41 C           2.5278    3.1212   35.7316 C.2     1  UNL1       -0.0163
     42 C           2.8353    2.1380   34.6412 C.2     1  UNL1       -0.0105
     43 C           3.7010    0.9469   34.9275 C.2     1  UNL1       -0.0208
     44 C           4.2593    0.7391   36.3042 C.2     1  UNL1       -0.0046
     45 C           3.9518    1.7223   37.3945 C.2     1  UNL1        0.0261
     46 C           4.3571    1.7800   38.8376 C.2     1  UNL1        0.1197
     47 N           3.7418    3.0066   39.4432 N.2     1  UNL1       -0.1508
     48 N           2.9563    3.7071   38.3744 N.2     1  UNL1       -0.1677
     49 C           3.0861    2.9133   37.1082 C.3     1  UNL1        0.1672
@<TRIPOS>BOND
     1    40    41    1
     2    41    42    2
     3    42    43    1
     4    43    39    1
     5     1    39    1
     6     1     2    1
     7     2     3   am
     8     3     4    2
     9     3     5   am
    10     5     6    1
    11     6     7    1
    12     7     8    1
    13     8    12    1
    14    12    13    1
    15    13    14    1
    16    14    15   ar
    17    15    16   ar
    18    16    17   ar
    19    17    18   ar
    20    18    19    1
    21    18    20   ar
    22    20    21    1
    23    21    22   am
    24    22    23    2
    25     8     9    1
    26     9    10    1
    27     1    25    1
    28    25    26    2
    29    25    27   am
    30    27    28    1
    31    28    29    1
    32    29    30    1
    33    30    33    1
    34    33    34    1
    35    34    35    1
    36    35    36    1
    37    36    37    1
    38    37    38    1
    39    30    31    1
    40    31    32    1
    41    43    44    2
    42    44    45    1
    43    45    46    2
    44    46    47    1
    45    47    48    2
    46    48    49    1
    47    49    41    1
    48    10     5    1
    49    32    27    1
    50    49    45    1
    51    22    12   am
    52    38    33    1
    53    20    14   ar
    54     2    11    1
    55    21    24    1
@<TRIPOS>MOLECULE
*****
 49 55 0 0 0
SMALL
GASTEIGER

@<TRIPOS>ATOM
      1 C           4.6045    0.3879   32.1530 C.3     1  UNL1        0.1543
      2 N           3.6526    1.0084   31.1739 N.am    1  UNL1       -0.2822
      3 C           2.5615    0.1811   30.5614 C.2     1  UNL1        0.3043
      4 O           2.4223   -1.2667   30.9280 O.2     1  UNL1       -0.2526
      5 N           1.6096    0.8017   29.5822 N.am    1  UNL1       -0.2641
      6 C           0.5185   -0.0256   28.9697 C.3     1  UNL1        0.0966
      7 C          -0.4334    0.5950   27.9905 C.3     1  UNL1        0.0415
      8 C          -0.2942    2.0428   27.6239 C.3     1  UNL1        0.0806
      9 C           0.7969    2.8701   28.2364 C.3     1  UNL1        0.0415
     10 C           1.7488    2.2495   29.2156 C.3     1  UNL1        0.0966
     11 H           3.7440    1.9586   30.9332 H       1  UNL1        0.1514
     12 N          -1.2461    2.6634   26.6448 N.am    1  UNL1       -0.2613
     13 C          -2.5259    3.2776   27.1293 C.3     1  UNL1        0.1229
     14 C          -3.4778    3.8982   26.1501 C.ar    1  UNL1        0.0135
     15 C          -4.7576    4.5125   26.6346 C.ar    1  UNL1       -0.0012
     16 C          -5.7095    5.1330   25.6554 C.ar    1  UNL1        0.0021
     17 C          -5.3816    5.1393   24.1917 C.ar    1  UNL1        0.0309
     18 C          -4.1018    4.5250   23.7071 C.ar    1  UNL1        0.1532
     19 F          -3.7739    4.5313   22.2435 F       1  UNL1       -0.2029
     20 C          -3.1499    3.9045   24.6864 C.ar    1  UNL1        0.0768
     21 N          -1.8701    3.2902   24.2019 N.am    1  UNL1       -0.2665
     22 C          -0.9182    2.6697   25.1810 C.2     1  UNL1        0.3079
     23 O           0.3616    2.0554   24.6965 O.2     1  UNL1       -0.2522
     24 H          -1.6549    3.2943   23.2412 H       1  UNL1        0.1565
     25 C           4.1818    0.1714   33.5759 C.2     1  UNL1        0.2439
     26 O           3.8091   -1.2032   34.0467 O.2     1  UNL1       -0.2731
     27 N           4.1317    1.3296   34.5278 N.am    1  UNL1       -0.2781
     28 C           4.5044    2.7041   34.0569 C.3     1  UNL1        0.0948
     29 C           4.4543    3.8623   35.0089 C.3     1  UNL1        0.0375
     30 C           4.0315    3.6459   36.4317 C.3     1  UNL1        0.0609
     31 C           3.6588    2.2712   36.9026 C.3     1  UNL1        0.0375
     32 C           3.7089    1.1131   35.9506 C.3     1  UNL1        0.0948
     33 N           3.9814    4.8040   37.3836 N.3     1  UNL1       -0.2738
     34 C           4.4715    4.6391   38.7917 C.3     1  UNL1        0.0720
     35 C           4.4214    5.7973   39.7437 C.3     1  UNL1        0.0174
     36 C           3.8813    7.1202   39.2876 C.3     1  UNL1        0.0029
     37 C           3.3912    7.2850   37.8795 C.3     1  UNL1        0.0174
     38 C           3.4412    6.1269   36.9276 C.3     1  UNL1        0.0720
     39 C           5.9793   -0.0163   31.7094 C.3     1  UNL1        0.0553
     40 C           6.1752   -2.7302   27.2826 C.3     1  UNL1        0.0287
     41 C           6.2814   -2.6743   28.7778 C.2     1  UNL1       -0.0163
     42 C           6.0773   -1.3732   29.4960 C.2     1  UNL1       -0.0105
     43 C           6.1834   -1.3173   30.9912 C.2     1  UNL1       -0.0208
     44 C           6.4937   -2.5623   31.7682 C.2     1  UNL1       -0.0046
     45 C           6.6978   -3.8632   31.0500 C.2     1  UNL1        0.0261
     46 C           7.0130   -5.2439   31.5443 C.2     1  UNL1        0.1197
     47 N           7.1017   -6.1532   30.3546 N.2     1  UNL1       -0.1508
     48 N           6.8413   -5.3345   29.1251 N.2     1  UNL1       -0.1677
     49 C           6.5916   -3.9192   29.5548 C.3     1  UNL1        0.1672
@<TRIPOS>BOND
     1    40    41    1
     2    41    42    2
     3    42    43    1
     4    43    39    1
     5     1    39    1
     6     1     2    1
     7     2     3   am
     8     3     4    2
     9     3     5   am
    10     5     6    1
    11     6     7    1
    12     7     8    1
    13     8    12    1
    14    12    13    1
    15    13    14    1
    16    14    15   ar
    17    15    16   ar
    18    16    17   ar
    19    17    18   ar
    20    18    19    1
    21    18    20   ar
    22    20    21    1
    23    21    22   am
    24    22    23    2
    25     8     9    1
    26     9    10    1
    27     1    25    1
    28    25    26    2
    29    25    27   am
    30    27    28    1
    31    28    29    1
    32    29    30    1
    33    30    33    1
    34    33    34    1
    35    34    35    1
    36    35    36    1
    37    36    37    1
    38    37    38    1
    39    30    31    1
    40    31    32    1
    41    43    44    2
    42    44    45    1
    43    45    46    2
    44    46    47    1
    45    47    48    2
    46    48    49    1
    47    49    41    1
    48    10     5    1
    49    32    27    1
    50    49    45    1
    51    22    12   am
    52    38    33    1
    53    20    14   ar
    54     2    11    1
    55    21    24    1
@<TRIPOS>MOLECULE
*****
 49 55 0 0 0
SMALL
GASTEIGER

@<TRIPOS>ATOM
      1 C          -1.6847    3.7644   26.5707 C.3     1  UNL1        0.1543
      2 N          -0.6416    3.4494   27.6016 N.am    1  UNL1       -0.2822
      3 C          -0.2695    2.0234   27.8807 C.2     1  UNL1        0.3043
      4 O          -0.9404    0.9123   27.1290 O.2     1  UNL1       -0.2526
      5 N           0.7736    1.7085   28.9116 N.am    1  UNL1       -0.2641
      6 C           1.1457    0.2824   29.1908 C.3     1  UNL1        0.0966
      7 C           2.1888   -0.0325   30.2218 C.3     1  UNL1        0.0415
      8 C           2.8597    1.0787   30.9735 C.3     1  UNL1        0.0806
      9 C           2.4876    2.5047   30.6944 C.3     1  UNL1        0.0415
     10 C           1.4446    2.8196   29.6635 C.3     1  UNL1        0.0966
     11 H          -0.2012    4.1787   28.0950 H       1  UNL1        0.1514
     12 N           3.9028    0.7637   32.0044 N.am    1  UNL1       -0.2613
     13 C           3.5521    0.8023   33.4623 C.3     1  UNL1        0.1229
     14 C           4.5953    0.4874   34.4932 C.ar    1  UNL1        0.0135
     15 C           4.2445    0.5260   35.9512 C.ar    1  UNL1       -0.0012
     16 C           5.2876    0.2110   36.9821 C.ar    1  UNL1        0.0021
     17 C           6.6815   -0.1425   36.5551 C.ar    1  UNL1        0.0309
     18 C           7.0322   -0.1811   35.0972 C.ar    1  UNL1        0.1532
     19 F           8.4259   -0.5346   34.6701 F       1  UNL1       -0.2029
     20 C           5.9890    0.1339   34.0662 C.ar    1  UNL1        0.0768
     21 N           6.3397    0.0953   32.6083 N.am    1  UNL1       -0.2665
     22 C           5.2967    0.4102   31.5774 C.2     1  UNL1        0.3079
     23 O           5.6474    0.3716   30.1195 O.2     1  UNL1       -0.2522
     24 H           7.2545   -0.1368   32.3281 H       1  UNL1        0.1565
     25 C          -1.3357    4.6167   25.3868 C.2     1  UNL1        0.2439
     26 O          -1.6604    6.0812   25.3952 O.2     1  UNL1       -0.2731
     27 N          -0.6622    4.0047   24.1945 N.am    1  UNL1       -0.2781
     28 C          -0.3375    2.5404   24.1861 C.3     1  UNL1        0.0948
     29 C           0.3361    1.9283   22.9937 C.3     1  UNL1        0.0375
     30 C           0.6850    2.7807   21.8098 C.3     1  UNL1        0.0609
     31 C           0.3603    4.2451   21.8182 C.3     1  UNL1        0.0375
     32 C          -0.3132    4.8571   23.0105 C.3     1  UNL1        0.0948
     33 N           1.3586    2.1687   20.6174 N.3     1  UNL1       -0.2738
     34 C           0.6125    1.1982   19.7506 C.3     1  UNL1        0.0720
     35 C           1.2861    0.5861   18.5582 C.3     1  UNL1        0.0174
     36 C           2.7058    0.9446   18.2327 C.3     1  UNL1        0.0029
     37 C           3.4519    1.9152   19.0996 C.3     1  UNL1        0.0174
     38 C           2.7783    2.5272   20.2919 C.3     1  UNL1        0.0720
     39 C          -3.0767    3.2269   26.7237 C.3     1  UNL1        0.0553
     40 C          -6.6840    6.9572   26.9935 C.3     1  UNL1        0.0287
     41 C          -6.0386    5.8255   26.2500 C.2     1  UNL1       -0.0163
     42 C          -4.8803    5.0920   26.8586 C.2     1  UNL1       -0.0105
     43 C          -4.2350    3.9604   26.1151 C.2     1  UNL1       -0.0208
     44 C          -4.7480    3.5622   24.7629 C.2     1  UNL1       -0.0046
     45 C          -5.9062    4.2956   24.1543 C.2     1  UNL1        0.0261
     46 C          -6.6245    4.1300   22.8479 C.2     1  UNL1        0.1197
     47 N          -7.7137    5.1593   22.7840 N.2     1  UNL1       -0.1508
     48 N          -7.6686    5.9611   24.0509 N.2     1  UNL1       -0.1677
     49 C          -6.5515    5.4273   24.8978 C.3     1  UNL1        0.1672
@<TRIPOS>BOND
     1    40    41    1
     2    41    42    2
     3    42    43    1
     4    43    39    1
     5     1    39    1
     6     1     2    1
     7     2     3   am
     8     3     4    2
     9     3     5   am
    10     5     6    1
    11     6     7    1
    12     7     8    1
    13     8    12    1
    14    12    13    1
    15    13    14    1
    16    14    15   ar
    17    15    16   ar
    18    16    17   ar
    19    17    18   ar
    20    18    19    1
    21    18    20   ar
    22    20    21    1
    23    21    22   am
    24    22    23    2
    25     8     9    1
    26     9    10    1
    27     1    25    1
    28    25    26    2
    29    25    27   am
    30    27    28    1
    31    28    29    1
    32    29    30    1
    33    30    33    1
    34    33    34    1
    35    34    35    1
    36    35    36    1
    37    36    37    1
    38    37    38    1
    39    30    31    1
    40    31    32    1
    41    43    44    2
    42    44    45    1
    43    45    46    2
    44    46    47    1
    45    47    48    2
    46    48    49    1
    47    49    41    1
    48    10     5    1
    49    32    27    1
    50    49    45    1
    51    22    12   am
    52    38    33    1
    53    20    14   ar
    54     2    11    1
    55    21    24    1
@<TRIPOS>MOLECULE
*****
 49 55 0 0 0
SMALL
GASTEIGER

@<TRIPOS>ATOM
      1 C           0.5011    1.6470   20.5404 C.3     1  UNL1        0.1543
      2 N           0.6235    1.5658   22.0332 N.am    1  UNL1       -0.2822
      3 C           1.9567    1.7720   22.6888 C.2     1  UNL1        0.3043
      4 O           3.1677    2.0595   21.8516 O.2     1  UNL1       -0.2526
      5 N           2.0791    1.6908   24.1816 N.am    1  UNL1       -0.2641
      6 C           3.4124    1.8970   24.8372 C.3     1  UNL1        0.0966
      7 C           3.5346    1.8158   26.3300 C.3     1  UNL1        0.0415
      8 C           2.3237    1.5284   27.1672 C.3     1  UNL1        0.0806
      9 C           0.9904    1.3221   26.5116 C.3     1  UNL1        0.0415
     10 C           0.8681    1.4033   25.0188 C.3     1  UNL1        0.0966
     11 H          -0.1713    1.3771   22.5827 H       1  UNL1        0.1514
     12 N           2.4460    1.4472   28.6599 N.am    1  UNL1       -0.2613
     13 C           1.8416    2.5162   29.5213 C.3     1  UNL1        0.1229
     14 C           1.9640    2.4349   31.0141 C.ar    1  UNL1        0.0135
     15 C           1.3596    3.5040   31.8754 C.ar    1  UNL1       -0.0012
     16 C           1.4819    3.4228   33.3682 C.ar    1  UNL1        0.0021
     17 C           2.2087    2.2725   33.9997 C.ar    1  UNL1        0.0309
     18 C           2.8130    1.2034   33.1384 C.ar    1  UNL1        0.1532
     19 F           3.5397    0.0532   33.7698 F       1  UNL1       -0.2029
     20 C           2.6907    1.2847   31.6455 C.ar    1  UNL1        0.0768
     21 N           3.2950    0.2156   30.7842 N.am    1  UNL1       -0.2665
     22 C           3.1727    0.2968   29.2915 C.2     1  UNL1        0.3079
     23 O           3.7771   -0.7722   28.4301 O.2     1  UNL1       -0.2522
     24 H           3.7720   -0.5393   31.1987 H       1  UNL1        0.1565
     25 C           0.2793    2.9739   19.8772 C.2     1  UNL1        0.2439
     26 O           1.4383    3.7194   19.2847 O.2     1  UNL1       -0.2731
     27 N          -1.1016    3.5555   19.8064 N.am    1  UNL1       -0.2781
     28 C          -2.2605    2.8100   20.3988 C.3     1  UNL1        0.0948
     29 C          -3.6415    3.3916   20.3280 C.3     1  UNL1        0.0375
     30 C          -3.8633    4.7185   19.6647 C.3     1  UNL1        0.0609
     31 C          -2.7043    5.4640   19.0723 C.3     1  UNL1        0.0375
     32 C          -1.3234    4.8824   19.1431 C.3     1  UNL1        0.0948
     33 N          -5.2442    5.3001   19.5939 N.3     1  UNL1       -0.2738
     34 C          -5.9856    5.6276   20.8560 C.3     1  UNL1        0.0720
     35 C          -7.3665    6.2092   20.7853 C.3     1  UNL1        0.0174
     36 C          -8.0059    6.4632   19.4524 C.3     1  UNL1        0.0029
     37 C          -7.2644    6.1356   18.1902 C.3     1  UNL1        0.0174
     38 C          -5.8836    5.5540   18.2610 C.3     1  UNL1        0.0720
     39 C           0.6007    0.4012   19.7108 C.3     1  UNL1        0.0553
     40 C           4.2777   -3.1379   20.6882 C.3     1  UNL1        0.0287
     41 C           3.7828   -1.9631   19.8977 C.2     1  UNL1       -0.0163
     42 C           2.4391   -1.3684   20.1995 C.2     1  UNL1       -0.0105
     43 C           1.9442   -0.1936   19.4090 C.2     1  UNL1       -0.0208
     44 C           2.7929    0.3865   18.3166 C.2     1  UNL1       -0.0046
     45 C           4.1365   -0.2082   18.0148 C.2     1  UNL1        0.0261
     46 C           5.1873    0.1468   17.0050 C.2     1  UNL1        0.1197
     47 N           6.3317   -0.8086   17.1713 N.2     1  UNL1       -0.1508
     48 N           5.9881   -1.7541   18.2840 N.2     1  UNL1       -0.1677
     49 C           4.6314   -1.3830   18.8053 C.3     1  UNL1        0.1672
@<TRIPOS>BOND
     1    40    41    1
     2    41    42    2
     3    42    43    1
     4    43    39    1
     5     1    39    1
     6     1     2    1
     7     2     3   am
     8     3     4    2
     9     3     5   am
    10     5     6    1
    11     6     7    1
    12     7     8    1
    13     8    12    1
    14    12    13    1
    15    13    14    1
    16    14    15   ar
    17    15    16   ar
    18    16    17   ar
    19    17    18   ar
    20    18    19    1
    21    18    20   ar
    22    20    21    1
    23    21    22   am
    24    22    23    2
    25     8     9    1
    26     9    10    1
    27     1    25    1
    28    25    26    2
    29    25    27   am
    30    27    28    1
    31    28    29    1
    32    29    30    1
    33    30    33    1
    34    33    34    1
    35    34    35    1
    36    35    36    1
    37    36    37    1
    38    37    38    1
    39    30    31    1
    40    31    32    1
    41    43    44    2
    42    44    45    1
    43    45    46    2
    44    46    47    1
    45    47    48    2
    46    48    49    1
    47    49    41    1
    48    10     5    1
    49    32    27    1
    50    49    45    1
    51    22    12   am
    52    38    33    1
    53    20    14   ar
    54     2    11    1
    55    21    24    1
@<TRIPOS>MOLECULE
*****
 49 55 0 0 0
SMALL
GASTEIGER

@<TRIPOS>ATOM
      1 C          -0.6487    3.4316   22.8054 C.3     1  UNL1        0.1543
      2 N           0.0662    3.0105   24.0550 N.am    1  UNL1       -0.2822
      3 C          -0.7161    2.5271   25.2399 C.2     1  UNL1        0.3043
      4 O          -2.2134    2.4647   25.1753 O.2     1  UNL1       -0.2526
      5 N          -0.0012    2.1060   26.4895 N.am    1  UNL1       -0.2641
      6 C          -0.7835    1.6225   27.6745 C.3     1  UNL1        0.0966
      7 C          -0.0685    1.2014   28.9241 C.3     1  UNL1        0.0415
      8 C           1.4287    1.2638   28.9888 C.3     1  UNL1        0.0806
      9 C           2.2111    1.7473   27.8038 C.3     1  UNL1        0.0415
     10 C           1.4962    2.1684   26.5542 C.3     1  UNL1        0.0966
     11 H           1.0490    3.0515   24.0974 H       1  UNL1        0.1514
     12 N           2.1437    0.8427   30.2383 N.am    1  UNL1       -0.2613
     13 C           2.0705    1.6977   31.4686 C.3     1  UNL1        0.1229
     14 C           2.7855    1.2766   32.7183 C.ar    1  UNL1        0.0135
     15 C           2.7123    2.1316   33.9485 C.ar    1  UNL1       -0.0012
     16 C           3.4272    1.7105   35.1981 C.ar    1  UNL1        0.0021
     17 C           4.2154    0.4344   35.2175 C.ar    1  UNL1        0.0309
     18 C           4.2886   -0.4207   33.9872 C.ar    1  UNL1        0.1532
     19 F           5.0767   -1.6967   34.0065 F       1  UNL1       -0.2029
     20 C           3.5736    0.0005   32.7376 C.ar    1  UNL1        0.0768
     21 N           3.6468   -0.8545   31.5073 N.am    1  UNL1       -0.2665
     22 C           2.9318   -0.4334   30.2577 C.2     1  UNL1        0.3079
     23 O           3.0050   -1.2884   29.0274 O.2     1  UNL1       -0.2522
     24 H           4.1641   -1.6921   31.5200 H       1  UNL1        0.1565
     25 C          -0.7375    2.4922   21.6393 C.2     1  UNL1        0.2439
     26 O          -1.8693    2.6142   20.6624 O.2     1  UNL1       -0.2731
     27 N           0.3053    1.4308   21.4502 N.am    1  UNL1       -0.2781
     28 C           1.4370    1.3088   22.4271 C.3     1  UNL1        0.0948
     29 C           2.4799    0.2474   22.2379 C.3     1  UNL1        0.0375
     30 C           2.3911   -0.6921   21.0719 C.3     1  UNL1        0.0609
     31 C           1.2593   -0.5700   20.0950 C.3     1  UNL1        0.0375
     32 C           0.2165    0.4914   20.2842 C.3     1  UNL1        0.0948
     33 N           3.4339   -1.7535   20.8827 N.3     1  UNL1       -0.2738
     34 C           3.8396   -2.1682   19.4995 C.3     1  UNL1        0.0720
     35 C           4.8825   -3.2297   19.3103 C.3     1  UNL1        0.0174
     36 C           5.5197   -3.8763   20.5044 C.3     1  UNL1        0.0029
     37 C           5.1140   -3.4615   21.8877 C.3     1  UNL1        0.0174
     38 C           4.0712   -2.4001   22.0768 C.3     1  UNL1        0.0720
     39 C          -1.2748    4.7922   22.7217 C.3     1  UNL1        0.0553
     40 C          -4.4011    6.9477   26.2686 C.3     1  UNL1        0.0287
     41 C          -4.2140    6.0975   25.0471 C.2     1  UNL1       -0.0163
     42 C          -2.8379    5.8700   24.4952 C.2     1  UNL1       -0.0105
     43 C          -2.6509    5.0197   23.2737 C.2     1  UNL1       -0.0208
     44 C          -3.8400    4.3970   22.6041 C.2     1  UNL1       -0.0046
     45 C          -5.2160    4.6246   23.1560 C.2     1  UNL1        0.0261
     46 C          -6.5668    4.1449   22.7139 C.2     1  UNL1        0.1197
     47 N          -7.5886    4.6986   23.6622 N.2     1  UNL1       -0.1508
     48 N          -6.8694    5.5206   24.6903 N.2     1  UNL1       -0.1677
     49 C          -5.4031    5.4748   24.3775 C.3     1  UNL1        0.1672
@<TRIPOS>BOND
     1    40    41    1
     2    41    42    2
     3    42    43    1
     4    43    39    1
     5     1    39    1
     6     1     2    1
     7     2     3   am
     8     3     4    2
     9     3     5   am
    10     5     6    1
    11     6     7    1
    12     7     8    1
    13     8    12    1
    14    12    13    1
    15    13    14    1
    16    14    15   ar
    17    15    16   ar
    18    16    17   ar
    19    17    18   ar
    20    18    19    1
    21    18    20   ar
    22    20    21    1
    23    21    22   am
    24    22    23    2
    25     8     9    1
    26     9    10    1
    27     1    25    1
    28    25    26    2
    29    25    27   am
    30    27    28    1
    31    28    29    1
    32    29    30    1
    33    30    33    1
    34    33    34    1
    35    34    35    1
    36    35    36    1
    37    36    37    1
    38    37    38    1
    39    30    31    1
    40    31    32    1
    41    43    44    2
    42    44    45    1
    43    45    46    2
    44    46    47    1
    45    47    48    2
    46    48    49    1
    47    49    41    1
    48    10     5    1
    49    32    27    1
    50    49    45    1
    51    22    12   am
    52    38    33    1
    53    20    14   ar
    54     2    11    1
    55    21    24    1
