@<TRIPOS>MOLECULE
*****
 23 26 0 0 0
SMALL
GASTEIGER

@<TRIPOS>ATOM
      1 O          -7.5221  -18.5773   20.2396 O.2     1  UNL1       -0.2448
      2 C          -7.7041  -18.1501   21.6659 C.2     1  UNL1        0.3428
      3 C          -8.7080  -18.8473   22.5354 C.2     1  UNL1        0.0959
      4 C          -8.5047  -20.1540   23.2434 C.2     1  UNL1        0.1049
      5 N          -9.7625  -20.4744   23.9951 N.2     1  UNL1       -0.2475
      6 C         -10.7432  -19.3658   23.7517 C.2     1  UNL1        0.0661
      7 C         -12.1455  -19.1422   24.2350 C.3     1  UNL1        0.1045
      8 C         -12.8961  -17.9128   23.8160 C.2     1  UNL1        0.1508
      9 F         -14.2984  -17.6892   24.2993 F       1  UNL1       -0.2061
     10 C         -12.2443  -16.9072   22.9139 C.2     1  UNL1        0.1637
     11 F         -12.9949  -15.6779   22.4950 F       1  UNL1       -0.2021
     12 C         -10.8420  -17.1309   22.4306 C.2     1  UNL1        0.0331
     13 C         -10.0915  -18.3602   22.8495 C.2     1  UNL1        0.0240
     14 O          -6.8821  -17.0257   22.2227 O.3     1  UNL1       -0.4454
     15 C          -7.5481  -15.9073   22.9683 C.3     1  UNL1        0.2087
     16 C          -7.3255  -15.7523   24.4435 C.3     1  UNL1        0.0445
     17 C          -8.4538  -15.9940   25.4018 C.3     1  UNL1        0.0210
     18 C          -8.2311  -15.8389   26.8770 C.3     1  UNL1        0.0722
     19 N          -6.8801  -15.4421   27.3939 N.3     1  UNL1       -0.2727
     20 C          -5.7517  -15.2004   26.4356 C.3     1  UNL1        0.0722
     21 C          -5.9744  -15.3555   24.9604 C.3     1  UNL1        0.0210
     22 C          -6.9540  -15.5147   26.5772 C.3     1  UNL1        0.0722
     23 C          -7.1553  -15.6549   25.2432 C.3     1  UNL1        0.0210
@<TRIPOS>BOND
     1     1     2    2
     2     2    14    1
     3    14    15    1
     4    15    16    1
     5    16    17    1
     6    17    18    1
     7    18    19    1
     8    19    20    1
     9    20    21    1
    10    19    22    1
    11    22    23    1
    12     2     3    1
    13     3     4    2
    14     4     5    1
    15     5     6    2
    16     6     7    1
    17     7     8    1
    18     8     9    1
    19     8    10    2
    20    10    11    1
    21    10    12    1
    22    12    13    2
    23    21    16    1
    24    13     3    1
    25    23    16    1
    26    13     6    1
@<TRIPOS>MOLECULE
*****
 23 26 0 0 0
SMALL
GASTEIGER

@<TRIPOS>ATOM
      1 O         -12.5548  -16.1205   22.7249 O.2     1  UNL1       -0.2448
      2 C         -11.3340  -16.8599   23.1863 C.2     1  UNL1        0.3428
      3 C          -9.9696  -16.3031   22.9065 C.2     1  UNL1        0.0959
      4 C          -9.4480  -15.8799   21.5653 C.2     1  UNL1        0.1049
      5 N          -8.0432  -15.3870   21.7488 N.2     1  UNL1       -0.2475
      6 C          -7.6966  -15.5056   23.2034 C.2     1  UNL1        0.0661
      7 C          -6.4507  -15.1711   23.9688 C.3     1  UNL1        0.1045
      8 C          -6.3954  -15.4028   25.4498 C.2     1  UNL1        0.1508
      9 F          -5.1495  -15.0684   26.2152 F       1  UNL1       -0.2061
     10 C          -7.5859  -15.9690   26.1653 C.2     1  UNL1        0.1637
     11 F          -7.5306  -16.2008   27.6463 F       1  UNL1       -0.2021
     12 C          -8.8319  -16.3035   25.3998 C.2     1  UNL1        0.0331
     13 C          -8.8872  -16.0717   23.9189 C.2     1  UNL1        0.0240
     14 O         -11.4776  -18.1561   23.9274 O.3     1  UNL1       -0.4454
     15 C         -11.0506  -19.4408   23.2815 C.3     1  UNL1        0.2087
     16 C         -10.2890  -19.4137   21.9895 C.3     1  UNL1        0.0445
     17 C          -8.7891  -19.4120   22.0028 C.3     1  UNL1        0.0210
     18 C          -8.0276  -19.3849   20.7108 C.3     1  UNL1        0.0722
     19 N          -8.7660  -19.3596   19.4054 N.3     1  UNL1       -0.2727
     20 C         -10.2660  -19.3613   19.3920 C.3     1  UNL1        0.0722
     21 C         -11.0275  -19.3884   20.6841 C.3     1  UNL1        0.0210
     22 C          -9.2266  -19.3740   20.0877 C.3     1  UNL1        0.0722
     23 C          -9.9153  -19.3984   21.2559 C.3     1  UNL1        0.0210
@<TRIPOS>BOND
     1     1     2    2
     2     2    14    1
     3    14    15    1
     4    15    16    1
     5    16    17    1
     6    17    18    1
     7    18    19    1
     8    19    20    1
     9    20    21    1
    10    19    22    1
    11    22    23    1
    12     2     3    1
    13     3     4    2
    14     4     5    1
    15     5     6    2
    16     6     7    1
    17     7     8    1
    18     8     9    1
    19     8    10    2
    20    10    11    1
    21    10    12    1
    22    12    13    2
    23    21    16    1
    24    13     3    1
    25    23    16    1
    26    13     6    1
@<TRIPOS>MOLECULE
*****
 23 26 0 0 0
SMALL
GASTEIGER

@<TRIPOS>ATOM
      1 O          -8.5080  -19.2591   18.9083 O.2     1  UNL1       -0.2448
      2 C          -7.8298  -19.0268   20.2259 C.2     1  UNL1        0.3428
      3 C          -8.5835  -19.2396   21.5052 C.2     1  UNL1        0.0959
      4 C          -8.1293  -20.0708   22.6683 C.2     1  UNL1        0.1049
      5 N          -9.1888  -20.0035   23.7279 N.2     1  UNL1       -0.2475
      6 C         -10.2979  -19.1307   23.2197 C.2     1  UNL1        0.0661
      7 C         -11.6001  -18.7049   23.8304 C.3     1  UNL1        0.1045
      8 C         -12.5282  -17.8069   23.0673 C.2     1  UNL1        0.1508
      9 F         -13.8304  -17.3811   23.6780 F       1  UNL1       -0.2061
     10 C         -12.1541  -17.3348   21.6936 C.2     1  UNL1        0.1637
     11 F         -13.0822  -16.4368   20.9305 F       1  UNL1       -0.2021
     12 C         -10.8518  -17.7606   21.0829 C.2     1  UNL1        0.0331
     13 C          -9.9238  -18.6586   21.8460 C.2     1  UNL1        0.0240
     14 O          -6.3979  -18.5816   20.2642 O.3     1  UNL1       -0.4454
     15 C          -5.2950  -19.5922   20.1540 C.3     1  UNL1        0.2087
     16 C          -3.8711  -19.1757   20.3754 C.3     1  UNL1        0.0445
     17 C          -3.2863  -19.2080   21.7563 C.3     1  UNL1        0.0210
     18 C          -1.8624  -18.7914   21.9777 C.3     1  UNL1        0.0722
     19 N          -1.0234  -18.3425   20.8182 N.3     1  UNL1       -0.2727
     20 C          -1.6082  -18.3102   19.4373 C.3     1  UNL1        0.0722
     21 C          -3.0321  -18.7268   19.2159 C.3     1  UNL1        0.0210
     22 C          -1.7985  -18.5614   20.6476 C.3     1  UNL1        0.0722
     23 C          -3.0860  -18.9380   20.4473 C.3     1  UNL1        0.0210
@<TRIPOS>BOND
     1     1     2    2
     2     2    14    1
     3    14    15    1
     4    15    16    1
     5    16    17    1
     6    17    18    1
     7    18    19    1
     8    19    20    1
     9    20    21    1
    10    19    22    1
    11    22    23    1
    12     2     3    1
    13     3     4    2
    14     4     5    1
    15     5     6    2
    16     6     7    1
    17     7     8    1
    18     8     9    1
    19     8    10    2
    20    10    11    1
    21    10    12    1
    22    12    13    2
    23    21    16    1
    24    13     3    1
    25    23    16    1
    26    13     6    1
@<TRIPOS>MOLECULE
*****
 23 26 0 0 0
SMALL
GASTEIGER

@<TRIPOS>ATOM
      1 O          -9.2096  -20.3790   18.6443 O.2     1  UNL1       -0.2448
      2 C          -9.0702  -19.2963   19.6730 C.2     1  UNL1        0.3428
      3 C         -10.2926  -18.6287   20.2297 C.2     1  UNL1        0.0959
      4 C         -11.2091  -17.7044   19.4842 C.2     1  UNL1        0.1049
      5 N         -12.2961  -17.2726   20.4234 N.2     1  UNL1       -0.2475
      6 C         -12.0514  -17.9301   21.7493 C.2     1  UNL1        0.0661
      7 C         -12.7961  -17.8738   23.0501 C.3     1  UNL1        0.1045
      8 C         -12.3026  -18.6557   24.2313 C.2     1  UNL1        0.1508
      9 F         -13.0472  -18.5994   25.5321 F       1  UNL1       -0.2061
     10 C         -11.0643  -19.4938   24.1116 C.2     1  UNL1        0.1637
     11 F         -10.5707  -20.2756   25.2927 F       1  UNL1       -0.2021
     12 C         -10.3196  -19.5500   22.8106 C.2     1  UNL1        0.0331
     13 C         -10.8132  -18.7681   21.6295 C.2     1  UNL1        0.0240
     14 O          -7.7082  -18.8812   20.1451 O.3     1  UNL1       -0.4454
     15 C          -7.0000  -19.6868   21.1937 C.3     1  UNL1        0.2087
     16 C          -5.5058  -19.6215   21.3075 C.3     1  UNL1        0.0445
     17 C          -4.8719  -18.8585   22.4326 C.3     1  UNL1        0.0210
     18 C          -3.3776  -18.7933   22.5463 C.3     1  UNL1        0.0722
     19 N          -2.5173  -19.4911   21.5349 N.3     1  UNL1       -0.2727
     20 C          -3.1512  -20.2541   20.4098 C.3     1  UNL1        0.0722
     21 C          -4.6455  -20.3193   20.2961 C.3     1  UNL1        0.0210
     22 C          -3.3316  -19.5552   21.4312 C.3     1  UNL1        0.0722
     23 C          -4.6827  -19.6142   21.3283 C.3     1  UNL1        0.0210
@<TRIPOS>BOND
     1     1     2    2
     2     2    14    1
     3    14    15    1
     4    15    16    1
     5    16    17    1
     6    17    18    1
     7    18    19    1
     8    19    20    1
     9    20    21    1
    10    19    22    1
    11    22    23    1
    12     2     3    1
    13     3     4    2
    14     4     5    1
    15     5     6    2
    16     6     7    1
    17     7     8    1
    18     8     9    1
    19     8    10    2
    20    10    11    1
    21    10    12    1
    22    12    13    2
    23    21    16    1
    24    13     3    1
    25    23    16    1
    26    13     6    1
@<TRIPOS>MOLECULE
*****
 23 26 0 0 0
SMALL
GASTEIGER

@<TRIPOS>ATOM
      1 O          -9.2735  -18.5464   23.8382 O.2     1  UNL1       -0.2448
      2 C          -8.6414  -17.8775   22.6536 C.2     1  UNL1        0.3428
      3 C          -7.8213  -18.6807   21.6880 C.2     1  UNL1        0.0959
      4 C          -8.3465  -19.4509   20.5129 C.2     1  UNL1        0.1049
      5 N          -7.1818  -20.1008   19.8267 N.2     1  UNL1       -0.2475
      6 C          -5.9367  -19.7324   20.5777 C.2     1  UNL1        0.0661
      7 C          -4.4942  -20.0827   20.3626 C.3     1  UNL1        0.1045
      8 C          -3.4468  -19.5554   21.2980 C.2     1  UNL1        0.1508
      9 F          -2.0042  -19.9057   21.0830 F       1  UNL1       -0.2061
     10 C          -3.8420  -18.6777   22.4484 C.2     1  UNL1        0.1637
     11 F          -2.7947  -18.1503   23.3838 F       1  UNL1       -0.2021
     12 C          -5.2846  -18.3273   22.6635 C.2     1  UNL1        0.0331
     13 C          -6.3319  -18.8547   21.7281 C.2     1  UNL1        0.0240
     14 O          -8.8293  -16.4056   22.4347 O.3     1  UNL1       -0.4454
     15 C          -7.8138  -15.4336   22.9583 C.3     1  UNL1        0.2087
     16 C          -7.4254  -15.4623   24.4069 C.3     1  UNL1        0.0445
     17 C          -5.9776  -15.4145   24.7963 C.3     1  UNL1        0.0210
     18 C          -5.5893  -15.4431   26.2449 C.3     1  UNL1        0.0722
     19 N          -6.6488  -15.5197   27.3040 N.3     1  UNL1       -0.2727
     20 C          -8.0965  -15.5676   26.9146 C.3     1  UNL1        0.0722
     21 C          -8.4848  -15.5389   25.4660 C.3     1  UNL1        0.0210
     22 C          -6.9101  -15.5064   26.5234 C.3     1  UNL1        0.0722
     23 C          -7.2614  -15.4805   25.2136 C.3     1  UNL1        0.0210
@<TRIPOS>BOND
     1     1     2    2
     2     2    14    1
     3    14    15    1
     4    15    16    1
     5    16    17    1
     6    17    18    1
     7    18    19    1
     8    19    20    1
     9    20    21    1
    10    19    22    1
    11    22    23    1
    12     2     3    1
    13     3     4    2
    14     4     5    1
    15     5     6    2
    16     6     7    1
    17     7     8    1
    18     8     9    1
    19     8    10    2
    20    10    11    1
    21    10    12    1
    22    12    13    2
    23    21    16    1
    24    13     3    1
    25    23    16    1
    26    13     6    1
@<TRIPOS>MOLECULE
*****
 23 26 0 0 0
SMALL
GASTEIGER

@<TRIPOS>ATOM
      1 O          -6.1313  -17.3848   22.8276 O.2     1  UNL1       -0.2448
      2 C          -6.2317  -18.6551   22.0363 C.2     1  UNL1        0.3428
      3 C          -7.3779  -18.8612   21.0909 C.2     1  UNL1        0.0959
      4 C          -7.2799  -19.3756   19.6853 C.2     1  UNL1        0.1049
      5 N          -8.6649  -19.4215   19.1109 N.2     1  UNL1       -0.2475
      6 C          -9.6188  -18.9354   20.1616 C.2     1  UNL1        0.0661
      7 C         -11.1088  -18.7633   20.1620 C.3     1  UNL1        0.1045
      8 C         -11.8036  -18.2450   21.3863 C.2     1  UNL1        0.1508
      9 F         -13.2937  -18.0729   21.3868 F       1  UNL1       -0.2061
     10 C         -11.0082  -17.8987   22.6100 C.2     1  UNL1        0.1637
     11 F         -11.7029  -17.3804   23.8342 F       1  UNL1       -0.2021
     12 C          -9.5181  -18.0708   22.6095 C.2     1  UNL1        0.0331
     13 C          -8.8234  -18.5891   21.3853 C.2     1  UNL1        0.0240
     14 O          -5.1859  -19.7192   22.1903 O.3     1  UNL1       -0.4454
     15 C          -3.8338  -19.3686   22.7373 C.3     1  UNL1        0.2087
     16 C          -2.8766  -18.5620   21.9109 C.3     1  UNL1        0.0445
     17 C          -2.6568  -17.1108   22.2205 C.3     1  UNL1        0.0210
     18 C          -1.6995  -16.3043   21.3941 C.3     1  UNL1        0.0722
     19 N          -0.9620  -16.9489   20.2581 N.3     1  UNL1       -0.2727
     20 C          -1.1817  -18.4000   19.9485 C.3     1  UNL1        0.0722
     21 C          -2.1390  -19.2066   20.7749 C.3     1  UNL1        0.0210
     22 C          -1.4764  -17.4314   20.6828 C.3     1  UNL1        0.0722
     23 C          -2.3420  -18.1608   21.4300 C.3     1  UNL1        0.0210
@<TRIPOS>BOND
     1     1     2    2
     2     2    14    1
     3    14    15    1
     4    15    16    1
     5    16    17    1
     6    17    18    1
     7    18    19    1
     8    19    20    1
     9    20    21    1
    10    19    22    1
    11    22    23    1
    12     2     3    1
    13     3     4    2
    14     4     5    1
    15     5     6    2
    16     6     7    1
    17     7     8    1
    18     8     9    1
    19     8    10    2
    20    10    11    1
    21    10    12    1
    22    12    13    2
    23    21    16    1
    24    13     3    1
    25    23    16    1
    26    13     6    1
@<TRIPOS>MOLECULE
*****
 23 26 0 0 0
SMALL
GASTEIGER

@<TRIPOS>ATOM
      1 O          -7.3794  -15.8688   24.7654 O.2     1  UNL1       -0.2448
      2 C          -6.7994  -16.5172   23.5434 C.2     1  UNL1        0.3428
      3 C          -7.6161  -17.4984   22.7558 C.2     1  UNL1        0.0959
      4 C          -7.1030  -18.7445   22.0970 C.2     1  UNL1        0.1049
      5 N          -8.2591  -19.4219   21.4227 N.2     1  UNL1       -0.2475
      6 C          -9.4866  -18.5945   21.6648 C.2     1  UNL1        0.0661
      7 C         -10.9148  -18.7700   21.2414 C.3     1  UNL1        0.1045
      8 C         -11.9458  -17.7566   21.6419 C.2     1  UNL1        0.1508
      9 F         -13.3740  -17.9321   21.2186 F       1  UNL1       -0.2061
     10 C         -11.5484  -16.5678   22.4658 C.2     1  UNL1        0.1637
     11 F         -12.5792  -15.5545   22.8663 F       1  UNL1       -0.2021
     12 C         -10.1201  -16.3923   22.8892 C.2     1  UNL1        0.0331
     13 C          -9.0892  -17.4057   22.4887 C.2     1  UNL1        0.0240
     14 O          -5.4028  -16.1845   23.1092 O.3     1  UNL1       -0.4454
     15 C          -4.2496  -17.0134   23.5920 C.3     1  UNL1        0.2087
     16 C          -3.3163  -17.6479   22.6039 C.3     1  UNL1        0.0445
     17 C          -2.3108  -16.8068   21.8749 C.3     1  UNL1        0.0210
     18 C          -1.3776  -17.4414   20.8867 C.3     1  UNL1        0.0722
     19 N          -1.4500  -18.9171   20.6276 N.3     1  UNL1       -0.2727
     20 C          -2.4555  -19.7582   21.3566 C.3     1  UNL1        0.0722
     21 C          -3.3887  -19.1236   22.3448 C.3     1  UNL1        0.0210
     22 C          -1.9821  -18.6143   21.1781 C.3     1  UNL1        0.0722
     23 C          -2.8260  -18.0406   22.0716 C.3     1  UNL1        0.0210
@<TRIPOS>BOND
     1     1     2    2
     2     2    14    1
     3    14    15    1
     4    15    16    1
     5    16    17    1
     6    17    18    1
     7    18    19    1
     8    19    20    1
     9    20    21    1
    10    19    22    1
    11    22    23    1
    12     2     3    1
    13     3     4    2
    14     4     5    1
    15     5     6    2
    16     6     7    1
    17     7     8    1
    18     8     9    1
    19     8    10    2
    20    10    11    1
    21    10    12    1
    22    12    13    2
    23    21    16    1
    24    13     3    1
    25    23    16    1
    26    13     6    1
@<TRIPOS>MOLECULE
*****
 23 26 0 0 0
SMALL
GASTEIGER

@<TRIPOS>ATOM
      1 O          -6.4380  -21.4620   19.7213 O.2     1  UNL1       -0.2448
      2 C          -6.4269  -20.0146   20.1149 C.2     1  UNL1        0.3428
      3 C          -5.3452  -19.4895   21.0117 C.2     1  UNL1        0.0959
      4 C          -5.3752  -19.4703   22.5113 C.2     1  UNL1        0.1049
      5 N          -4.0921  -18.8604   22.9927 N.2     1  UNL1       -0.2475
      6 C          -3.2691  -18.5027   21.7907 C.2     1  UNL1        0.0661
      7 C          -1.9146  -17.8732   21.6528 C.3     1  UNL1        0.1045
      8 C          -1.3345  -17.6326   20.2906 C.2     1  UNL1        0.1508
      9 F           0.0200  -17.0031   20.1527 F       1  UNL1       -0.2061
     10 C          -2.1090  -18.0214   19.0662 C.2     1  UNL1        0.1637
     11 F          -1.5290  -17.7808   17.7040 F       1  UNL1       -0.2021
     12 C          -3.4636  -18.6510   19.2041 C.2     1  UNL1        0.0331
     13 C          -4.0436  -18.8916   20.5663 C.2     1  UNL1        0.0240
     14 O          -7.4974  -19.0923   19.6117 O.3     1  UNL1       -0.4454
     15 C          -8.8921  -19.6042   19.4045 C.3     1  UNL1        0.2087
     16 C         -10.0093  -19.1106   20.2752 C.3     1  UNL1        0.0445
     17 C         -10.8870  -17.9888   19.8050 C.3     1  UNL1        0.0210
     18 C         -12.0042  -17.4952   20.6757 C.3     1  UNL1        0.0722
     19 N         -12.2437  -18.1234   22.0166 N.3     1  UNL1       -0.2727
     20 C         -11.3659  -19.2452   22.4868 C.3     1  UNL1        0.0722
     21 C         -10.2487  -19.7388   21.6161 C.3     1  UNL1        0.0210
     22 C         -11.6192  -18.4278   21.5747 C.3     1  UNL1        0.0722
     23 C         -10.6090  -18.8742   20.7875 C.3     1  UNL1        0.0210
@<TRIPOS>BOND
     1     1     2    2
     2     2    14    1
     3    14    15    1
     4    15    16    1
     5    16    17    1
     6    17    18    1
     7    18    19    1
     8    19    20    1
     9    20    21    1
    10    19    22    1
    11    22    23    1
    12     2     3    1
    13     3     4    2
    14     4     5    1
    15     5     6    2
    16     6     7    1
    17     7     8    1
    18     8     9    1
    19     8    10    2
    20    10    11    1
    21    10    12    1
    22    12    13    2
    23    21    16    1
    24    13     3    1
    25    23    16    1
    26    13     6    1
@<TRIPOS>MOLECULE
*****
 23 26 0 0 0
SMALL
GASTEIGER

@<TRIPOS>ATOM
      1 O          -6.8619  -15.4586   25.2878 O.2     1  UNL1       -0.2448
      2 C          -6.5835  -15.8634   23.8705 C.2     1  UNL1        0.3428
      3 C          -7.7207  -16.1229   22.9274 C.2     1  UNL1        0.0959
      4 C          -8.2718  -15.1546   21.9231 C.2     1  UNL1        0.1049
      5 N          -9.3981  -15.8296   21.1981 N.2     1  UNL1       -0.2475
      6 C          -9.5431  -17.2151   21.7543 C.2     1  UNL1        0.0661
      7 C         -10.4853  -18.3351   21.4256 C.3     1  UNL1        0.1045
      8 C         -10.3907  -19.6364   22.1657 C.2     1  UNL1        0.1508
      9 F         -11.3328  -20.7564   21.8371 F       1  UNL1       -0.2061
     10 C          -9.3539  -19.8177   23.2345 C.2     1  UNL1        0.1637
     11 F          -9.2593  -21.1189   23.9746 F       1  UNL1       -0.2021
     12 C          -8.4118  -18.6976   23.5632 C.2     1  UNL1        0.0331
     13 C          -8.5064  -17.3964   22.8231 C.2     1  UNL1        0.0240
     14 O          -5.1678  -16.0085   23.3963 O.3     1  UNL1       -0.4454
     15 C          -4.3887  -17.2465   23.7288 C.3     1  UNL1        0.2087
     16 C          -4.0770  -18.2472   22.6558 C.3     1  UNL1        0.0445
     17 C          -5.1894  -18.9888   21.9758 C.3     1  UNL1        0.0210
     18 C          -4.8776  -19.9896   20.9028 C.3     1  UNL1        0.0722
     19 N          -3.4534  -20.2487   20.5098 N.3     1  UNL1       -0.2727
     20 C          -2.3409  -19.5070   21.1898 C.3     1  UNL1        0.0722
     21 C          -2.6527  -18.5063   22.2628 C.3     1  UNL1        0.0210
     22 C          -3.5750  -19.6910   21.1032 C.3     1  UNL1        0.0722
     23 C          -3.8568  -18.7861   22.0735 C.3     1  UNL1        0.0210
@<TRIPOS>BOND
     1     1     2    2
     2     2    14    1
     3    14    15    1
     4    15    16    1
     5    16    17    1
     6    17    18    1
     7    18    19    1
     8    19    20    1
     9    20    21    1
    10    19    22    1
    11    22    23    1
    12     2     3    1
    13     3     4    2
    14     4     5    1
    15     5     6    2
    16     6     7    1
    17     7     8    1
    18     8     9    1
    19     8    10    2
    20    10    11    1
    21    10    12    1
    22    12    13    2
    23    21    16    1
    24    13     3    1
    25    23    16    1
    26    13     6    1
