@<TRIPOS>MOLECULE
*****
 22 25 0 0 0
SMALL
GASTEIGER

@<TRIPOS>ATOM
      1 O          -8.0543  -15.2973   21.3254 O.2     1  UNL1       -0.2448
      2 C          -7.8620  -16.6028   22.0385 C.2     1  UNL1        0.3428
      3 C          -8.3256  -16.7582   23.4566 C.2     1  UNL1        0.0980
      4 C          -9.5577  -17.4859   23.9066 C.2     1  UNL1        0.1050
      5 N          -9.6320  -17.3907   25.4017 N.2     1  UNL1       -0.2475
      6 C          -8.4459  -16.6042   25.8757 C.2     1  UNL1        0.0658
      7 C          -7.9967  -16.1936   27.2467 C.3     1  UNL1        0.0719
      8 C          -6.7402  -15.3920   27.4154 C.2     1  UNL1       -0.0175
      9 C          -5.9328  -15.0012   26.2132 C.2     1  UNL1        0.0255
     10 C          -6.3819  -15.4118   24.8423 C.2     1  UNL1        0.1412
     11 F          -5.5745  -15.0210   23.6401 F       1  UNL1       -0.2041
     12 C          -7.6385  -16.2134   24.6735 C.2     1  UNL1        0.0491
     13 O          -7.2060  -17.7529   21.3335 O.3     1  UNL1       -0.4454
     14 C          -6.4623  -18.7901   22.1217 C.3     1  UNL1        0.2087
     15 C          -4.9639  -18.8370   22.0734 C.3     1  UNL1        0.0445
     16 C          -4.2729  -19.7679   21.1216 C.3     1  UNL1        0.0210
     17 C          -2.7744  -19.8147   21.0733 C.3     1  UNL1        0.0722
     18 N          -1.9668  -18.9306   21.9768 N.3     1  UNL1       -0.2727
     19 C          -2.6578  -17.9998   22.9286 C.3     1  UNL1        0.0722
     20 C          -4.1564  -17.9529   22.9769 C.3     1  UNL1        0.0210
     21 C          -2.7856  -18.8698   22.0393 C.3     1  UNL1        0.0722
     22 C          -4.1406  -18.8274   22.0830 C.3     1  UNL1        0.0210
@<TRIPOS>BOND
     1     1     2    2
     2     2    13    1
     3    13    14    1
     4    14    15    1
     5    15    16    1
     6    16    17    1
     7    17    18    1
     8    18    19    1
     9    19    20    1
    10    18    21    1
    11    21    22    1
    12     2     3    1
    13     3     4    2
    14     4     5    1
    15     5     6    2
    16     6     7    1
    17     7     8    1
    18     8     9    2
    19     9    10    1
    20    10    11    1
    21    10    12    2
    22    20    15    1
    23    12     3    1
    24    22    15    1
    25    12     6    1
@<TRIPOS>MOLECULE
*****
 22 25 0 0 0
SMALL
GASTEIGER

@<TRIPOS>ATOM
      1 O          -6.4884  -17.0803   22.8149 O.2     1  UNL1       -0.2448
      2 C          -7.3447  -17.9572   21.9502 C.2     1  UNL1        0.3428
      3 C          -8.6148  -18.5388   22.4966 C.2     1  UNL1        0.0980
      4 C          -8.7738  -19.9065   23.0917 C.2     1  UNL1        0.1050
      5 N         -10.2062  -20.0677   23.5067 N.2     1  UNL1       -0.2475
      6 C         -10.9325  -18.7997   23.1680 C.2     1  UNL1        0.0658
      7 C         -12.3623  -18.3834   23.3475 C.3     1  UNL1        0.0719
      8 C         -12.8086  -17.0222   22.9026 C.2     1  UNL1       -0.0175
      9 C         -11.8250  -16.0773   22.2784 C.2     1  UNL1        0.0255
     10 C         -10.3952  -16.4936   22.0989 C.2     1  UNL1        0.1412
     11 F          -9.4116  -15.5486   21.4746 F       1  UNL1       -0.2041
     12 C          -9.9489  -17.8548   22.5438 C.2     1  UNL1        0.0491
     13 O          -6.9307  -18.2527   20.5390 O.3     1  UNL1       -0.4454
     14 C          -6.0344  -19.4200   20.2490 C.3     1  UNL1        0.2087
     15 C          -4.5473  -19.2746   20.3809 C.3     1  UNL1        0.0445
     16 C          -3.8622  -19.6931   21.6480 C.3     1  UNL1        0.0210
     17 C          -2.3752  -19.5476   21.7798 C.3     1  UNL1        0.0722
     18 N          -1.5731  -18.9837   20.6445 N.3     1  UNL1       -0.2727
     19 C          -2.2582  -18.5651   19.3775 C.3     1  UNL1        0.0722
     20 C          -3.7454  -18.7106   19.2457 C.3     1  UNL1        0.0210
     21 C          -2.3856  -19.0443   20.5257 C.3     1  UNL1        0.0722
     22 C          -3.7303  -19.1758   20.4064 C.3     1  UNL1        0.0210
@<TRIPOS>BOND
     1     1     2    2
     2     2    13    1
     3    13    14    1
     4    14    15    1
     5    15    16    1
     6    16    17    1
     7    17    18    1
     8    18    19    1
     9    19    20    1
    10    18    21    1
    11    21    22    1
    12     2     3    1
    13     3     4    2
    14     4     5    1
    15     5     6    2
    16     6     7    1
    17     7     8    1
    18     8     9    2
    19     9    10    1
    20    10    11    1
    21    10    12    2
    22    20    15    1
    23    12     3    1
    24    22    15    1
    25    12     6    1
@<TRIPOS>MOLECULE
*****
 22 25 0 0 0
SMALL
GASTEIGER

@<TRIPOS>ATOM
      1 O          -7.9179  -18.5824   20.3046 O.2     1  UNL1       -0.2448
      2 C          -8.0424  -18.0867   21.7148 C.2     1  UNL1        0.3428
      3 C          -9.1124  -18.6358   22.6112 C.2     1  UNL1        0.0980
      4 C          -8.9948  -19.8512   23.4824 C.2     1  UNL1        0.1050
      5 N         -10.2977  -20.0324   24.2034 N.2     1  UNL1       -0.2475
      6 C         -11.2205  -18.9291   23.7777 C.2     1  UNL1        0.0658
      7 C         -12.6331  -18.5990   24.1589 C.3     1  UNL1        0.0719
      8 C         -13.3132  -17.4056   23.5561 C.2     1  UNL1       -0.0175
      9 C         -12.5807  -16.5425   22.5721 C.2     1  UNL1        0.0255
     10 C         -11.1680  -16.8726   22.1908 C.2     1  UNL1        0.1412
     11 F         -10.4355  -16.0095   21.2068 F       1  UNL1       -0.2041
     12 C         -10.4879  -18.0660   22.7936 C.2     1  UNL1        0.0491
     13 O          -7.0967  -17.0418   22.2287 O.3     1  UNL1       -0.4454
     14 C          -7.6264  -15.8507   22.9709 C.3     1  UNL1        0.2087
     15 C          -7.3742  -15.7114   24.4429 C.3     1  UNL1        0.0445
     16 C          -6.0052  -15.3503   24.9385 C.3     1  UNL1        0.0210
     17 C          -5.7531  -15.2110   26.4105 C.3     1  UNL1        0.0722
     18 N          -6.8699  -15.4326   27.3871 N.3     1  UNL1       -0.2727
     19 C          -8.2389  -15.7937   26.8916 C.3     1  UNL1        0.0722
     20 C          -8.4910  -15.9330   25.4194 C.3     1  UNL1        0.0210
     21 C          -7.0563  -15.5203   26.5899 C.3     1  UNL1        0.0722
     22 C          -7.2844  -15.6463   25.2588 C.3     1  UNL1        0.0210
@<TRIPOS>BOND
     1     1     2    2
     2     2    13    1
     3    13    14    1
     4    14    15    1
     5    15    16    1
     6    16    17    1
     7    17    18    1
     8    18    19    1
     9    19    20    1
    10    18    21    1
    11    21    22    1
    12     2     3    1
    13     3     4    2
    14     4     5    1
    15     5     6    2
    16     6     7    1
    17     7     8    1
    18     8     9    2
    19     9    10    1
    20    10    11    1
    21    10    12    2
    22    20    15    1
    23    12     3    1
    24    22    15    1
    25    12     6    1
@<TRIPOS>MOLECULE
*****
 22 25 0 0 0
SMALL
GASTEIGER

@<TRIPOS>ATOM
      1 O          -8.3441  -18.9274   19.8313 O.2     1  UNL1       -0.2448
      2 C          -8.7781  -17.9221   20.8564 C.2     1  UNL1        0.3428
      3 C         -10.2384  -17.6988   21.1166 C.2     1  UNL1        0.0980
      4 C         -11.2198  -17.0837   20.1635 C.2     1  UNL1        0.1050
      5 N         -12.5616  -17.0561   20.8335 N.2     1  UNL1       -0.2475
      6 C         -12.4095  -17.6543   22.2006 C.2     1  UNL1        0.0658
      7 C         -13.3929  -17.8886   23.3088 C.3     1  UNL1        0.0719
      8 C         -12.9404  -18.5201   24.5919 C.2     1  UNL1       -0.0175
      9 C         -11.5046  -18.9173   24.7669 C.2     1  UNL1        0.0255
     10 C         -10.5212  -18.6830   23.6587 C.2     1  UNL1        0.1412
     11 F          -9.0854  -19.0802   23.8337 F       1  UNL1       -0.2041
     12 C         -10.9737  -18.0515   22.3756 C.2     1  UNL1        0.0491
     13 O          -7.7518  -17.1401   21.6215 O.3     1  UNL1       -0.4454
     14 C          -8.1593  -15.9173   22.3887 C.3     1  UNL1        0.2087
     15 C          -7.7338  -15.7520   23.8175 C.3     1  UNL1        0.0445
     16 C          -6.2955  -15.4796   24.1451 C.3     1  UNL1        0.0210
     17 C          -5.8701  -15.3144   25.5740 C.3     1  UNL1        0.0722
     18 N          -6.8828  -15.4216   26.6753 N.3     1  UNL1       -0.2727
     19 C          -8.3210  -15.6941   26.3478 C.3     1  UNL1        0.0722
     20 C          -8.7465  -15.8593   24.9188 C.3     1  UNL1        0.0210
     21 C          -7.1635  -15.5195   25.9074 C.3     1  UNL1        0.0722
     22 C          -7.5483  -15.6689   24.6155 C.3     1  UNL1        0.0210
@<TRIPOS>BOND
     1     1     2    2
     2     2    13    1
     3    13    14    1
     4    14    15    1
     5    15    16    1
     6    16    17    1
     7    17    18    1
     8    18    19    1
     9    19    20    1
    10    18    21    1
    11    21    22    1
    12     2     3    1
    13     3     4    2
    14     4     5    1
    15     5     6    2
    16     6     7    1
    17     7     8    1
    18     8     9    2
    19     9    10    1
    20    10    11    1
    21    10    12    2
    22    20    15    1
    23    12     3    1
    24    22    15    1
    25    12     6    1
@<TRIPOS>MOLECULE
*****
 22 25 0 0 0
SMALL
GASTEIGER

@<TRIPOS>ATOM
      1 O          -9.2349  -20.3764   18.6448 O.2     1  UNL1       -0.2448
      2 C          -9.0631  -19.3741   19.7473 C.2     1  UNL1        0.3428
      3 C         -10.2660  -18.7228   20.3630 C.2     1  UNL1        0.0980
      4 C         -11.2550  -17.8471   19.6524 C.2     1  UNL1        0.1050
      5 N         -12.2912  -17.4159   20.6476 N.2     1  UNL1       -0.2475
      6 C         -11.9425  -18.0252   21.9732 C.2     1  UNL1        0.0658
      7 C         -12.6031  -17.9489   23.3178 C.3     1  UNL1        0.0719
      8 C         -12.0120  -18.6802   24.4864 C.2     1  UNL1       -0.0175
      9 C         -10.7604  -19.4879   24.3104 C.2     1  UNL1        0.0255
     10 C         -10.0998  -19.5643   22.9659 C.2     1  UNL1        0.1412
     11 F          -8.8481  -20.3720   22.7900 F       1  UNL1       -0.2041
     12 C         -10.6909  -18.8329   21.7973 C.2     1  UNL1        0.0491
     13 O          -7.6884  -19.0230   20.2343 O.3     1  UNL1       -0.4454
     14 C          -6.6603  -20.0996   20.4184 C.3     1  UNL1        0.2087
     15 C          -5.3018  -19.7557   20.9533 C.3     1  UNL1        0.0445
     16 C          -5.1714  -19.0389   22.2645 C.3     1  UNL1        0.0210
     17 C          -3.8129  -18.6950   22.7994 C.3     1  UNL1        0.0722
     18 N          -2.5847  -19.0678   22.0231 N.3     1  UNL1       -0.2727
     19 C          -2.7151  -19.7845   20.7119 C.3     1  UNL1        0.0722
     20 C          -4.0737  -20.1285   20.1770 C.3     1  UNL1        0.0210
     21 C          -3.3078  -19.2774   21.6895 C.3     1  UNL1        0.0722
     22 C          -4.5361  -19.5884   21.2058 C.3     1  UNL1        0.0210
@<TRIPOS>BOND
     1     1     2    2
     2     2    13    1
     3    13    14    1
     4    14    15    1
     5    15    16    1
     6    16    17    1
     7    17    18    1
     8    18    19    1
     9    19    20    1
    10    18    21    1
    11    21    22    1
    12     2     3    1
    13     3     4    2
    14     4     5    1
    15     5     6    2
    16     6     7    1
    17     7     8    1
    18     8     9    2
    19     9    10    1
    20    10    11    1
    21    10    12    2
    22    20    15    1
    23    12     3    1
    24    22    15    1
    25    12     6    1
@<TRIPOS>MOLECULE
*****
 22 25 0 0 0
SMALL
GASTEIGER

@<TRIPOS>ATOM
      1 O          -6.9967  -19.9951   22.3252 O.2     1  UNL1       -0.2448
      2 C          -7.3171  -18.6693   21.7011 C.2     1  UNL1        0.3428
      3 C          -8.3424  -17.7727   22.3295 C.2     1  UNL1        0.0980
      4 C          -8.1769  -17.0035   23.6066 C.2     1  UNL1        0.1050
      5 N          -9.4454  -16.2433   23.8574 N.2     1  UNL1       -0.2475
      6 C         -10.3949  -16.5427   22.7355 C.2     1  UNL1        0.0658
      7 C         -11.7922  -16.0768   22.4517 C.3     1  UNL1        0.0719
      8 C         -12.5077  -16.5562   21.2237 C.2     1  UNL1       -0.0175
      9 C         -11.8260  -17.5014   20.2793 C.2     1  UNL1        0.0255
     10 C         -10.4288  -17.9673   20.5631 C.2     1  UNL1        0.1412
     11 F          -9.7470  -18.9126   19.6188 F       1  UNL1       -0.2041
     12 C          -9.7132  -17.4880   21.7912 C.2     1  UNL1        0.0491
     13 O          -6.6122  -18.2401   20.4485 O.3     1  UNL1       -0.4454
     14 C          -5.6548  -19.1739   19.7692 C.3     1  UNL1        0.2087
     15 C          -4.1848  -19.0767   20.0515 C.3     1  UNL1        0.0445
     16 C          -3.2874  -18.3327   19.1075 C.3     1  UNL1        0.0210
     17 C          -1.8174  -18.2356   19.3899 C.3     1  UNL1        0.0722
     18 N          -1.2448  -18.8823   20.6162 N.3     1  UNL1       -0.2727
     19 C          -2.1423  -19.6263   21.5602 C.3     1  UNL1        0.0722
     20 C          -3.6123  -19.7234   21.2778 C.3     1  UNL1        0.0210
     21 C          -2.0565  -18.9626   20.5036 C.3     1  UNL1        0.0722
     22 C          -3.3857  -19.0505   20.2484 C.3     1  UNL1        0.0210
@<TRIPOS>BOND
     1     1     2    2
     2     2    13    1
     3    13    14    1
     4    14    15    1
     5    15    16    1
     6    16    17    1
     7    17    18    1
     8    18    19    1
     9    19    20    1
    10    18    21    1
    11    21    22    1
    12     2     3    1
    13     3     4    2
    14     4     5    1
    15     5     6    2
    16     6     7    1
    17     7     8    1
    18     8     9    2
    19     9    10    1
    20    10    11    1
    21    10    12    2
    22    20    15    1
    23    12     3    1
    24    22    15    1
    25    12     6    1
@<TRIPOS>MOLECULE
*****
 22 25 0 0 0
SMALL
GASTEIGER

@<TRIPOS>ATOM
      1 O          -7.6836  -17.1033   21.7001 O.2     1  UNL1       -0.2448
      2 C          -7.3895  -18.5315   22.0514 C.2     1  UNL1        0.3428
      3 C          -6.1878  -19.2149   21.4693 C.2     1  UNL1        0.0980
      4 C          -6.2073  -20.3302   20.4664 C.2     1  UNL1        0.1050
      5 N          -4.7871  -20.7076   20.1653 N.2     1  UNL1       -0.2475
      6 C          -3.8899  -19.8255   20.9820 C.2     1  UNL1        0.0658
      7 C          -2.3965  -19.7432   21.0960 C.3     1  UNL1        0.0719
      8 C          -1.7688  -18.7384   22.0159 C.2     1  UNL1       -0.0175
      9 C          -2.6345  -17.8158   22.8218 C.2     1  UNL1        0.0255
     10 C          -4.1279  -17.8982   22.7079 C.2     1  UNL1        0.1412
     11 F          -4.9936  -16.9756   23.5138 F       1  UNL1       -0.2041
     12 C          -4.7556  -18.9030   21.7880 C.2     1  UNL1        0.0491
     13 O          -8.2972  -19.2764   22.9849 O.3     1  UNL1       -0.4454
     14 C          -9.5951  -19.8354   22.4820 C.3     1  UNL1        0.2087
     15 C         -10.6430  -18.9162   21.9280 C.3     1  UNL1        0.0445
     16 C         -11.7648  -18.4431   22.8041 C.3     1  UNL1        0.0210
     17 C         -12.8127  -17.5238   22.2500 C.3     1  UNL1        0.0722
     18 N         -12.7387  -17.0776   20.8198 N.3     1  UNL1       -0.2727
     19 C         -11.6169  -17.5507   19.9437 C.3     1  UNL1        0.0722
     20 C         -10.5690  -18.4700   20.4978 C.3     1  UNL1        0.0210
     21 C         -12.1414  -17.5818   21.0787 C.3     1  UNL1        0.0722
     22 C         -11.1939  -18.4130   21.5796 C.3     1  UNL1        0.0210
@<TRIPOS>BOND
     1     1     2    2
     2     2    13    1
     3    13    14    1
     4    14    15    1
     5    15    16    1
     6    16    17    1
     7    17    18    1
     8    18    19    1
     9    19    20    1
    10    18    21    1
    11    21    22    1
    12     2     3    1
    13     3     4    2
    14     4     5    1
    15     5     6    2
    16     6     7    1
    17     7     8    1
    18     8     9    2
    19     9    10    1
    20    10    11    1
    21    10    12    2
    22    20    15    1
    23    12     3    1
    24    22    15    1
    25    12     6    1
@<TRIPOS>MOLECULE
*****
 22 25 0 0 0
SMALL
GASTEIGER

@<TRIPOS>ATOM
      1 O          -9.5319  -20.0649   24.7685 O.2     1  UNL1       -0.2448
      2 C          -9.1830  -18.7766   24.0843 C.2     1  UNL1        0.3428
      3 C          -8.3735  -18.7932   22.8215 C.2     1  UNL1        0.0980
      4 C          -6.9354  -18.3874   22.6907 C.2     1  UNL1        0.1050
      5 N          -6.5332  -18.5620   21.2563 N.2     1  UNL1       -0.2475
      6 C          -7.7227  -19.0757   20.5005 C.2     1  UNL1        0.0658
      7 C          -7.9171  -19.4319   19.0565 C.3     1  UNL1        0.0719
      8 C          -9.2489  -19.9309   18.5798 C.2     1  UNL1       -0.0175
      9 C         -10.3863  -20.0738   19.5472 C.2     1  UNL1        0.0255
     10 C         -10.1919  -19.7177   20.9913 C.2     1  UNL1        0.1412
     11 F         -11.3293  -19.8606   21.9587 F       1  UNL1       -0.2041
     12 C          -8.8601  -19.2186   21.4679 C.2     1  UNL1        0.0491
     13 O          -9.6435  -17.4714   24.6628 O.3     1  UNL1       -0.4454
     14 C          -9.8629  -16.2893   23.7659 C.3     1  UNL1        0.2087
     15 C         -10.7977  -16.3975   22.5978 C.3     1  UNL1        0.0445
     16 C         -10.3700  -15.9057   21.2468 C.3     1  UNL1        0.0210
     17 C         -11.3048  -16.0139   20.0788 C.3     1  UNL1        0.0722
     18 N         -12.6675  -16.6139   20.2617 N.3     1  UNL1       -0.2727
     19 C         -13.0952  -17.1056   21.6127 C.3     1  UNL1        0.0722
     20 C         -12.1603  -16.9974   22.7808 C.3     1  UNL1        0.0210
     21 C         -12.1900  -16.5758   20.9314 C.3     1  UNL1        0.0722
     22 C         -11.3447  -16.4780   21.9877 C.3     1  UNL1        0.0210
@<TRIPOS>BOND
     1     1     2    2
     2     2    13    1
     3    13    14    1
     4    14    15    1
     5    15    16    1
     6    16    17    1
     7    17    18    1
     8    18    19    1
     9    19    20    1
    10    18    21    1
    11    21    22    1
    12     2     3    1
    13     3     4    2
    14     4     5    1
    15     5     6    2
    16     6     7    1
    17     7     8    1
    18     8     9    2
    19     9    10    1
    20    10    11    1
    21    10    12    2
    22    20    15    1
    23    12     3    1
    24    22    15    1
    25    12     6    1
@<TRIPOS>MOLECULE
*****
 22 25 0 0 0
SMALL
GASTEIGER

@<TRIPOS>ATOM
      1 O          -8.6988  -18.4152   23.3548 O.2     1  UNL1       -0.2448
      2 C          -7.7134  -17.9000   22.3482 C.2     1  UNL1        0.3428
      3 C          -6.9363  -18.8618   21.4990 C.2     1  UNL1        0.0980
      4 C          -7.5078  -19.7836   20.4628 C.2     1  UNL1        0.1050
      5 N          -6.3760  -20.5622   19.8603 N.2     1  UNL1       -0.2475
      6 C          -5.1051  -20.1215   20.5241 C.2     1  UNL1        0.0658
      7 C          -3.6773  -20.5414   20.3373 C.3     1  UNL1        0.0719
      8 C          -2.5958  -19.9104   21.1631 C.2     1  UNL1       -0.0175
      9 C          -2.9421  -18.8595   22.1759 C.2     1  UNL1        0.0255
     10 C          -4.3699  -18.4396   22.3628 C.2     1  UNL1        0.1412
     11 F          -4.7162  -17.3887   23.3756 F       1  UNL1       -0.2041
     12 C          -5.4514  -19.0706   21.5369 C.2     1  UNL1        0.0491
     13 O          -7.5050  -16.4229   22.1907 O.3     1  UNL1       -0.4454
     14 C          -8.0906  -15.4718   23.1920 C.3     1  UNL1        0.2087
     15 C          -7.6169  -15.4956   24.6150 C.3     1  UNL1        0.0445
     16 C          -6.1855  -15.1810   24.9344 C.3     1  UNL1        0.0210
     17 C          -5.7119  -15.2049   26.3575 C.3     1  UNL1        0.0722
     18 N          -6.6698  -15.5432   27.4612 N.3     1  UNL1       -0.2727
     19 C          -8.1012  -15.8578   27.1418 C.3     1  UNL1        0.0722
     20 C          -8.5748  -15.8340   25.7186 C.3     1  UNL1        0.0210
     21 C          -6.9756  -15.5429   26.6967 C.3     1  UNL1        0.0722
     22 C          -7.4039  -15.5214   25.4100 C.3     1  UNL1        0.0210
@<TRIPOS>BOND
     1     1     2    2
     2     2    13    1
     3    13    14    1
     4    14    15    1
     5    15    16    1
     6    16    17    1
     7    17    18    1
     8    18    19    1
     9    19    20    1
    10    18    21    1
    11    21    22    1
    12     2     3    1
    13     3     4    2
    14     4     5    1
    15     5     6    2
    16     6     7    1
    17     7     8    1
    18     8     9    2
    19     9    10    1
    20    10    11    1
    21    10    12    2
    22    20    15    1
    23    12     3    1
    24    22    15    1
    25    12     6    1
