@<TRIPOS>MOLECULE
*****
 31 33 0 0 0
SMALL
GASTEIGER

@<TRIPOS>ATOM
      1 C          -9.0873  -16.3864   21.6503 C.ar    1  UNL1        0.1300
      2 N         -10.5170  -15.9413   21.5615 N.ar    1  UNL1       -0.1995
      3 C         -11.5269  -16.7980   20.8570 C.ar    1  UNL1        0.2145
      4 N         -12.9566  -16.3528   20.7683 N.pl3   1  UNL1       -0.3274
      5 N         -11.1071  -18.0998   20.2413 N.ar    1  UNL1       -0.2185
      6 C          -9.6773  -18.5449   20.3301 C.ar    1  UNL1        0.0639
      7 C          -8.6675  -17.6882   21.0346 C.ar    1  UNL1        0.0429
      8 C          -7.2378  -18.1333   21.1234 C.3     1  UNL1        0.1244
      9 N          -6.8180  -19.4351   20.5076 N.am    1  UNL1       -0.2702
     10 C          -5.3883  -19.8802   20.5964 C.2     1  UNL1        0.2675
     11 O          -4.9685  -21.1820   19.9807 O.2     1  UNL1       -0.2682
     12 C          -7.8279  -20.2918   19.8032 C.3     1  UNL1        0.1004
     13 C          -9.2575  -19.8467   19.7144 C.3     1  UNL1        0.0672
     14 H         -13.2321  -15.4984   21.1724 H       1  UNL1        0.1452
     15 H         -13.6194  -16.9151   20.3059 H       1  UNL1        0.1452
     16 C          -4.3784  -19.0236   21.3009 C.ar    1  UNL1        0.1413
     17 C          -4.0111  -19.1068   22.7528 C.ar    1  UNL1        0.0603
     18 S          -2.9642  -18.0679   23.0264 S.2     1  UNL1       -0.0701
     19 C          -2.6846  -17.3426   21.7436 C.ar    1  UNL1        0.0888
     20 C          -1.7032  -16.2232   21.5594 C.3     1  UNL1        0.0594
     21 N          -3.5586  -17.9332   20.6772 N.ar    1  UNL1       -0.2381
     22 N          -8.0775  -15.5298   22.3548 N.pl3   1  UNL1       -0.3197
     23 H          -7.6481  -14.7826   21.8788 H       1  UNL1        0.1481
     24 C          -7.7219  -15.8115   23.7845 C.3     1  UNL1        0.0728
     25 C          -8.7610  -15.6721   24.8573 C.3     1  UNL1        0.0196
     26 C          -8.1368  -15.3209   27.3547 C.3     1  UNL1        0.0001
     27 C          -8.5075  -16.2348   26.2245 C.3     1  UNL1        0.0017
     28 C          -6.3271  -16.2325   24.1415 C.3     1  UNL1        0.0512
     29 C          -5.1901  -15.2659   23.9905 C.3     1  UNL1        0.1389
     30 O          -5.0860  -14.4170   22.7583 O.3     1  UNL1       -0.3819
     31 H          -4.9209  -14.9835   21.9884 H       1  UNL1        0.2104
@<TRIPOS>BOND
     1    26    27    1
     2    27    25    1
     3    24    25    1
     4    24    28    1
     5    28    29    1
     6    29    30    1
     7    24    22    1
     8    22     1    1
     9     1     2   ar
    10     2     3   ar
    11     3     4    1
    12     3     5   ar
    13     5     6   ar
    14     6     7   ar
    15     7     8    1
    16     8     9    1
    17     9    10   am
    18    10    11    2
    19    10    16    1
    20    16    17   ar
    21    17    18   ar
    22    18    19   ar
    23    19    20    1
    24    19    21   ar
    25     9    12    1
    26    12    13    1
    27     7     1   ar
    28    21    16   ar
    29    13     6    1
    30    30    31    1
    31    22    23    1
    32     4    14    1
    33     4    15    1
@<TRIPOS>MOLECULE
*****
 31 33 0 0 0
SMALL
GASTEIGER

@<TRIPOS>ATOM
      1 C          -6.1122  -16.9272   23.1696 C.ar    1  UNL1        0.1300
      2 N          -4.7094  -16.7946   23.6841 N.ar    1  UNL1       -0.1995
      3 C          -3.6367  -17.7159   23.1836 C.ar    1  UNL1        0.2145
      4 N          -2.2340  -17.5833   23.6981 N.pl3   1  UNL1       -0.3274
      5 N          -3.9667  -18.7697   22.1684 N.ar    1  UNL1       -0.2185
      6 C          -5.3695  -18.9023   21.6539 C.ar    1  UNL1        0.0639
      7 C          -6.4422  -17.9811   22.1545 C.ar    1  UNL1        0.0429
      8 C          -7.8449  -18.1137   21.6399 C.3     1  UNL1        0.1244
      9 N          -8.1749  -19.1675   20.6248 N.am    1  UNL1       -0.2702
     10 C          -9.5777  -19.3001   20.1103 C.2     1  UNL1        0.2675
     11 O          -9.9077  -20.3539   19.0952 O.2     1  UNL1       -0.2682
     12 C          -7.1022  -20.0887   20.1242 C.3     1  UNL1        0.1004
     13 C          -5.6995  -19.9562   20.6388 C.3     1  UNL1        0.0672
     14 H          -2.0174  -16.8916   24.3644 H       1  UNL1        0.1452
     15 H          -1.5299  -18.1879   23.3696 H       1  UNL1        0.1452
     16 C         -10.6504  -18.3789   20.6109 C.ar    1  UNL1        0.1413
     17 C         -11.1587  -17.1541   19.9097 C.ar    1  UNL1        0.0603
     18 S         -12.2256  -16.5389   20.7660 S.2     1  UNL1       -0.0701
     19 C         -12.3767  -17.3834   21.9964 C.ar    1  UNL1        0.0888
     20 C         -13.3333  -17.1345   23.1247 C.3     1  UNL1        0.0594
     21 N         -11.4032  -18.5206   21.9005 N.ar    1  UNL1       -0.2381
     22 N          -7.1849  -16.0060   23.6702 N.pl3   1  UNL1       -0.3197
     23 H          -7.3059  -15.1207   23.2567 H       1  UNL1        0.1481
     24 C          -8.0731  -16.4334   24.8008 C.3     1  UNL1        0.0728
     25 C          -9.2815  -17.2788   24.5268 C.3     1  UNL1        0.0196
     26 C         -10.0909  -19.7137   24.9348 C.3     1  UNL1        0.0001
     27 C          -9.6544  -18.3827   25.4715 C.3     1  UNL1        0.0017
     28 C          -7.7531  -16.0155   26.2054 C.3     1  UNL1        0.0512
     29 C          -6.3715  -15.5449   26.5515 C.3     1  UNL1        0.1389
     30 O          -5.7053  -14.4941   25.7137 O.3     1  UNL1       -0.3819
     31 H          -5.5390  -14.8463   24.8253 H       1  UNL1        0.2104
@<TRIPOS>BOND
     1    26    27    1
     2    27    25    1
     3    24    25    1
     4    24    28    1
     5    28    29    1
     6    29    30    1
     7    24    22    1
     8    22     1    1
     9     1     2   ar
    10     2     3   ar
    11     3     4    1
    12     3     5   ar
    13     5     6   ar
    14     6     7   ar
    15     7     8    1
    16     8     9    1
    17     9    10   am
    18    10    11    2
    19    10    16    1
    20    16    17   ar
    21    17    18   ar
    22    18    19   ar
    23    19    20    1
    24    19    21   ar
    25     9    12    1
    26    12    13    1
    27     7     1   ar
    28    21    16   ar
    29    13     6    1
    30    30    31    1
    31    22    23    1
    32     4    14    1
    33     4    15    1
@<TRIPOS>MOLECULE
*****
 31 33 0 0 0
SMALL
GASTEIGER

@<TRIPOS>ATOM
      1 C         -10.8597  -18.4098   24.2665 C.ar    1  UNL1        0.1300
      2 N         -12.2287  -18.2416   24.8558 N.ar    1  UNL1       -0.1995
      3 C         -13.4352  -18.2499   23.9646 C.ar    1  UNL1        0.2145
      4 N         -14.8043  -18.0817   24.5540 N.pl3   1  UNL1       -0.3274
      5 N         -13.2726  -18.4264   22.4839 N.ar    1  UNL1       -0.2185
      6 C         -11.9035  -18.5946   21.8945 C.ar    1  UNL1        0.0639
      7 C         -10.6971  -18.5863   22.7857 C.ar    1  UNL1        0.0429
      8 C          -9.3280  -18.7545   22.1963 C.3     1  UNL1        0.1244
      9 N          -9.1655  -18.9309   20.7157 N.am    1  UNL1       -0.2702
     10 C          -7.7964  -19.0991   20.1262 C.2     1  UNL1        0.2675
     11 O          -7.6338  -19.2756   18.6456 O.2     1  UNL1       -0.2682
     12 C         -10.3719  -18.9392   19.8244 C.3     1  UNL1        0.1004
     13 C         -11.7410  -18.7711   20.4138 C.3     1  UNL1        0.0672
     14 H         -14.9110  -17.9659   25.5259 H       1  UNL1        0.1452
     15 H         -15.5961  -18.0872   23.9691 H       1  UNL1        0.1452
     16 C          -6.5899  -19.0908   21.0175 C.ar    1  UNL1        0.1413
     17 C          -5.5998  -20.2071   21.1715 C.ar    1  UNL1        0.0603
     18 S          -4.5597  -19.7710   22.1604 S.2     1  UNL1       -0.0701
     19 C          -4.9069  -18.3852   22.6176 C.ar    1  UNL1        0.0888
     20 C          -4.1350  -17.5639   23.6074 C.3     1  UNL1        0.0594
     21 N          -6.1617  -17.9649   21.9112 N.ar    1  UNL1       -0.2381
     22 N          -9.6532  -18.4015   25.1577 N.pl3   1  UNL1       -0.3197
     23 H          -9.2552  -19.2514   25.4553 H       1  UNL1        0.1481
     24 C          -9.0531  -17.0984   25.5955 C.3     1  UNL1        0.0728
     25 C          -8.4926  -16.9583   26.9798 C.3     1  UNL1        0.0196
     26 C          -6.7580  -15.1123   27.5574 C.3     1  UNL1        0.0001
     27 C          -8.1770  -15.5977   27.5270 C.3     1  UNL1        0.0017
     28 C          -9.0135  -15.9353   24.6491 C.3     1  UNL1        0.0512
     29 C          -7.7283  -15.5638   23.9707 C.3     1  UNL1        0.1389
     30 O          -7.0947  -14.2317   24.2423 O.3     1  UNL1       -0.3819
     31 H          -7.6673  -13.5261   23.9029 H       1  UNL1        0.2104
@<TRIPOS>BOND
     1    26    27    1
     2    27    25    1
     3    24    25    1
     4    24    28    1
     5    28    29    1
     6    29    30    1
     7    24    22    1
     8    22     1    1
     9     1     2   ar
    10     2     3   ar
    11     3     4    1
    12     3     5   ar
    13     5     6   ar
    14     6     7   ar
    15     7     8    1
    16     8     9    1
    17     9    10   am
    18    10    11    2
    19    10    16    1
    20    16    17   ar
    21    17    18   ar
    22    18    19   ar
    23    19    20    1
    24    19    21   ar
    25     9    12    1
    26    12    13    1
    27     7     1   ar
    28    21    16   ar
    29    13     6    1
    30    30    31    1
    31    22    23    1
    32     4    14    1
    33     4    15    1
@<TRIPOS>MOLECULE
*****
 31 33 0 0 0
SMALL
GASTEIGER

@<TRIPOS>ATOM
      1 C          -5.9739  -16.9187   23.0479 C.ar    1  UNL1        0.1300
      2 N          -4.5690  -16.8116   23.5626 N.ar    1  UNL1       -0.1995
      3 C          -3.5247  -17.7841   23.1004 C.ar    1  UNL1        0.2145
      4 N          -2.1198  -17.6770   23.6151 N.pl3   1  UNL1       -0.3274
      5 N          -3.8852  -18.8637   22.1234 N.ar    1  UNL1       -0.2185
      6 C          -5.2901  -18.9708   21.6086 C.ar    1  UNL1        0.0639
      7 C          -6.3344  -17.9984   22.0709 C.ar    1  UNL1        0.0429
      8 C          -7.7392  -18.1055   21.5562 C.3     1  UNL1        0.1244
      9 N          -8.0997  -19.1850   20.5792 N.am    1  UNL1       -0.2702
     10 C          -9.5046  -19.2922   20.0645 C.2     1  UNL1        0.2675
     11 O          -9.8651  -20.3717   19.0875 O.2     1  UNL1       -0.2682
     12 C          -7.0554  -20.1575   20.1170 C.3     1  UNL1        0.1004
     13 C          -5.6506  -20.0504   20.6317 C.3     1  UNL1        0.0672
     14 H          -1.8832  -16.9684   24.2564 H       1  UNL1        0.1452
     15 H          -1.4344  -18.3152   23.3117 H       1  UNL1        0.1452
     16 C         -10.5490  -18.3197   20.5268 C.ar    1  UNL1        0.1413
     17 C         -11.0440  -17.1278   19.7623 C.ar    1  UNL1        0.0603
     18 S         -12.0826  -16.4399   20.5977 S.2     1  UNL1       -0.0701
     19 C         -12.2295  -17.2065   21.8786 C.ar    1  UNL1        0.0888
     20 C         -13.1607  -16.8704   23.0055 C.3     1  UNL1        0.0594
     21 N         -11.2817  -18.3683   21.8347 N.ar    1  UNL1       -0.2381
     22 N          -7.0182  -15.9463   23.5102 N.pl3   1  UNL1       -0.3197
     23 H          -7.1870  -15.1239   22.9961 H       1  UNL1        0.1481
     24 C          -7.8053  -16.2268   24.7559 C.3     1  UNL1        0.0728
     25 C          -7.1888  -15.9880   26.1023 C.3     1  UNL1        0.0196
     26 C          -8.5891  -14.7490   27.9063 C.3     1  UNL1        0.0001
     27 C          -8.0427  -16.0238   27.3352 C.3     1  UNL1        0.0017
     28 C          -9.2089  -16.7463   24.6551 C.3     1  UNL1        0.0512
     29 C          -9.4654  -18.2239   24.6807 C.3     1  UNL1        0.1389
     30 O          -9.9093  -18.8862   25.9513 O.3     1  UNL1       -0.3819
     31 H          -9.1982  -18.8334   26.6089 H       1  UNL1        0.2104
@<TRIPOS>BOND
     1    26    27    1
     2    27    25    1
     3    24    25    1
     4    24    28    1
     5    28    29    1
     6    29    30    1
     7    24    22    1
     8    22     1    1
     9     1     2   ar
    10     2     3   ar
    11     3     4    1
    12     3     5   ar
    13     5     6   ar
    14     6     7   ar
    15     7     8    1
    16     8     9    1
    17     9    10   am
    18    10    11    2
    19    10    16    1
    20    16    17   ar
    21    17    18   ar
    22    18    19   ar
    23    19    20    1
    24    19    21   ar
    25     9    12    1
    26    12    13    1
    27     7     1   ar
    28    21    16   ar
    29    13     6    1
    30    30    31    1
    31    22    23    1
    32     4    14    1
    33     4    15    1
@<TRIPOS>MOLECULE
*****
 31 33 0 0 0
SMALL
GASTEIGER

@<TRIPOS>ATOM
      1 C          -9.4194  -16.9642   21.8961 C.ar    1  UNL1        0.1300
      2 N         -10.8903  -16.6740   21.8501 N.ar    1  UNL1       -0.1995
      3 C         -11.7907  -17.4991   20.9792 C.ar    1  UNL1        0.2145
      4 N         -13.2617  -17.2089   20.9332 N.pl3   1  UNL1       -0.3274
      5 N         -11.2202  -18.6145   20.1543 N.ar    1  UNL1       -0.2185
      6 C          -9.7492  -18.9047   20.2003 C.ar    1  UNL1        0.0639
      7 C          -8.8488  -18.0796   21.0712 C.ar    1  UNL1        0.0429
      8 C          -7.3779  -18.3698   21.1172 C.3     1  UNL1        0.1244
      9 N          -6.8074  -19.4851   20.2924 N.am    1  UNL1       -0.2702
     10 C          -5.3364  -19.7754   20.3384 C.2     1  UNL1        0.2675
     11 O          -4.7659  -20.8907   19.5135 O.2     1  UNL1       -0.2682
     12 C          -7.7078  -20.3103   19.4215 C.3     1  UNL1        0.1004
     13 C          -9.1787  -20.0201   19.3755 C.3     1  UNL1        0.0672
     14 H         -13.6361  -16.4768   21.4746 H       1  UNL1        0.1452
     15 H         -13.8527  -17.7504   20.3616 H       1  UNL1        0.1452
     16 C          -4.4360  -18.9502   21.2093 C.ar    1  UNL1        0.1413
     17 C          -4.3155  -19.0532   22.7009 C.ar    1  UNL1        0.0603
     18 S          -3.3031  -18.0438   23.1549 S.2     1  UNL1       -0.0701
     19 C          -2.7978  -17.3170   21.9440 C.ar    1  UNL1        0.0888
     20 C          -1.7724  -16.2223   21.9367 C.3     1  UNL1        0.0594
     21 N          -3.4980  -17.8772   20.7415 N.ar    1  UNL1       -0.2381
     22 N          -8.5190  -16.1390   22.7670 N.pl3   1  UNL1       -0.3197
     23 H          -7.9427  -15.4492   22.3654 H       1  UNL1        0.1481
     24 C          -8.4967  -16.3649   24.2497 C.3     1  UNL1        0.0728
     25 C          -8.3166  -15.2041   25.1825 C.3     1  UNL1        0.0196
     26 C          -6.8230  -15.5301   27.2833 C.3     1  UNL1        0.0001
     27 C          -8.1834  -15.4411   26.6578 C.3     1  UNL1        0.0017
     28 C          -8.6546  -17.7515   24.7996 C.3     1  UNL1        0.0512
     29 C          -9.9904  -18.2106   25.3045 C.3     1  UNL1        0.1389
     30 O         -11.1028  -18.4876   24.3372 O.3     1  UNL1       -0.3819
     31 H         -11.3682  -17.6611   23.9043 H       1  UNL1        0.2104
@<TRIPOS>BOND
     1    26    27    1
     2    27    25    1
     3    24    25    1
     4    24    28    1
     5    28    29    1
     6    29    30    1
     7    24    22    1
     8    22     1    1
     9     1     2   ar
    10     2     3   ar
    11     3     4    1
    12     3     5   ar
    13     5     6   ar
    14     6     7   ar
    15     7     8    1
    16     8     9    1
    17     9    10   am
    18    10    11    2
    19    10    16    1
    20    16    17   ar
    21    17    18   ar
    22    18    19   ar
    23    19    20    1
    24    19    21   ar
    25     9    12    1
    26    12    13    1
    27     7     1   ar
    28    21    16   ar
    29    13     6    1
    30    30    31    1
    31    22    23    1
    32     4    14    1
    33     4    15    1
@<TRIPOS>MOLECULE
*****
 31 33 0 0 0
SMALL
GASTEIGER

@<TRIPOS>ATOM
      1 C          -5.4285  -17.8196   23.2247 C.ar    1  UNL1        0.1300
      2 N          -3.9489  -17.7399   23.4577 N.ar    1  UNL1       -0.1995
      3 C          -3.0012  -18.3807   22.4875 C.ar    1  UNL1        0.2145
      4 N          -1.5215  -18.3009   22.7206 N.pl3   1  UNL1       -0.3274
      5 N          -3.5332  -19.1012   21.2843 N.ar    1  UNL1       -0.2185
      6 C          -5.0129  -19.1809   21.0512 C.ar    1  UNL1        0.0639
      7 C          -5.9605  -18.5401   22.0214 C.ar    1  UNL1        0.0429
      8 C          -7.4401  -18.6198   21.7884 C.3     1  UNL1        0.1244
      9 N          -7.9721  -19.3403   20.5852 N.am    1  UNL1       -0.2702
     10 C          -9.4518  -19.4201   20.3521 C.2     1  UNL1        0.2675
     11 O          -9.9837  -20.1406   19.1488 O.2     1  UNL1       -0.2682
     12 C          -7.0244  -19.9812   19.6150 C.3     1  UNL1        0.1004
     13 C          -5.5448  -19.9015   19.8480 C.3     1  UNL1        0.0672
     14 H          -1.1724  -17.8280   23.5104 H       1  UNL1        0.1452
     15 H          -0.8996  -18.7215   22.0839 H       1  UNL1        0.1452
     16 C         -10.3994  -18.7792   21.3223 C.ar    1  UNL1        0.1413
     17 C         -11.0173  -19.4403   22.5186 C.ar    1  UNL1        0.0603
     18 S         -11.8954  -18.4345   23.2022 S.2     1  UNL1       -0.0701
     19 C         -11.8201  -17.1517   22.4284 C.ar    1  UNL1        0.0888
     20 C         -12.5425  -15.8792   22.7585 C.3     1  UNL1        0.0594
     21 N         -10.8956  -17.3648   21.2666 N.ar    1  UNL1       -0.2381
     22 N          -6.3762  -17.1787   24.1949 N.pl3   1  UNL1       -0.3197
     23 H          -7.0159  -17.7333   24.6974 H       1  UNL1        0.1481
     24 C          -6.3491  -15.6930   24.3996 C.3     1  UNL1        0.0728
     25 C          -5.7669  -15.1197   25.6575 C.3     1  UNL1        0.0196
     26 C          -7.8990  -15.4984   27.0932 C.3     1  UNL1        0.0001
     27 C          -6.4054  -15.4158   26.9822 C.3     1  UNL1        0.0017
     28 C          -6.9042  -14.7806   23.3463 C.3     1  UNL1        0.0512
     29 C          -8.0724  -15.2192   22.5139 C.3     1  UNL1        0.1389
     30 O          -8.2584  -14.6660   21.1321 O.3     1  UNL1       -0.3819
     31 H          -8.4457  -13.7158   21.1867 H       1  UNL1        0.2104
@<TRIPOS>BOND
     1    26    27    1
     2    27    25    1
     3    24    25    1
     4    24    28    1
     5    28    29    1
     6    29    30    1
     7    24    22    1
     8    22     1    1
     9     1     2   ar
    10     2     3   ar
    11     3     4    1
    12     3     5   ar
    13     5     6   ar
    14     6     7   ar
    15     7     8    1
    16     8     9    1
    17     9    10   am
    18    10    11    2
    19    10    16    1
    20    16    17   ar
    21    17    18   ar
    22    18    19   ar
    23    19    20    1
    24    19    21   ar
    25     9    12    1
    26    12    13    1
    27     7     1   ar
    28    21    16   ar
    29    13     6    1
    30    30    31    1
    31    22    23    1
    32     4    14    1
    33     4    15    1
@<TRIPOS>MOLECULE
*****
 31 33 0 0 0
SMALL
GASTEIGER

@<TRIPOS>ATOM
      1 C          -9.6261  -17.1283   22.1432 C.ar    1  UNL1        0.1300
      2 N         -11.0977  -16.8531   22.0497 N.ar    1  UNL1       -0.1995
      3 C         -11.9316  -17.5708   21.0302 C.ar    1  UNL1        0.2145
      4 N         -13.4032  -17.2957   20.9368 N.pl3   1  UNL1       -0.3274
      5 N         -11.2940  -18.5636   20.1041 N.ar    1  UNL1       -0.2185
      6 C          -9.8224  -18.8388   20.1975 C.ar    1  UNL1        0.0639
      7 C          -8.9884  -18.1211   21.2170 C.ar    1  UNL1        0.0429
      8 C          -7.5169  -18.3962   21.3104 C.3     1  UNL1        0.1244
      9 N          -6.8792  -19.3890   20.3843 N.am    1  UNL1       -0.2702
     10 C          -5.4076  -19.6642   20.4777 C.2     1  UNL1        0.2675
     11 O          -4.7700  -20.6570   19.5516 O.2     1  UNL1       -0.2682
     12 C          -7.7132  -20.1067   19.3648 C.3     1  UNL1        0.1004
     13 C          -9.1847  -19.8316   19.2714 C.3     1  UNL1        0.0672
     14 H         -13.8217  -16.6440   21.5447 H       1  UNL1        0.1452
     15 H         -13.9506  -17.7667   20.2677 H       1  UNL1        0.1452
     16 C          -4.5737  -18.9465   21.4973 C.ar    1  UNL1        0.1413
     17 C          -3.0773  -18.8421   21.4970 C.ar    1  UNL1        0.0603
     18 S          -2.6685  -18.0383   22.6957 S.2     1  UNL1       -0.0701
     19 C          -3.9122  -17.6459   23.4367 C.ar    1  UNL1        0.0888
     20 C          -3.9686  -16.8346   24.6971 C.3     1  UNL1        0.0594
     21 N          -5.0896  -18.2072   22.6961 N.ar    1  UNL1       -0.2381
     22 N          -8.7922  -16.4106   23.1627 N.pl3   1  UNL1       -0.3197
     23 H          -8.1959  -15.6785   22.8839 H       1  UNL1        0.1481
     24 C          -8.8667  -16.8083   24.6071 C.3     1  UNL1        0.0728
     25 C          -9.9958  -17.6693   25.0906 C.3     1  UNL1        0.0196
     26 C          -9.8143  -20.0871   24.1573 C.3     1  UNL1        0.0001
     27 C          -9.7770  -19.1360   25.3165 C.3     1  UNL1        0.0017
     28 C          -7.8120  -16.3451   25.5679 C.3     1  UNL1        0.0512
     29 C          -7.2126  -14.9779   25.4218 C.3     1  UNL1        0.1389
     30 O          -7.5490  -14.1353   24.2273 O.3     1  UNL1       -0.3819
     31 H          -7.1958  -14.5539   23.4266 H       1  UNL1        0.2104
@<TRIPOS>BOND
     1    26    27    1
     2    27    25    1
     3    24    25    1
     4    24    28    1
     5    28    29    1
     6    29    30    1
     7    24    22    1
     8    22     1    1
     9     1     2   ar
    10     2     3   ar
    11     3     4    1
    12     3     5   ar
    13     5     6   ar
    14     6     7   ar
    15     7     8    1
    16     8     9    1
    17     9    10   am
    18    10    11    2
    19    10    16    1
    20    16    17   ar
    21    17    18   ar
    22    18    19   ar
    23    19    20    1
    24    19    21   ar
    25     9    12    1
    26    12    13    1
    27     7     1   ar
    28    21    16   ar
    29    13     6    1
    30    30    31    1
    31    22    23    1
    32     4    14    1
    33     4    15    1
@<TRIPOS>MOLECULE
*****
 31 33 0 0 0
SMALL
GASTEIGER

@<TRIPOS>ATOM
      1 C          -6.0717  -16.9047   23.3974 C.ar    1  UNL1        0.1300
      2 N          -5.3597  -16.1279   24.4650 N.ar    1  UNL1       -0.1995
      3 C          -6.1454  -15.3199   25.4548 C.ar    1  UNL1        0.2145
      4 N          -5.4334  -14.5432   26.5225 N.pl3   1  UNL1       -0.3274
      5 N          -7.6430  -15.2886   25.3771 N.ar    1  UNL1       -0.2185
      6 C          -8.3551  -16.0654   24.3095 C.ar    1  UNL1        0.0639
      7 C          -7.5694  -16.8734   23.3196 C.ar    1  UNL1        0.0429
      8 C          -8.2813  -17.6501   22.2521 C.3     1  UNL1        0.1244
      9 N          -9.7789  -17.6188   22.1743 N.am    1  UNL1       -0.2702
     10 C         -10.4910  -18.3956   21.1067 C.2     1  UNL1        0.2675
     11 O         -11.9886  -18.3643   21.0290 O.2     1  UNL1       -0.2682
     12 C         -10.5646  -16.8108   23.1642 C.3     1  UNL1        0.1004
     13 C          -9.8527  -16.0341   24.2318 C.3     1  UNL1        0.0672
     14 H          -4.4504  -14.5637   26.5735 H       1  UNL1        0.1452
     15 H          -5.9490  -14.0128   27.1721 H       1  UNL1        0.1452
     16 C          -9.7053  -19.2036   20.1168 C.ar    1  UNL1        0.1413
     17 C          -8.2179  -19.3978   20.1198 C.ar    1  UNL1        0.0603
     18 S          -7.8624  -20.2735   18.9550 S.2     1  UNL1       -0.0701
     19 C          -9.1301  -20.6206   18.2321 C.ar    1  UNL1        0.0888
     20 C          -9.2396  -21.4782   17.0064 C.3     1  UNL1        0.0594
     21 N         -10.2690  -19.9593   18.9502 N.ar    1  UNL1       -0.2381
     22 N          -5.2860  -17.7127   22.4076 N.pl3   1  UNL1       -0.3197
     23 H          -5.7366  -18.1080   21.6266 H       1  UNL1        0.1481
     24 C          -3.8137  -17.9185   22.6076 C.3     1  UNL1        0.0728
     25 C          -3.2521  -19.3080   22.6689 C.3     1  UNL1        0.0196
     26 C          -3.5992  -20.0464   20.2022 C.3     1  UNL1        0.0001
     27 C          -2.7321  -19.9624   21.4233 C.3     1  UNL1        0.0017
     28 C          -2.9030  -16.7346   22.7463 C.3     1  UNL1        0.0512
     29 C          -2.0421  -16.3115   21.5931 C.3     1  UNL1        0.1389
     30 O          -2.4361  -16.6716   20.1913 O.3     1  UNL1       -0.3819
     31 H          -2.3938  -17.6344   20.0808 H       1  UNL1        0.2104
@<TRIPOS>BOND
     1    26    27    1
     2    27    25    1
     3    24    25    1
     4    24    28    1
     5    28    29    1
     6    29    30    1
     7    24    22    1
     8    22     1    1
     9     1     2   ar
    10     2     3   ar
    11     3     4    1
    12     3     5   ar
    13     5     6   ar
    14     6     7   ar
    15     7     8    1
    16     8     9    1
    17     9    10   am
    18    10    11    2
    19    10    16    1
    20    16    17   ar
    21    17    18   ar
    22    18    19   ar
    23    19    20    1
    24    19    21   ar
    25     9    12    1
    26    12    13    1
    27     7     1   ar
    28    21    16   ar
    29    13     6    1
    30    30    31    1
    31    22    23    1
    32     4    14    1
    33     4    15    1
@<TRIPOS>MOLECULE
*****
 31 33 0 0 0
SMALL
GASTEIGER

@<TRIPOS>ATOM
      1 C           3.0670   -1.9783   20.3474 C.ar    1  UNL1        0.1300
      2 N           3.3546   -2.9924   19.2803 N.ar    1  UNL1       -0.1995
      3 C           4.2767   -4.1406   19.5657 C.ar    1  UNL1        0.2145
      4 N           4.5643   -5.1547   18.4985 N.pl3   1  UNL1       -0.3274
      5 N           4.9113   -4.2746   20.9182 N.ar    1  UNL1       -0.2185
      6 C           4.6237   -3.2604   21.9854 C.ar    1  UNL1        0.0639
      7 C           3.7015   -2.1123   21.7000 C.ar    1  UNL1        0.0429
      8 C           3.4139   -1.0982   22.7672 C.3     1  UNL1        0.1244
      9 N           4.0484   -1.2322   24.1197 N.am    1  UNL1       -0.2702
     10 C           3.7608   -0.2180   25.1869 C.2     1  UNL1        0.2675
     11 O           4.3954   -0.3520   26.5394 O.2     1  UNL1       -0.2682
     12 C           4.9706   -2.3803   24.4051 C.3     1  UNL1        0.1004
     13 C           5.2582   -3.3944   23.3380 C.3     1  UNL1        0.0672
     14 H           4.1479   -5.0668   17.6108 H       1  UNL1        0.1452
     15 H           5.1696   -5.9083   18.6858 H       1  UNL1        0.1452
     16 C           2.8387    0.9301   24.9015 C.ar    1  UNL1        0.1413
     17 C           3.2508    2.3037   24.4619 C.ar    1  UNL1        0.0603
     18 S           2.0093    3.1288   24.2943 S.2     1  UNL1       -0.0701
     19 C           0.8299    2.2650   24.6303 C.ar    1  UNL1        0.0888
     20 C          -0.6094    2.6861   24.5970 C.3     1  UNL1        0.0594
     21 N           1.3425    0.9062   25.0056 N.ar    1  UNL1       -0.2381
     22 N           2.1448   -0.8302   20.0620 N.pl3   1  UNL1       -0.3197
     23 H           1.3644   -0.6702   20.6404 H       1  UNL1        0.1481
     24 C           2.4117    0.0741   18.8954 C.3     1  UNL1        0.0728
     25 C           1.2680    0.7099   18.1622 C.3     1  UNL1        0.0196
     26 C           0.0986    2.2088   19.9331 C.3     1  UNL1        0.0001
     27 C           0.7541    2.0517   18.5930 C.3     1  UNL1        0.0017
     28 C           3.8225    0.3426   18.4620 C.3     1  UNL1        0.0512
     29 C           4.3189   -0.1915   17.1513 C.3     1  UNL1        0.1389
     30 O           3.9324   -1.5717   16.7091 O.3     1  UNL1       -0.3819
     31 H           4.3241   -2.2252   17.3095 H       1  UNL1        0.2104
@<TRIPOS>BOND
     1    26    27    1
     2    27    25    1
     3    24    25    1
     4    24    28    1
     5    28    29    1
     6    29    30    1
     7    24    22    1
     8    22     1    1
     9     1     2   ar
    10     2     3   ar
    11     3     4    1
    12     3     5   ar
    13     5     6   ar
    14     6     7   ar
    15     7     8    1
    16     8     9    1
    17     9    10   am
    18    10    11    2
    19    10    16    1
    20    16    17   ar
    21    17    18   ar
    22    18    19   ar
    23    19    20    1
    24    19    21   ar
    25     9    12    1
    26    12    13    1
    27     7     1   ar
    28    21    16   ar
    29    13     6    1
    30    30    31    1
    31    22    23    1
    32     4    14    1
    33     4    15    1
