@<TRIPOS>MOLECULE
*****
 19 20 0 0 0
SMALL
GASTEIGER

@<TRIPOS>ATOM
      1 C          -8.4529  -17.5249   22.0022 C.2     1  UNL1        0.1855
      2 O          -7.3583  -17.7759   21.0077 O.2     1  UNL1       -0.2900
      3 C          -8.1306  -16.9149   23.3342 C.ar    1  UNL1        0.0369
      4 C          -9.1748  -16.8679   24.4100 C.ar    1  UNL1        0.0038
      5 C          -8.8524  -16.2580   25.7418 C.ar    1  UNL1        0.0123
      6 C          -7.4859  -15.6950   25.9980 C.ar    1  UNL1        0.0682
      7 CL         -7.1636  -15.0850   27.3300 Cl      1  UNL1       -0.0814
      8 C          -6.4417  -15.7420   24.9222 C.ar    1  UNL1        0.0683
      9 CL         -5.0751  -15.1790   25.1783 Cl      1  UNL1       -0.0814
     10 C          -6.7640  -16.3520   23.5903 C.ar    1  UNL1        0.0151
     11 C          -9.8696  -17.8839   21.6648 C.3     1  UNL1        0.0981
     12 C         -11.1996  -18.5311   21.4151 C.3     1  UNL1        0.0233
     13 C         -12.1407  -17.4772   20.9115 C.3     1  UNL1        0.0189
     14 C         -11.3924  -16.1786   20.8500 C.3     1  UNL1        0.0689
     15 N          -9.9888  -16.4300   21.3155 N.3     1  UNL1       -0.2938
     16 H          -9.7891  -15.8592   22.1369 H       1  UNL1        0.1235
     17 C          -9.4542  -19.2627   22.0846 C.3     1  UNL1        0.0219
     18 C          -9.8278  -20.4312   24.3748 C.3     1  UNL1        0.0001
     19 C         -10.3257  -20.0595   23.0095 C.3     1  UNL1        0.0018
@<TRIPOS>BOND
     1    18    19    1
     2    19    17    1
     3    17    11    1
     4    11     1    1
     5     1     2    2
     6     1     3    1
     7     3     4   ar
     8     4     5   ar
     9     5     6   ar
    10     6     7    1
    11     6     8   ar
    12     8     9    1
    13     8    10   ar
    14    11    12    1
    15    12    13    1
    16    13    14    1
    17    14    15    1
    18    15    11    1
    19    10     3   ar
    20    15    16    1
@<TRIPOS>MOLECULE
*****
 19 20 0 0 0
SMALL
GASTEIGER

@<TRIPOS>ATOM
      1 C          -9.6323  -17.2433   22.3348 C.2     1  UNL1        0.1855
      2 O          -9.1469  -17.8021   21.0302 O.2     1  UNL1       -0.2900
      3 C          -8.6535  -16.6660   23.3140 C.ar    1  UNL1        0.0369
      4 C          -9.1477  -15.9934   24.5603 C.ar    1  UNL1        0.0038
      5 C          -8.1689  -15.4161   25.5395 C.ar    1  UNL1        0.0123
      6 C          -6.6960  -15.5114   25.2722 C.ar    1  UNL1        0.0682
      7 CL         -5.7172  -14.9341   26.2514 Cl      1  UNL1       -0.0814
      8 C          -6.2018  -16.1840   24.0259 C.ar    1  UNL1        0.0683
      9 CL         -4.7289  -16.2793   23.7587 Cl      1  UNL1       -0.0814
     10 C          -7.1806  -16.7613   23.0468 C.ar    1  UNL1        0.0151
     11 C         -11.0964  -17.2617   22.6603 C.3     1  UNL1        0.0981
     12 C         -12.5758  -17.0447   22.7793 C.3     1  UNL1        0.0233
     13 C         -13.1110  -18.0334   23.7723 C.3     1  UNL1        0.0189
     14 C         -11.9623  -18.8616   24.2669 C.3     1  UNL1        0.0689
     15 N         -10.7172  -18.3846   23.5797 N.3     1  UNL1       -0.2938
     16 H         -10.3045  -19.1473   23.0427 H       1  UNL1        0.1235
     17 C         -11.1695  -16.1350   21.6728 C.3     1  UNL1        0.0219
     18 C         -11.7016  -15.6679   19.1730 C.3     1  UNL1        0.0001
     19 C         -12.1096  -16.2192   20.5071 C.3     1  UNL1        0.0018
@<TRIPOS>BOND
     1    18    19    1
     2    19    17    1
     3    17    11    1
     4    11     1    1
     5     1     2    2
     6     1     3    1
     7     3     4   ar
     8     4     5   ar
     9     5     6   ar
    10     6     7    1
    11     6     8   ar
    12     8     9    1
    13     8    10   ar
    14    11    12    1
    15    12    13    1
    16    13    14    1
    17    14    15    1
    18    15    11    1
    19    10     3   ar
    20    15    16    1
@<TRIPOS>MOLECULE
*****
 19 20 0 0 0
SMALL
GASTEIGER

@<TRIPOS>ATOM
      1 C          -9.5974  -16.3908   22.3611 C.2     1  UNL1        0.1855
      2 O          -9.4410  -15.7993   20.9915 O.2     1  UNL1       -0.2900
      3 C          -8.5755  -16.1070   23.4218 C.ar    1  UNL1        0.0369
      4 C          -7.1157  -16.1095   23.0767 C.ar    1  UNL1        0.0038
      5 C          -6.0939  -15.8256   24.1375 C.ar    1  UNL1        0.0123
      6 C          -6.5317  -15.5393   25.5433 C.ar    1  UNL1        0.0682
      7 CL         -5.5098  -15.2555   26.6040 Cl      1  UNL1       -0.0814
      8 C          -7.9915  -15.5369   25.8883 C.ar    1  UNL1        0.0683
      9 CL         -8.4293  -15.2506   27.2942 Cl      1  UNL1       -0.0814
     10 C          -9.0133  -15.8207   24.8276 C.ar    1  UNL1        0.0151
     11 C         -10.7757  -17.2662   22.6699 C.3     1  UNL1        0.0981
     12 C         -11.7418  -18.3724   22.9747 C.3     1  UNL1        0.0233
     13 C         -13.1076  -17.7687   23.1175 C.3     1  UNL1        0.0189
     14 C         -12.9855  -16.2895   22.9010 C.3     1  UNL1        0.0689
     15 N         -11.5443  -15.9789   22.6243 N.3     1  UNL1       -0.2938
     16 H         -11.1866  -15.3369   23.3316 H       1  UNL1        0.1235
     17 C          -9.7607  -18.3704   22.6509 C.3     1  UNL1        0.0219
     18 C          -9.2691  -20.5345   24.0019 C.3     1  UNL1        0.0001
     19 C         -10.1518  -19.7559   23.0721 C.3     1  UNL1        0.0018
@<TRIPOS>BOND
     1    18    19    1
     2    19    17    1
     3    17    11    1
     4    11     1    1
     5     1     2    2
     6     1     3    1
     7     3     4   ar
     8     4     5   ar
     9     5     6   ar
    10     6     7    1
    11     6     8   ar
    12     8     9    1
    13     8    10   ar
    14    11    12    1
    15    12    13    1
    16    13    14    1
    17    14    15    1
    18    15    11    1
    19    10     3   ar
    20    15    16    1
@<TRIPOS>MOLECULE
*****
 19 20 0 0 0
SMALL
GASTEIGER

@<TRIPOS>ATOM
      1 C          -9.5349  -19.2131   20.2730 C.2     1  UNL1        0.1855
      2 O          -9.6490  -19.9880   18.9937 O.2     1  UNL1       -0.2900
      3 C          -8.1980  -19.0470   20.9326 C.ar    1  UNL1        0.0369
      4 C          -7.0897  -20.0130   20.6351 C.ar    1  UNL1        0.0038
      5 C          -5.7528  -19.8469   21.2946 C.ar    1  UNL1        0.0123
      6 C          -5.5242  -18.7148   22.2517 C.ar    1  UNL1        0.0682
      7 CL         -4.1872  -18.5487   22.9113 Cl      1  UNL1       -0.0814
      8 C          -6.6324  -17.7488   22.5492 C.ar    1  UNL1        0.0683
      9 CL         -6.4038  -16.6166   23.5063 Cl      1  UNL1       -0.0814
     10 C          -7.9693  -17.9149   21.8897 C.ar    1  UNL1        0.0151
     11 C         -10.7578  -18.6043   20.8927 C.3     1  UNL1        0.0981
     12 C         -11.9857  -18.2591   21.6820 C.3     1  UNL1        0.0233
     13 C         -12.4645  -16.9117   21.2289 C.3     1  UNL1        0.0189
     14 C         -11.5325  -16.4242   20.1595 C.3     1  UNL1        0.0689
     15 N         -10.4776  -17.4702   19.9517 N.3     1  UNL1       -0.2938
     16 H          -9.5570  -17.0772   20.1477 H       1  UNL1        0.1235
     17 C         -10.7822  -19.8656   21.7041 C.3     1  UNL1        0.0219
     18 C          -9.7419  -20.3651   24.0318 C.3     1  UNL1        0.0001
     19 C         -10.8520  -19.7934   23.2007 C.3     1  UNL1        0.0018
@<TRIPOS>BOND
     1    18    19    1
     2    19    17    1
     3    17    11    1
     4    11     1    1
     5     1     2    2
     6     1     3    1
     7     3     4   ar
     8     4     5   ar
     9     5     6   ar
    10     6     7    1
    11     6     8   ar
    12     8     9    1
    13     8    10   ar
    14    11    12    1
    15    12    13    1
    16    13    14    1
    17    14    15    1
    18    15    11    1
    19    10     3   ar
    20    15    16    1
@<TRIPOS>MOLECULE
*****
 19 20 0 0 0
SMALL
GASTEIGER

@<TRIPOS>ATOM
      1 C          -9.7505  -16.4437   21.8821 C.2     1  UNL1        0.1855
      2 O         -10.0229  -15.3582   20.8833 O.2     1  UNL1       -0.2900
      3 C          -8.8642  -16.1724   23.0615 C.ar    1  UNL1        0.0369
      4 C          -9.4488  -16.1157   24.4417 C.ar    1  UNL1        0.0038
      5 C          -8.5625  -15.8444   25.6210 C.ar    1  UNL1        0.0123
      6 C          -7.0915  -15.6299   25.4201 C.ar    1  UNL1        0.0682
      7 CL         -6.2052  -15.3587   26.5995 Cl      1  UNL1       -0.0814
      8 C          -6.5069  -15.6867   24.0399 C.ar    1  UNL1        0.0683
      9 CL         -5.0360  -15.4722   23.8391 Cl      1  UNL1       -0.0814
     10 C          -7.3932  -15.9579   22.8606 C.ar    1  UNL1        0.0151
     11 C         -10.3644  -17.8003   21.7015 C.3     1  UNL1        0.0981
     12 C         -11.1896  -19.0526   21.7279 C.3     1  UNL1        0.0233
     13 C         -10.5605  -20.0420   20.7922 C.3     1  UNL1        0.0189
     14 C          -9.3466  -19.4011   20.1876 C.3     1  UNL1        0.0689
     15 N          -9.2253  -18.0156   20.7496 N.3     1  UNL1       -0.2938
     16 H          -9.2707  -17.3308   19.9950 H       1  UNL1        0.1235
     17 C         -11.3750  -17.3013   22.6912 C.3     1  UNL1        0.0219
     18 C         -13.6335  -17.8621   23.8467 C.3     1  UNL1        0.0001
     19 C         -12.8005  -17.7599   22.6034 C.3     1  UNL1        0.0018
@<TRIPOS>BOND
     1    18    19    1
     2    19    17    1
     3    17    11    1
     4    11     1    1
     5     1     2    2
     6     1     3    1
     7     3     4   ar
     8     4     5   ar
     9     5     6   ar
    10     6     7    1
    11     6     8   ar
    12     8     9    1
    13     8    10   ar
    14    11    12    1
    15    12    13    1
    16    13    14    1
    17    14    15    1
    18    15    11    1
    19    10     3   ar
    20    15    16    1
@<TRIPOS>MOLECULE
*****
 19 20 0 0 0
SMALL
GASTEIGER

@<TRIPOS>ATOM
      1 C          -9.0678  -17.1457   22.5277 C.2     1  UNL1        0.1855
      2 O          -8.6426  -15.8167   23.0783 O.2     1  UNL1       -0.2900
      3 C          -8.0486  -18.0719   21.9331 C.ar    1  UNL1        0.0369
      4 C          -8.4022  -18.9100   20.7404 C.ar    1  UNL1        0.0038
      5 C          -7.3831  -19.8361   20.1459 C.ar    1  UNL1        0.0123
      6 C          -6.0103  -19.9241   20.7439 C.ar    1  UNL1        0.0682
      7 CL         -4.9911  -20.8503   20.1493 Cl      1  UNL1       -0.0814
      8 C          -5.6566  -19.0860   21.9366 C.ar    1  UNL1        0.0683
      9 CL         -4.2839  -19.1741   22.5347 Cl      1  UNL1       -0.0814
     10 C          -6.6758  -18.1599   22.5312 C.ar    1  UNL1        0.0151
     11 C         -10.5120  -17.5485   22.5718 C.3     1  UNL1        0.0981
     12 C         -11.8741  -18.0944   22.8824 C.3     1  UNL1        0.0233
     13 C         -12.8068  -17.6629   21.7897 C.3     1  UNL1        0.0189
     14 C         -12.0210  -16.8503   20.8037 C.3     1  UNL1        0.0689
     15 N         -10.6027  -16.7796   21.2870 N.3     1  UNL1       -0.2938
     16 H         -10.3394  -15.8071   21.4463 H       1  UNL1        0.1235
     17 C         -10.1193  -18.2332   23.8473 C.3     1  UNL1        0.0219
     18 C          -9.4564  -20.7223   24.1865 C.3     1  UNL1        0.0001
     19 C         -10.5119  -19.6614   24.0834 C.3     1  UNL1        0.0018
@<TRIPOS>BOND
     1    18    19    1
     2    19    17    1
     3    17    11    1
     4    11     1    1
     5     1     2    2
     6     1     3    1
     7     3     4   ar
     8     4     5   ar
     9     5     6   ar
    10     6     7    1
    11     6     8   ar
    12     8     9    1
    13     8    10   ar
    14    11    12    1
    15    12    13    1
    16    13    14    1
    17    14    15    1
    18    15    11    1
    19    10     3   ar
    20    15    16    1
@<TRIPOS>MOLECULE
*****
 19 20 0 0 0
SMALL
GASTEIGER

@<TRIPOS>ATOM
      1 C          -7.9869  -17.4018   22.0822 C.2     1  UNL1        0.1855
      2 O          -7.7704  -16.0442   21.4821 O.2     1  UNL1       -0.2900
      3 C          -9.2895  -17.7271   22.7511 C.ar    1  UNL1        0.0369
      4 C          -9.3006  -18.2500   24.1569 C.ar    1  UNL1        0.0038
      5 C         -10.6032  -18.5753   24.8259 C.ar    1  UNL1        0.0123
      6 C         -11.8947  -18.3776   24.0890 C.ar    1  UNL1        0.0682
      7 CL        -13.1973  -18.7028   24.7580 Cl      1  UNL1       -0.0814
      8 C         -11.8836  -17.8546   22.6832 C.ar    1  UNL1        0.0683
      9 CL        -13.1750  -17.6569   21.9463 Cl      1  UNL1       -0.0814
     10 C         -10.5810  -17.5294   22.0143 C.ar    1  UNL1        0.0151
     11 C          -6.9009  -18.4341   22.0132 C.3     1  UNL1        0.0981
     12 C          -6.0312  -19.6364   21.7939 C.3     1  UNL1        0.0233
     13 C          -4.6856  -19.3505   22.3920 C.3     1  UNL1        0.0189
     14 C          -4.7237  -17.9715   22.9809 C.3     1  UNL1        0.0689
     15 N          -6.0928  -17.4051   22.7468 N.3     1  UNL1       -0.2938
     16 H          -6.0247  -16.5551   22.1871 H       1  UNL1        0.1235
     17 C          -7.9360  -19.2473   21.2941 C.3     1  UNL1        0.0219
     18 C          -8.9344  -19.8714   18.9780 C.3     1  UNL1        0.0001
     19 C          -7.7438  -19.5966   19.8480 C.3     1  UNL1        0.0018
@<TRIPOS>BOND
     1    18    19    1
     2    19    17    1
     3    17    11    1
     4    11     1    1
     5     1     2    2
     6     1     3    1
     7     3     4   ar
     8     4     5   ar
     9     5     6   ar
    10     6     7    1
    11     6     8   ar
    12     8     9    1
    13     8    10   ar
    14    11    12    1
    15    12    13    1
    16    13    14    1
    17    14    15    1
    18    15    11    1
    19    10     3   ar
    20    15    16    1
@<TRIPOS>MOLECULE
*****
 19 20 0 0 0
SMALL
GASTEIGER

@<TRIPOS>ATOM
      1 C          -9.2743  -16.7112   22.5930 C.2     1  UNL1        0.1855
      2 O          -9.3743  -16.0500   21.2504 O.2     1  UNL1       -0.2900
      3 C          -8.2754  -16.2199   23.5985 C.ar    1  UNL1        0.0369
      4 C          -6.8599  -15.9527   23.1805 C.ar    1  UNL1        0.0038
      5 C          -5.8611  -15.4614   24.1859 C.ar    1  UNL1        0.0123
      6 C          -6.2778  -15.2372   25.6094 C.ar    1  UNL1        0.0682
      7 CL         -5.2789  -14.7459   26.6148 Cl      1  UNL1       -0.0814
      8 C          -7.6934  -15.5044   26.0273 C.ar    1  UNL1        0.0683
      9 CL         -8.1101  -15.2803   27.4507 Cl      1  UNL1       -0.0814
     10 C          -8.6922  -15.9958   25.0219 C.ar    1  UNL1        0.0151
     11 C         -10.1732  -17.8638   22.9303 C.3     1  UNL1        0.0981
     12 C         -11.2991  -18.8005   23.2538 C.3     1  UNL1        0.0233
     13 C         -10.7206  -20.1707   23.4492 C.3     1  UNL1        0.0189
     14 C          -9.2371  -20.0806   23.2466 C.3     1  UNL1        0.0689
     15 N          -8.8988  -18.6549   22.9259 N.3     1  UNL1       -0.2938
     16 H          -8.4614  -18.6014   22.0059 H       1  UNL1        0.1235
     17 C         -11.2596  -16.8317   22.8642 C.3     1  UNL1        0.0219
     18 C         -12.6592  -16.5531   20.6931 C.3     1  UNL1        0.0001
     19 C         -12.5080  -17.1061   22.0792 C.3     1  UNL1        0.0018
@<TRIPOS>BOND
     1    18    19    1
     2    19    17    1
     3    17    11    1
     4    11     1    1
     5     1     2    2
     6     1     3    1
     7     3     4   ar
     8     4     5   ar
     9     5     6   ar
    10     6     7    1
    11     6     8   ar
    12     8     9    1
    13     8    10   ar
    14    11    12    1
    15    12    13    1
    16    13    14    1
    17    14    15    1
    18    15    11    1
    19    10     3   ar
    20    15    16    1
@<TRIPOS>MOLECULE
*****
 19 20 0 0 0
SMALL
GASTEIGER

@<TRIPOS>ATOM
      1 C         -10.1017  -18.4739   23.1628 C.2     1  UNL1        0.1855
      2 O         -10.3250  -19.8462   23.7259 O.2     1  UNL1       -0.2900
      3 C          -9.0447  -17.5855   23.7490 C.ar    1  UNL1        0.0369
      4 C          -7.8481  -17.2022   22.9298 C.ar    1  UNL1        0.0038
      5 C          -6.7912  -16.3139   23.5161 C.ar    1  UNL1        0.0123
      6 C          -6.9309  -15.8088   24.9216 C.ar    1  UNL1        0.0682
      7 CL         -5.8739  -14.9204   25.5078 Cl      1  UNL1       -0.0814
      8 C          -8.1275  -16.1921   25.7408 C.ar    1  UNL1        0.0683
      9 CL         -8.2672  -15.6871   27.1463 Cl      1  UNL1       -0.0814
     10 C          -9.1844  -17.0805   25.1545 C.ar    1  UNL1        0.0151
     11 C         -10.9352  -17.9901   22.0134 C.3     1  UNL1        0.0981
     12 C         -11.6481  -17.7543   20.7149 C.3     1  UNL1        0.0233
     13 C         -12.4918  -16.5232   20.8662 C.3     1  UNL1        0.0189
     14 C         -12.3003  -15.9983   22.2582 C.3     1  UNL1        0.0689
     15 N         -11.3383  -16.9049   22.9672 N.3     1  UNL1       -0.2938
     16 H         -11.7876  -17.3135   23.7867 H       1  UNL1        0.1235
     17 C         -10.3579  -19.1765   21.2999 C.3     1  UNL1        0.0219
     18 C          -8.8912  -19.7111   19.2230 C.3     1  UNL1        0.0001
     19 C         -10.1382  -19.1259   19.8170 C.3     1  UNL1        0.0018
@<TRIPOS>BOND
     1    18    19    1
     2    19    17    1
     3    17    11    1
     4    11     1    1
     5     1     2    2
     6     1     3    1
     7     3     4   ar
     8     4     5   ar
     9     5     6   ar
    10     6     7    1
    11     6     8   ar
    12     8     9    1
    13     8    10   ar
    14    11    12    1
    15    12    13    1
    16    13    14    1
    17    14    15    1
    18    15    11    1
    19    10     3   ar
    20    15    16    1
