@<TRIPOS>MOLECULE
*****
 32 35 0 0 0
SMALL
GASTEIGER

@<TRIPOS>ATOM
      1 C          -3.4839  -18.2528   21.7472 C.ar    1  UNL1        0.0895
      2 C          -2.6869  -17.0108   22.0158 C.ar    1  UNL1        0.1062
      3 N          -3.2377  -15.9468   22.9184 N.ar    1  UNL1       -0.2271
      4 C          -4.5854  -16.1248   23.5522 C.ar    1  UNL1        0.1558
      5 C          -5.3824  -17.3668   23.2836 C.ar    1  UNL1        0.0529
      6 C          -4.8316  -18.4308   22.3811 C.ar    1  UNL1        0.0793
      7 C          -2.9331  -19.3168   20.8446 C.2     1  UNL1        0.2676
      8 O          -2.1866  -20.4807   21.4259 O.2     1  UNL1       -0.2683
      9 C          -2.3668  -18.1943   18.5711 C.3     1  UNL1        0.1388
     10 N          -3.1288  -19.2168   19.3609 N.am    1  UNL1       -0.1997
     11 N          -5.1362  -15.0608   24.4548 N.am    1  UNL1       -0.1603
     12 C          -6.5982  -15.0441   24.7894 C.2     1  UNL1        0.2464
     13 O          -7.5981  -14.6058   23.7607 O.2     1  UNL1       -0.2730
     14 C          -7.0605  -15.4657   26.1527 C.3     1  UNL1        0.0786
     15 C          -8.1737  -15.7334   27.1217 C.3     1  UNL1        0.0096
     16 C          -6.7479  -15.9282   27.5449 C.3     1  UNL1        0.0096
     17 N          -5.6287  -19.6728   22.1124 N.pl3   1  UNL1       -0.2091
     18 C          -6.9209  -19.5857   21.3559 C.ar    1  UNL1        0.1044
     19 C          -6.9488  -19.8711   19.8836 C.ar    1  UNL1        0.0196
     20 C          -8.2411  -19.7840   19.1270 C.ar    1  UNL1        0.0016
     21 C          -9.5056  -19.4114   19.8428 C.ar    1  UNL1        0.0062
     22 C          -9.4777  -19.1260   21.3151 C.ar    1  UNL1        0.0710
     23 C          -8.1855  -19.2131   22.0717 C.ar    1  UNL1        0.1567
     24 C         -10.7421  -18.7534   22.0309 C.ar    1  UNL1        0.1654
     25 N         -11.6433  -17.6981   21.4614 N.ar    1  UNL1       -0.2226
     26 C         -12.9077  -17.3255   22.1772 C.ar    1  UNL1        0.1317
     27 C         -13.2711  -18.0083   23.4625 C.ar    1  UNL1        0.1783
     28 F         -14.5355  -17.6357   24.1783 F       1  UNL1       -0.2009
     29 C         -12.3700  -19.0636   24.0319 C.ar    1  UNL1        0.1317
     30 N         -11.1055  -19.4362   23.3161 N.ar    1  UNL1       -0.2226
     31 O          -8.1576  -18.9277   23.5440 O.3     1  UNL1       -0.4700
     32 C          -8.8065  -17.6859   24.0796 C.3     1  UNL1        0.2525
@<TRIPOS>BOND
     1     9    10    1
     2    10     7   am
     3     7     8    2
     4     7     1    1
     5     1     2   ar
     6     2     3   ar
     7     3     4   ar
     8     4    11    1
     9    11    12   am
    10    12    13    2
    11    12    14    1
    12    14    15    1
    13    15    16    1
    14     4     5   ar
    15     5     6   ar
    16     6    17    1
    17    17    18    1
    18    18    19   ar
    19    19    20   ar
    20    20    21   ar
    21    21    22   ar
    22    22    24    1
    23    24    25   ar
    24    25    26   ar
    25    26    27   ar
    26    27    28    1
    27    27    29   ar
    28    29    30   ar
    29    22    23   ar
    30    23    31    1
    31    31    32    1
    32     6     1   ar
    33    23    18   ar
    34    16    14    1
    35    30    24   ar
@<TRIPOS>MOLECULE
*****
 32 35 0 0 0
SMALL
GASTEIGER

@<TRIPOS>ATOM
      1 C          -9.0583  -17.8040   21.6059 C.ar    1  UNL1        0.0895
      2 C          -9.6133  -16.4123   21.5359 C.ar    1  UNL1        0.1062
      3 N          -9.0230  -15.3258   22.3850 N.ar    1  UNL1       -0.2271
      4 C          -7.8776  -15.6311   23.3042 C.ar    1  UNL1        0.1558
      5 C          -7.3225  -17.0228   23.3741 C.ar    1  UNL1        0.0529
      6 C          -7.9129  -18.1093   22.5250 C.ar    1  UNL1        0.0793
      7 C          -9.6486  -18.8905   20.7567 C.2     1  UNL1        0.2676
      8 O          -9.2082  -19.0518   19.3320 O.2     1  UNL1       -0.2683
      9 C         -11.1626  -19.6185   22.7386 C.3     1  UNL1        0.1388
     10 N         -10.6794  -19.8158   21.3323 N.am    1  UNL1       -0.1997
     11 N          -7.2873  -14.5446   24.1533 N.am    1  UNL1       -0.1603
     12 C          -6.6440  -14.8839   25.4652 C.2     1  UNL1        0.2464
     13 O          -5.1604  -14.7389   25.6328 O.2     1  UNL1       -0.2730
     14 C          -7.4843  -15.3683   26.6094 C.3     1  UNL1        0.0786
     15 C          -7.9063  -16.4697   27.5361 C.3     1  UNL1        0.0096
     16 C          -8.5175  -15.1060   27.6646 C.3     1  UNL1        0.0096
     17 N          -7.3577  -19.5011   22.5950 N.pl3   1  UNL1       -0.2091
     18 C          -6.3209  -19.9456   21.6064 C.ar    1  UNL1        0.1044
     19 C          -6.5698  -21.1511   20.7493 C.ar    1  UNL1        0.0196
     20 C          -5.5329  -21.5956   19.7607 C.ar    1  UNL1        0.0016
     21 C          -4.2470  -20.8345   19.6293 C.ar    1  UNL1        0.0062
     22 C          -3.9980  -19.6290   20.4864 C.ar    1  UNL1        0.0710
     23 C          -5.0349  -19.1845   21.4750 C.ar    1  UNL1        0.1567
     24 C          -2.7122  -18.8679   20.3550 C.ar    1  UNL1        0.1654
     25 N          -2.7381  -17.3927   20.0844 N.ar    1  UNL1       -0.2226
     26 C          -1.4522  -16.6316   19.9530 C.ar    1  UNL1        0.1317
     27 C          -0.1405  -17.3457   20.0921 C.ar    1  UNL1        0.1783
     28 F           1.1454  -16.5846   19.9607 F       1  UNL1       -0.2009
     29 C          -0.1145  -18.8208   20.3626 C.ar    1  UNL1        0.1317
     30 N          -1.4004  -19.5820   20.4941 N.ar    1  UNL1       -0.2226
     31 O          -4.7859  -17.9789   22.3321 O.3     1  UNL1       -0.4700
     32 C          -3.8369  -18.0653   23.4904 C.3     1  UNL1        0.2525
@<TRIPOS>BOND
     1     9    10    1
     2    10     7   am
     3     7     8    2
     4     7     1    1
     5     1     2   ar
     6     2     3   ar
     7     3     4   ar
     8     4    11    1
     9    11    12   am
    10    12    13    2
    11    12    14    1
    12    14    15    1
    13    15    16    1
    14     4     5   ar
    15     5     6   ar
    16     6    17    1
    17    17    18    1
    18    18    19   ar
    19    19    20   ar
    20    20    21   ar
    21    21    22   ar
    22    22    24    1
    23    24    25   ar
    24    25    26   ar
    25    26    27   ar
    26    27    28    1
    27    27    29   ar
    28    29    30   ar
    29    22    23   ar
    30    23    31    1
    31    31    32    1
    32     6     1   ar
    33    23    18   ar
    34    16    14    1
    35    30    24   ar
@<TRIPOS>MOLECULE
*****
 32 35 0 0 0
SMALL
GASTEIGER

@<TRIPOS>ATOM
      1 C         -11.5442  -16.4899   20.7603 C.ar    1  UNL1        0.0895
      2 C         -12.1711  -16.0467   22.0489 C.ar    1  UNL1        0.1062
      3 N         -12.1636  -16.9593   23.2394 N.ar    1  UNL1       -0.2271
      4 C         -11.5292  -18.3149   23.1412 C.ar    1  UNL1        0.1558
      5 C         -10.9024  -18.7581   21.8526 C.ar    1  UNL1        0.0529
      6 C         -10.9098  -17.8456   20.6621 C.ar    1  UNL1        0.0793
      7 C         -11.5517  -15.5774   19.5698 C.2     1  UNL1        0.2676
      8 O         -12.7832  -15.4616   18.7213 O.2     1  UNL1       -0.2683
      9 C          -9.3535  -14.4033   20.3041 C.3     1  UNL1        0.1388
     10 N         -10.3277  -14.7807   19.2278 N.am    1  UNL1       -0.1997
     11 N         -11.5218  -19.2275   24.3317 N.am    1  UNL1       -0.1603
     12 C         -10.2693  -19.3960   25.1397 C.2     1  UNL1        0.2464
     13 O          -9.7149  -20.7678   25.3866 O.2     1  UNL1       -0.2730
     14 C          -9.5711  -18.1927   25.7007 C.3     1  UNL1        0.0786
     15 C          -8.9409  -16.8462   25.5017 C.3     1  UNL1        0.0096
     16 C          -8.9921  -17.4552   26.8715 C.3     1  UNL1        0.0096
     17 N         -10.2829  -18.2888   19.3735 N.pl3   1  UNL1       -0.2091
     18 C          -9.1245  -19.2415   19.3917 C.ar    1  UNL1        0.1044
     19 C          -9.2464  -20.5832   18.7321 C.ar    1  UNL1        0.0196
     20 C          -8.0879  -21.5359   18.7503 C.ar    1  UNL1        0.0016
     21 C          -6.8076  -21.1469   19.4282 C.ar    1  UNL1        0.0062
     22 C          -6.6857  -19.8052   20.0877 C.ar    1  UNL1        0.0710
     23 C          -7.8441  -18.8525   20.0695 C.ar    1  UNL1        0.1567
     24 C          -5.4054  -19.4163   20.7655 C.ar    1  UNL1        0.1654
     25 N          -5.2400  -19.6374   22.2400 N.ar    1  UNL1       -0.2226
     26 C          -3.9597  -19.2484   22.9178 C.ar    1  UNL1        0.1317
     27 C          -2.8447  -18.6383   22.1212 C.ar    1  UNL1        0.1783
     28 F          -1.5644  -18.2493   22.7990 F       1  UNL1       -0.2009
     29 C          -3.0099  -18.4172   20.6469 C.ar    1  UNL1        0.1317
     30 N          -4.2903  -18.8062   19.9690 N.ar    1  UNL1       -0.2226
     31 O          -7.7222  -17.5109   20.7291 O.3     1  UNL1       -0.4700
     32 C          -7.7878  -17.4011   22.2236 C.3     1  UNL1        0.2525
@<TRIPOS>BOND
     1     9    10    1
     2    10     7   am
     3     7     8    2
     4     7     1    1
     5     1     2   ar
     6     2     3   ar
     7     3     4   ar
     8     4    11    1
     9    11    12   am
    10    12    13    2
    11    12    14    1
    12    14    15    1
    13    15    16    1
    14     4     5   ar
    15     5     6   ar
    16     6    17    1
    17    17    18    1
    18    18    19   ar
    19    19    20   ar
    20    20    21   ar
    21    21    22   ar
    22    22    24    1
    23    24    25   ar
    24    25    26   ar
    25    26    27   ar
    26    27    28    1
    27    27    29   ar
    28    29    30   ar
    29    22    23   ar
    30    23    31    1
    31    31    32    1
    32     6     1   ar
    33    23    18   ar
    34    16    14    1
    35    30    24   ar
@<TRIPOS>MOLECULE
*****
 32 35 0 0 0
SMALL
GASTEIGER

@<TRIPOS>ATOM
      1 C         -10.3911   -4.0564   18.0007 C.ar    1  UNL1        0.0895
      2 C          -9.7152   -3.3485   16.8641 C.ar    1  UNL1        0.1062
      3 N         -10.3193   -2.1001   16.2926 N.ar    1  UNL1       -0.2271
      4 C         -11.5992   -1.5596   16.8578 C.ar    1  UNL1        0.1558
      5 C         -12.2751   -2.2674   17.9945 C.ar    1  UNL1        0.0529
      6 C         -11.6710   -3.5159   18.5660 C.ar    1  UNL1        0.0793
      7 C          -9.7870   -5.3048   18.5722 C.2     1  UNL1        0.2676
      8 O          -9.0585   -5.2537   19.8823 O.2     1  UNL1       -0.2683
      9 C          -9.5939   -7.8953   18.5281 C.3     1  UNL1        0.1388
     10 N          -9.9115   -6.6043   17.8335 N.am    1  UNL1       -0.1997
     11 N         -12.2033   -0.3112   16.2864 N.am    1  UNL1       -0.1603
     12 C         -12.5571    0.8325   17.1902 C.2     1  UNL1        0.2464
     13 O         -11.6435    2.0178   17.2927 O.2     1  UNL1       -0.2730
     14 C         -13.8245    0.7909   17.9914 C.3     1  UNL1        0.0786
     15 C         -14.7651    1.4314   18.9686 C.3     1  UNL1        0.0096
     16 C         -15.0790    0.0785   18.4020 C.3     1  UNL1        0.0096
     17 N         -12.3470   -4.2237   19.7027 N.pl3   1  UNL1       -0.2091
     18 C         -13.8386   -4.3811   19.7074 C.ar    1  UNL1        0.1044
     19 C         -14.7137   -3.2241   20.0889 C.ar    1  UNL1        0.0196
     20 C         -16.2055   -3.3815   20.0936 C.ar    1  UNL1        0.0016
     21 C         -16.8221   -4.6959   19.7168 C.ar    1  UNL1        0.0062
     22 C         -15.9470   -5.8530   19.3352 C.ar    1  UNL1        0.0710
     23 C         -14.4553   -5.6956   19.3305 C.ar    1  UNL1        0.1567
     24 C         -16.5637   -7.1674   18.9584 C.ar    1  UNL1        0.1654
     25 N         -17.1650   -7.3507   17.5964 N.ar    1  UNL1       -0.2226
     26 C         -17.7816   -8.6651   17.2196 C.ar    1  UNL1        0.1317
     27 C         -17.7970   -9.7962   18.2046 C.ar    1  UNL1        0.1783
     28 F         -18.4136  -11.1106   17.8278 F       1  UNL1       -0.2009
     29 C         -17.1956   -9.6130   19.5665 C.ar    1  UNL1        0.1317
     30 N         -16.5790   -8.2985   19.9434 N.ar    1  UNL1       -0.2226
     31 O         -13.5803   -6.8526   18.9490 O.3     1  UNL1       -0.4700
     32 C         -13.3108   -7.1441   17.5025 C.3     1  UNL1        0.2525
@<TRIPOS>BOND
     1     9    10    1
     2    10     7   am
     3     7     8    2
     4     7     1    1
     5     1     2   ar
     6     2     3   ar
     7     3     4   ar
     8     4    11    1
     9    11    12   am
    10    12    13    2
    11    12    14    1
    12    14    15    1
    13    15    16    1
    14     4     5   ar
    15     5     6   ar
    16     6    17    1
    17    17    18    1
    18    18    19   ar
    19    19    20   ar
    20    20    21   ar
    21    21    22   ar
    22    22    24    1
    23    24    25   ar
    24    25    26   ar
    25    26    27   ar
    26    27    28    1
    27    27    29   ar
    28    29    30   ar
    29    22    23   ar
    30    23    31    1
    31    31    32    1
    32     6     1   ar
    33    23    18   ar
    34    16    14    1
    35    30    24   ar
@<TRIPOS>MOLECULE
*****
 32 35 0 0 0
SMALL
GASTEIGER

@<TRIPOS>ATOM
      1 C          -7.5847  -16.2560   23.1424 C.ar    1  UNL1        0.0895
      2 C          -8.6778  -15.2885   22.7977 C.ar    1  UNL1        0.1062
      3 N          -9.8918  -15.7620   22.0546 N.ar    1  UNL1       -0.2271
      4 C         -10.0125  -17.2031   21.6563 C.ar    1  UNL1        0.1558
      5 C          -8.9194  -18.1706   22.0010 C.ar    1  UNL1        0.0529
      6 C          -7.7054  -17.6971   22.7441 C.ar    1  UNL1        0.0793
      7 C          -6.3708  -15.7825   23.8855 C.2     1  UNL1        0.2676
      8 O          -5.3345  -14.9579   23.1811 O.2     1  UNL1       -0.2683
      9 C          -7.1521  -15.6021   26.3567 C.3     1  UNL1        0.1388
     10 N          -6.1931  -16.1335   25.3330 N.am    1  UNL1       -0.1997
     11 N         -11.2264  -17.6766   20.9132 N.am    1  UNL1       -0.1603
     12 C         -12.5958  -17.3941   21.4562 C.2     1  UNL1        0.2464
     13 O         -13.6050  -16.6765   20.6096 O.2     1  UNL1       -0.2730
     14 C         -12.9561  -17.8290   22.8458 C.3     1  UNL1        0.0786
     15 C         -13.9766  -17.9885   23.9335 C.3     1  UNL1        0.0096
     16 C         -12.5596  -18.4228   24.1649 C.3     1  UNL1        0.0096
     17 N          -6.6122  -18.6647   23.0888 N.pl3   1  UNL1       -0.2091
     18 C          -5.7228  -19.2070   22.0096 C.ar    1  UNL1        0.1044
     19 C          -6.1840  -20.3580   21.1655 C.ar    1  UNL1        0.0196
     20 C          -5.2945  -20.9003   20.0862 C.ar    1  UNL1        0.0016
     21 C          -3.9439  -20.2917   19.8511 C.ar    1  UNL1        0.0062
     22 C          -3.4827  -19.1407   20.6951 C.ar    1  UNL1        0.0710
     23 C          -4.3721  -18.5983   21.7744 C.ar    1  UNL1        0.1567
     24 C          -2.1321  -18.5320   20.4600 C.ar    1  UNL1        0.1654
     25 N          -0.9540  -19.4121   20.1644 N.ar    1  UNL1       -0.2226
     26 C           0.3966  -18.8034   19.9292 C.ar    1  UNL1        0.1317
     27 C           0.5692  -17.3146   19.9897 C.ar    1  UNL1        0.1783
     28 F           1.9198  -16.7060   19.7546 F       1  UNL1       -0.2009
     29 C          -0.6089  -16.4345   20.2853 C.ar    1  UNL1        0.1317
     30 N          -1.9596  -17.0432   20.5205 N.ar    1  UNL1       -0.2226
     31 O          -3.9110  -17.4473   22.6185 O.3     1  UNL1       -0.4700
     32 C          -3.2360  -17.7044   23.9331 C.3     1  UNL1        0.2525
@<TRIPOS>BOND
     1     9    10    1
     2    10     7   am
     3     7     8    2
     4     7     1    1
     5     1     2   ar
     6     2     3   ar
     7     3     4   ar
     8     4    11    1
     9    11    12   am
    10    12    13    2
    11    12    14    1
    12    14    15    1
    13    15    16    1
    14     4     5   ar
    15     5     6   ar
    16     6    17    1
    17    17    18    1
    18    18    19   ar
    19    19    20   ar
    20    20    21   ar
    21    21    22   ar
    22    22    24    1
    23    24    25   ar
    24    25    26   ar
    25    26    27   ar
    26    27    28    1
    27    27    29   ar
    28    29    30   ar
    29    22    23   ar
    30    23    31    1
    31    31    32    1
    32     6     1   ar
    33    23    18   ar
    34    16    14    1
    35    30    24   ar
@<TRIPOS>MOLECULE
*****
 32 35 0 0 0
SMALL
GASTEIGER

@<TRIPOS>ATOM
      1 C         -10.5431  -16.8742   22.5682 C.ar    1  UNL1        0.0895
      2 C         -10.4843  -15.5921   23.3446 C.ar    1  UNL1        0.1062
      3 N          -9.8423  -15.5647   24.7000 N.ar    1  UNL1       -0.2271
      4 C          -9.2591  -16.8195   25.2790 C.ar    1  UNL1        0.1558
      5 C          -9.3179  -18.1016   24.5027 C.ar    1  UNL1        0.0529
      6 C          -9.9599  -18.1289   23.1473 C.ar    1  UNL1        0.0793
      7 C         -11.1850  -16.9015   21.2128 C.2     1  UNL1        0.2676
      8 O         -10.4304  -16.4049   20.0154 O.2     1  UNL1       -0.2683
      9 C         -13.3481  -17.8919   22.2569 C.3     1  UNL1        0.1388
     10 N         -12.5817  -17.4253   21.0549 N.am    1  UNL1       -0.1997
     11 N          -8.6171  -16.7922   26.6344 N.am    1  UNL1       -0.1603
     12 C          -7.7164  -15.6547   27.0149 C.2     1  UNL1        0.2464
     13 O          -8.1970  -14.6057   27.9735 O.2     1  UNL1       -0.2730
     14 C          -6.3351  -15.5661   26.4369 C.3     1  UNL1        0.0786
     15 C          -5.2793  -14.7888   25.7082 C.3     1  UNL1        0.0096
     16 C          -4.9985  -16.1899   26.1644 C.3     1  UNL1        0.0096
     17 N         -10.0186  -19.4111   22.3710 N.pl3   1  UNL1       -0.2091
     18 C          -9.1970  -19.5727   21.1265 C.ar    1  UNL1        0.1044
     19 C          -9.8638  -19.9117   19.8263 C.ar    1  UNL1        0.0196
     20 C          -9.0421  -20.0733   18.5818 C.ar    1  UNL1        0.0016
     21 C          -7.5537  -19.8958   18.6374 C.ar    1  UNL1        0.0062
     22 C          -6.8869  -19.5568   19.9376 C.ar    1  UNL1        0.0710
     23 C          -7.7085  -19.3953   21.1821 C.ar    1  UNL1        0.1567
     24 C          -5.3986  -19.3794   19.9933 C.ar    1  UNL1        0.1654
     25 N          -4.5585  -20.3349   20.7880 N.ar    1  UNL1       -0.2226
     26 C          -3.0701  -20.1575   20.8437 C.ar    1  UNL1        0.1317
     27 C          -2.4217  -19.0246   20.1047 C.ar    1  UNL1        0.1783
     28 F          -0.9333  -18.8472   20.1604 F       1  UNL1       -0.2009
     29 C          -3.2616  -18.0691   19.3101 C.ar    1  UNL1        0.1317
     30 N          -4.7501  -18.2465   19.2544 N.ar    1  UNL1       -0.2226
     31 O          -7.0418  -19.0563   22.4823 O.3     1  UNL1       -0.4700
     32 C          -6.4194  -17.7054   22.6762 C.3     1  UNL1        0.2525
@<TRIPOS>BOND
     1     9    10    1
     2    10     7   am
     3     7     8    2
     4     7     1    1
     5     1     2   ar
     6     2     3   ar
     7     3     4   ar
     8     4    11    1
     9    11    12   am
    10    12    13    2
    11    12    14    1
    12    14    15    1
    13    15    16    1
    14     4     5   ar
    15     5     6   ar
    16     6    17    1
    17    17    18    1
    18    18    19   ar
    19    19    20   ar
    20    20    21   ar
    21    21    22   ar
    22    22    24    1
    23    24    25   ar
    24    25    26   ar
    25    26    27   ar
    26    27    28    1
    27    27    29   ar
    28    29    30   ar
    29    22    23   ar
    30    23    31    1
    31    31    32    1
    32     6     1   ar
    33    23    18   ar
    34    16    14    1
    35    30    24   ar
@<TRIPOS>MOLECULE
*****
 32 35 0 0 0
SMALL
GASTEIGER

@<TRIPOS>ATOM
      1 C           4.0656   -0.1189   18.4144 C.ar    1  UNL1        0.0895
      2 C           3.4420    1.2152   18.6993 C.ar    1  UNL1        0.1062
      3 N           2.9013    1.5139   20.0662 N.ar    1  UNL1       -0.2271
      4 C           2.9841    0.4784   21.1482 C.ar    1  UNL1        0.1558
      5 C           3.6077   -0.8557   20.8633 C.ar    1  UNL1        0.0529
      6 C           4.1484   -1.1544   19.4965 C.ar    1  UNL1        0.0793
      7 C           4.6063   -0.4176   17.0475 C.2     1  UNL1        0.2676
      8 O           3.7725   -1.1804   16.0613 O.2     1  UNL1       -0.2683
      9 C           6.5777    1.2502   17.3341 C.3     1  UNL1        0.1388
     10 N           5.9809    0.0467   16.6668 N.am    1  UNL1       -0.1997
     11 N           2.4434    0.7770   22.5151 N.am    1  UNL1       -0.1603
     12 C           0.9748    1.0164   22.7049 C.2     1  UNL1        0.2464
     13 O           0.0252    0.7940   21.5652 O.2     1  UNL1       -0.2730
     14 C           0.4559    1.4782   24.0343 C.3     1  UNL1        0.0786
     15 C           0.2209    1.2293   25.4947 C.3     1  UNL1        0.0096
     16 C          -0.2081    2.5269   24.8765 C.3     1  UNL1        0.0096
     17 N           4.7721   -2.4886   19.2116 N.pl3   1  UNL1       -0.2091
     18 C           6.1977   -2.7482   19.5991 C.ar    1  UNL1        0.1044
     19 C           7.3125   -2.0892   18.8422 C.ar    1  UNL1        0.0196
     20 C           8.7382   -2.3488   19.2297 C.ar    1  UNL1        0.0016
     21 C           9.0490   -3.2674   20.3740 C.ar    1  UNL1        0.0062
     22 C           7.9342   -3.9264   21.1309 C.ar    1  UNL1        0.0710
     23 C           6.5086   -3.6668   20.7435 C.ar    1  UNL1        0.1567
     24 C           8.2450   -4.8449   22.2752 C.ar    1  UNL1        0.1654
     25 N           8.4944   -6.3021   22.0210 N.ar    1  UNL1       -0.2226
     26 C           8.8052   -7.2207   23.1653 C.ar    1  UNL1        0.1317
     27 C           8.8667   -6.6822   24.5640 C.ar    1  UNL1        0.1783
     28 F           9.1775   -7.6008   25.7083 F       1  UNL1       -0.2009
     29 C           8.6173   -5.2251   24.8183 C.ar    1  UNL1        0.1317
     30 N           8.3065   -4.3064   23.6739 N.ar    1  UNL1       -0.2226
     31 O           5.3938   -4.3258   21.5004 O.3     1  UNL1       -0.4700
     32 C           4.8125   -3.6585   22.7115 C.3     1  UNL1        0.2525
@<TRIPOS>BOND
     1     9    10    1
     2    10     7   am
     3     7     8    2
     4     7     1    1
     5     1     2   ar
     6     2     3   ar
     7     3     4   ar
     8     4    11    1
     9    11    12   am
    10    12    13    2
    11    12    14    1
    12    14    15    1
    13    15    16    1
    14     4     5   ar
    15     5     6   ar
    16     6    17    1
    17    17    18    1
    18    18    19   ar
    19    19    20   ar
    20    20    21   ar
    21    21    22   ar
    22    22    24    1
    23    24    25   ar
    24    25    26   ar
    25    26    27   ar
    26    27    28    1
    27    27    29   ar
    28    29    30   ar
    29    22    23   ar
    30    23    31    1
    31    31    32    1
    32     6     1   ar
    33    23    18   ar
    34    16    14    1
    35    30    24   ar
@<TRIPOS>MOLECULE
*****
 32 35 0 0 0
SMALL
GASTEIGER

@<TRIPOS>ATOM
      1 C           5.1726   -2.2503   20.0029 C.ar    1  UNL1        0.0895
      2 C           5.8902   -2.6899   21.2446 C.ar    1  UNL1        0.1062
      3 N           5.7241   -1.9178   22.5199 N.ar    1  UNL1       -0.2271
      4 C           4.8404   -0.7063   22.5535 C.ar    1  UNL1        0.1558
      5 C           4.1228   -0.2667   21.3118 C.ar    1  UNL1        0.0529
      6 C           4.2889   -1.0388   20.0365 C.ar    1  UNL1        0.0793
      7 C           5.3387   -3.0224   18.7276 C.2     1  UNL1        0.2676
      8 O           6.1515   -2.4496   17.6046 O.2     1  UNL1       -0.2683
      9 C           3.3482   -4.6270   19.1891 C.3     1  UNL1        0.1388
     10 N           4.6920   -4.3672   18.5753 N.am    1  UNL1       -0.1997
     11 N           4.6743    0.0658   23.8288 N.am    1  UNL1       -0.1603
     12 C           3.4367   -0.1120   24.6574 C.2     1  UNL1        0.2464
     13 O           3.4412   -1.0623   25.8180 O.2     1  UNL1       -0.2730
     14 C           2.1945    0.6604   24.3254 C.3     1  UNL1        0.0786
     15 C           0.7590    0.9943   24.6043 C.3     1  UNL1        0.0096
     16 C           1.4784    1.6644   23.4714 C.3     1  UNL1        0.0096
     17 N           3.5713   -0.5992   18.7948 N.pl3   1  UNL1       -0.2091
     18 C           3.2402    0.8498   18.5931 C.ar    1  UNL1        0.1044
     19 C           4.3340    1.8370   18.3120 C.ar    1  UNL1        0.0196
     20 C           4.0028    3.2861   18.1103 C.ar    1  UNL1        0.0016
     21 C           2.5779    3.7479   18.1897 C.ar    1  UNL1        0.0062
     22 C           1.4841    2.7607   18.4708 C.ar    1  UNL1        0.0710
     23 C           1.8152    1.3117   18.6725 C.ar    1  UNL1        0.1567
     24 C           0.0592    3.2225   18.5502 C.ar    1  UNL1        0.1654
     25 N          -0.6836    3.5820   17.2975 N.ar    1  UNL1       -0.2226
     26 C          -2.1085    4.0438   17.3769 C.ar    1  UNL1        0.1317
     27 C          -2.7907    4.1461   18.7089 C.ar    1  UNL1        0.1783
     28 F          -4.2156    4.6079   18.7883 F       1  UNL1       -0.2009
     29 C          -2.0480    3.7865   19.9615 C.ar    1  UNL1        0.1317
     30 N          -0.6230    3.3247   19.8822 N.ar    1  UNL1       -0.2226
     31 O           0.7214    0.3245   18.9536 O.3     1  UNL1       -0.4700
     32 C           0.4398   -0.1015   20.3639 C.3     1  UNL1        0.2525
@<TRIPOS>BOND
     1     9    10    1
     2    10     7   am
     3     7     8    2
     4     7     1    1
     5     1     2   ar
     6     2     3   ar
     7     3     4   ar
     8     4    11    1
     9    11    12   am
    10    12    13    2
    11    12    14    1
    12    14    15    1
    13    15    16    1
    14     4     5   ar
    15     5     6   ar
    16     6    17    1
    17    17    18    1
    18    18    19   ar
    19    19    20   ar
    20    20    21   ar
    21    21    22   ar
    22    22    24    1
    23    24    25   ar
    24    25    26   ar
    25    26    27   ar
    26    27    28    1
    27    27    29   ar
    28    29    30   ar
    29    22    23   ar
    30    23    31    1
    31    31    32    1
    32     6     1   ar
    33    23    18   ar
    34    16    14    1
    35    30    24   ar
@<TRIPOS>MOLECULE
*****
 32 35 0 0 0
SMALL
GASTEIGER

@<TRIPOS>ATOM
      1 C           5.2120   -2.9625   19.0109 C.ar    1  UNL1        0.0895
      2 C           6.4932   -2.7891   18.2503 C.ar    1  UNL1        0.1062
      3 N           6.7449   -1.5248   17.4835 N.ar    1  UNL1       -0.2271
      4 C           5.7155   -0.4338   17.4772 C.ar    1  UNL1        0.1558
      5 C           4.4343   -0.6072   18.2378 C.ar    1  UNL1        0.0529
      6 C           4.1826   -1.8716   19.0046 C.ar    1  UNL1        0.0793
      7 C           4.9603   -4.2269   19.7778 C.2     1  UNL1        0.2676
      8 O           4.5152   -5.4650   19.0574 O.2     1  UNL1       -0.2683
      9 C           6.4912   -3.9144   21.8535 C.3     1  UNL1        0.1388
     10 N           5.1537   -4.2531   21.2650 N.am    1  UNL1       -0.1997
     11 N           5.9672    0.8305   16.7103 N.am    1  UNL1       -0.1603
     12 C           6.1254    2.1314   17.4401 C.2     1  UNL1        0.2464
     13 O           7.4962    2.6546   17.7519 O.2     1  UNL1       -0.2730
     14 C           4.9128    2.9092   17.8580 C.3     1  UNL1        0.0786
     15 C           4.1334    4.1907   17.8740 C.3     1  UNL1        0.0096
     16 C           3.5919    2.9748   18.5659 C.3     1  UNL1        0.0096
     17 N           2.9014   -2.0450   19.7653 N.pl3   1  UNL1       -0.2091
     18 C           2.1513   -0.8419   20.2552 C.ar    1  UNL1        0.1044
     19 C           1.2715   -0.0724   19.3151 C.ar    1  UNL1        0.0196
     20 C           0.5215    1.1307   19.8051 C.ar    1  UNL1        0.0016
     21 C           0.6513    1.5643   21.2352 C.ar    1  UNL1        0.0062
     22 C           1.5311    0.7948   22.1753 C.ar    1  UNL1        0.0710
     23 C           2.2811   -0.4083   21.6853 C.ar    1  UNL1        0.1567
     24 C           1.6609    1.2283   23.6054 C.ar    1  UNL1        0.1654
     25 N           0.5477    0.9602   24.5744 N.ar    1  UNL1       -0.2226
     26 C           0.6776    1.3937   26.0045 C.ar    1  UNL1        0.1317
     27 C           1.9205    2.0955   26.4656 C.ar    1  UNL1        0.1783
     28 F           2.0503    2.5290   27.8956 F       1  UNL1       -0.2009
     29 C           3.0337    2.3636   25.4966 C.ar    1  UNL1        0.1317
     30 N           2.9039    1.9301   24.0665 N.ar    1  UNL1       -0.2226
     31 O           3.1610   -1.1778   22.6255 O.3     1  UNL1       -0.4700
     32 C           4.6300   -0.8817   22.6896 C.3     1  UNL1        0.2525
@<TRIPOS>BOND
     1     9    10    1
     2    10     7   am
     3     7     8    2
     4     7     1    1
     5     1     2   ar
     6     2     3   ar
     7     3     4   ar
     8     4    11    1
     9    11    12   am
    10    12    13    2
    11    12    14    1
    12    14    15    1
    13    15    16    1
    14     4     5   ar
    15     5     6   ar
    16     6    17    1
    17    17    18    1
    18    18    19   ar
    19    19    20   ar
    20    20    21   ar
    21    21    22   ar
    22    22    24    1
    23    24    25   ar
    24    25    26   ar
    25    26    27   ar
    26    27    28    1
    27    27    29   ar
    28    29    30   ar
    29    22    23   ar
    30    23    31    1
    31    31    32    1
    32     6     1   ar
    33    23    18   ar
    34    16    14    1
    35    30    24   ar
