@<TRIPOS>MOLECULE
*****
 22 24 0 0 0
SMALL
GASTEIGER

@<TRIPOS>ATOM
      1 C          -7.9370  -19.0230   21.7725 C.2     1  UNL1       -0.0242
      2 C          -8.5315  -19.4604   20.4667 C.2     1  UNL1       -0.0420
      3 C          -7.4099  -19.8852   19.5659 C.3     1  UNL1        0.0481
      4 C          -6.1221  -19.7104   20.3150 C.ar    1  UNL1       -0.0162
      5 C          -4.6950  -19.9676   19.9315 C.ar    1  UNL1        0.0257
      6 C          -3.5936  -19.6919   20.9118 C.ar    1  UNL1        0.1398
      7 F          -2.1664  -19.9491   20.5283 F       1  UNL1       -0.2042
      8 C          -3.9194  -19.1590   22.2755 C.ar    1  UNL1        0.0296
      9 C          -5.3465  -18.9018   22.6590 C.ar    1  UNL1        0.0017
     10 C          -6.4479  -19.1775   21.6788 C.ar    1  UNL1       -0.0077
     11 C          -9.7609  -19.3726   23.5894 C.3     1  UNL1        0.0116
     12 C          -8.6979  -18.5194   22.9630 C.3     1  UNL1        0.0681
     13 C          -8.3959  -17.1629   23.5273 C.ar    1  UNL1        0.0919
     14 N          -7.5497  -16.1070   22.8799 N.ar    1  UNL1       -0.2408
     15 C          -7.5180  -14.9155   23.7905 C.ar    1  UNL1        0.1061
     16 C          -8.3446  -15.2349   25.0007 C.ar    1  UNL1        0.0572
     17 S          -8.8873  -16.6239   24.8380 S.2     1  UNL1       -0.0699
     18 C          -9.9914  -19.4710   20.1221 C.3     1  UNL1        0.0394
     19 C         -10.6760  -18.1990   19.7184 C.3     1  UNL1        0.0765
     20 N         -11.3263  -17.3347   20.7577 N.3     1  UNL1       -0.2700
     21 C         -10.7771  -15.9695   21.0485 C.3     1  UNL1        0.0897
     22 C         -12.5258  -17.8357   21.5062 C.3     1  UNL1        0.0897
@<TRIPOS>BOND
     1    12    11    1
     2    12     1    1
     3     1     2    2
     4     2    18    1
     5    18    19    1
     6    19    20    1
     7    20    21    1
     8    20    22    1
     9     2     3    1
    10     3     4    1
    11     4     5   ar
    12     5     6   ar
    13     6     7    1
    14     6     8   ar
    15     8     9   ar
    16     9    10   ar
    17    12    13    1
    18    13    14   ar
    19    14    15   ar
    20    15    16   ar
    21    16    17   ar
    22    10     1    1
    23    17    13   ar
    24    10     4   ar
@<TRIPOS>MOLECULE
*****
 22 24 0 0 0
SMALL
GASTEIGER

@<TRIPOS>ATOM
      1 C          -8.3486  -18.3504   22.3746 C.2     1  UNL1       -0.0242
      2 C          -7.8268  -17.2434   23.2419 C.2     1  UNL1       -0.0420
      3 C          -6.3286  -17.2678   23.1733 C.3     1  UNL1        0.0481
      4 C          -5.9245  -18.3899   22.2635 C.ar    1  UNL1       -0.0162
      5 C          -4.5810  -18.8889   21.8209 C.ar    1  UNL1        0.0257
      6 C          -4.4859  -20.0569   20.8846 C.ar    1  UNL1        0.1398
      7 F          -3.1424  -20.5559   20.4419 F       1  UNL1       -0.2042
      8 C          -5.7344  -20.7260   20.3910 C.ar    1  UNL1        0.0296
      9 C          -7.0779  -20.2270   20.8337 C.ar    1  UNL1        0.0017
     10 C          -7.1729  -19.0590   21.7699 C.ar    1  UNL1       -0.0077
     11 C         -10.3459  -19.9873   22.6604 C.3     1  UNL1        0.0116
     12 C          -9.7927  -18.6893   22.1512 C.3     1  UNL1        0.0681
     13 C         -10.6835  -17.7304   21.4185 C.ar    1  UNL1        0.0919
     14 N         -10.3613  -17.0383   20.1274 N.ar    1  UNL1       -0.2408
     15 C         -11.5317  -16.1754   19.7593 C.ar    1  UNL1        0.1061
     16 C         -12.5773  -16.3342   20.8229 C.ar    1  UNL1        0.0572
     17 S         -12.0531  -17.2953   21.8485 S.2     1  UNL1       -0.0699
     18 C          -8.6574  -16.2809   24.0381 C.3     1  UNL1        0.0394
     19 C          -7.9922  -15.2063   24.8459 C.3     1  UNL1        0.0765
     20 N          -7.3515  -15.5435   26.1595 N.3     1  UNL1       -0.2700
     21 C          -8.1783  -16.1171   27.2720 C.3     1  UNL1        0.0897
     22 C          -5.8840  -15.3071   26.3608 C.3     1  UNL1        0.0897
@<TRIPOS>BOND
     1    12    11    1
     2    12     1    1
     3     1     2    2
     4     2    18    1
     5    18    19    1
     6    19    20    1
     7    20    21    1
     8    20    22    1
     9     2     3    1
    10     3     4    1
    11     4     5   ar
    12     5     6   ar
    13     6     7    1
    14     6     8   ar
    15     8     9   ar
    16     9    10   ar
    17    12    13    1
    18    13    14   ar
    19    14    15   ar
    20    15    16   ar
    21    16    17   ar
    22    10     1    1
    23    17    13   ar
    24    10     4   ar
@<TRIPOS>MOLECULE
*****
 22 24 0 0 0
SMALL
GASTEIGER

@<TRIPOS>ATOM
      1 C          -6.3851  -18.7081   21.4992 C.2     1  UNL1       -0.0242
      2 C          -7.8555  -18.5549   21.2452 C.2     1  UNL1       -0.0420
      3 C          -8.3821  -17.5119   22.1858 C.3     1  UNL1        0.0481
      4 C          -7.2372  -17.0204   23.0211 C.ar    1  UNL1       -0.0162
      5 C          -7.1591  -15.9952   24.1133 C.ar    1  UNL1        0.0257
      6 C          -5.8468  -15.7094   24.7811 C.ar    1  UNL1        0.1398
      7 F          -5.7687  -14.6842   25.8733 F       1  UNL1       -0.2042
      8 C          -4.6126  -16.4487   24.3568 C.ar    1  UNL1        0.0296
      9 C          -4.6907  -17.4739   23.2646 C.ar    1  UNL1        0.0017
     10 C          -6.0030  -17.7597   22.5968 C.ar    1  UNL1       -0.0077
     11 C          -5.8843  -21.0580   20.5105 C.3     1  UNL1        0.0116
     12 C          -5.4593  -19.6451   20.7817 C.3     1  UNL1        0.0681
     13 C          -4.1087  -19.1695   20.3353 C.ar    1  UNL1        0.0919
     14 N          -3.8418  -18.1341   19.2833 N.ar    1  UNL1       -0.2408
     15 C          -2.3558  -17.9705   19.1603 C.ar    1  UNL1        0.1061
     16 C          -1.7043  -18.9047   20.1363 C.ar    1  UNL1        0.0572
     17 S          -2.7876  -19.6458   20.8625 S.2     1  UNL1       -0.0699
     18 C          -8.6583  -19.3119   20.2291 C.3     1  UNL1        0.0394
     19 C         -10.0803  -18.9216   19.9547 C.3     1  UNL1        0.0765
     20 N         -11.1081  -19.0188   21.0429 N.3     1  UNL1       -0.2700
     21 C         -12.1836  -17.9790   21.1538 C.3     1  UNL1        0.0897
     22 C         -11.0603  -20.1556   22.0202 C.3     1  UNL1        0.0897
@<TRIPOS>BOND
     1    12    11    1
     2    12     1    1
     3     1     2    2
     4     2    18    1
     5    18    19    1
     6    19    20    1
     7    20    21    1
     8    20    22    1
     9     2     3    1
    10     3     4    1
    11     4     5   ar
    12     5     6   ar
    13     6     7    1
    14     6     8   ar
    15     8     9   ar
    16     9    10   ar
    17    12    13    1
    18    13    14   ar
    19    14    15   ar
    20    15    16   ar
    21    16    17   ar
    22    10     1    1
    23    17    13   ar
    24    10     4   ar
@<TRIPOS>MOLECULE
*****
 22 24 0 0 0
SMALL
GASTEIGER

@<TRIPOS>ATOM
      1 C          -7.0826  -17.5128   22.8552 C.2     1  UNL1       -0.0242
      2 C          -7.9741  -18.6020   22.3367 C.2     1  UNL1       -0.0420
      3 C          -7.1023  -19.7141   21.8333 C.3     1  UNL1        0.0481
      4 C          -5.6721  -19.3121   22.0407 C.ar    1  UNL1       -0.0162
      5 C          -4.3794  -20.0091   21.7360 C.ar    1  UNL1        0.0257
      6 C          -3.0745  -19.3457   22.0629 C.ar    1  UNL1        0.1398
      7 F          -1.7816  -20.0427   21.7583 F       1  UNL1       -0.2042
      8 C          -3.0623  -17.9852   22.6945 C.ar    1  UNL1        0.0296
      9 C          -4.3550  -17.2881   22.9992 C.ar    1  UNL1        0.0017
     10 C          -5.6600  -17.9516   22.6723 C.ar    1  UNL1       -0.0077
     11 C          -8.0345  -15.1130   22.5628 C.3     1  UNL1        0.0116
     12 C          -7.5345  -16.2129   23.4519 C.3     1  UNL1        0.0681
     13 C          -7.4865  -16.0127   24.9377 C.ar    1  UNL1        0.0919
     14 N          -8.5773  -16.3540   25.9091 N.ar    1  UNL1       -0.2408
     15 C          -8.1041  -15.9883   27.2847 C.ar    1  UNL1        0.1061
     16 C          -6.7209  -15.4210   27.1635 C.ar    1  UNL1        0.0572
     17 S          -6.3391  -15.4361   25.7129 S.2     1  UNL1       -0.0699
     18 C          -9.4739  -18.5826   22.3238 C.3     1  UNL1        0.0394
     19 C         -10.2098  -18.3359   21.0403 C.3     1  UNL1        0.0765
     20 N         -11.3425  -17.3533   21.0021 N.3     1  UNL1       -0.2700
     21 C         -12.6886  -17.7392   21.5398 C.3     1  UNL1        0.0897
     22 C         -11.1290  -15.9848   20.4262 C.3     1  UNL1        0.0897
@<TRIPOS>BOND
     1    12    11    1
     2    12     1    1
     3     1     2    2
     4     2    18    1
     5    18    19    1
     6    19    20    1
     7    20    21    1
     8    20    22    1
     9     2     3    1
    10     3     4    1
    11     4     5   ar
    12     5     6   ar
    13     6     7    1
    14     6     8   ar
    15     8     9   ar
    16     9    10   ar
    17    12    13    1
    18    13    14   ar
    19    14    15   ar
    20    15    16   ar
    21    16    17   ar
    22    10     1    1
    23    17    13   ar
    24    10     4   ar
@<TRIPOS>MOLECULE
*****
 22 24 0 0 0
SMALL
GASTEIGER

@<TRIPOS>ATOM
      1 C          -7.8310  -17.1203   22.9474 C.2     1  UNL1       -0.0242
      2 C          -7.2065  -18.3294   22.3165 C.2     1  UNL1       -0.0420
      3 C          -8.2937  -19.1160   21.6462 C.3     1  UNL1        0.0481
      4 C          -9.5900  -18.3930   21.8627 C.ar    1  UNL1       -0.0162
      5 C         -10.9938  -18.6985   21.4315 C.ar    1  UNL1        0.0257
      6 C         -12.1116  -17.7705   21.8045 C.ar    1  UNL1        0.1398
      7 F         -13.5155  -18.0759   21.3732 F       1  UNL1       -0.2042
      8 C         -11.8257  -16.5370   22.6087 C.ar    1  UNL1        0.0296
      9 C         -10.4219  -16.2315   23.0399 C.ar    1  UNL1        0.0017
     10 C          -9.3040  -17.1596   22.6669 C.ar    1  UNL1       -0.0077
     11 C          -6.2182  -15.0842   23.0100 C.3     1  UNL1        0.0116
     12 C          -7.1092  -16.0582   23.7227 C.3     1  UNL1        0.0681
     13 C          -7.2781  -15.9701   25.2104 C.ar    1  UNL1        0.0919
     14 N          -8.4881  -16.3971   25.9873 N.ar    1  UNL1       -0.2408
     15 C          -8.2245  -16.1303   27.4396 C.ar    1  UNL1        0.1061
     16 C          -6.8517  -15.5384   27.5604 C.ar    1  UNL1        0.0572
     17 S          -6.2667  -15.4393   26.1827 S.2     1  UNL1       -0.0699
     18 C          -5.7506  -18.6889   22.3502 C.3     1  UNL1        0.0394
     19 C          -5.1696  -19.5655   21.2806 C.3     1  UNL1        0.0765
     20 N          -3.7708  -19.3279   20.7939 N.3     1  UNL1       -0.2700
     21 C          -3.5402  -18.7158   19.4440 C.3     1  UNL1        0.0897
     22 C          -2.6027  -19.7025   21.6571 C.3     1  UNL1        0.0897
@<TRIPOS>BOND
     1    12    11    1
     2    12     1    1
     3     1     2    2
     4     2    18    1
     5    18    19    1
     6    19    20    1
     7    20    21    1
     8    20    22    1
     9     2     3    1
    10     3     4    1
    11     4     5   ar
    12     5     6   ar
    13     6     7    1
    14     6     8   ar
    15     8     9   ar
    16     9    10   ar
    17    12    13    1
    18    13    14   ar
    19    14    15   ar
    20    15    16   ar
    21    16    17   ar
    22    10     1    1
    23    17    13   ar
    24    10     4   ar
@<TRIPOS>MOLECULE
*****
 22 24 0 0 0
SMALL
GASTEIGER

@<TRIPOS>ATOM
      1 C          -6.2937  -17.1488   23.0106 C.2     1  UNL1       -0.0242
      2 C          -5.3358  -18.2563   22.6852 C.2     1  UNL1       -0.0420
      3 C          -6.0555  -19.2546   21.8277 C.3     1  UNL1        0.0481
      4 C          -7.4583  -18.7641   21.6231 C.ar    1  UNL1       -0.0162
      5 C          -8.6205  -19.3345   20.8657 C.ar    1  UNL1        0.0257
      6 C          -9.9299  -18.6033   20.8392 C.ar    1  UNL1        0.1398
      7 F         -11.0923  -19.1736   20.0817 F       1  UNL1       -0.2042
      8 C         -10.0771  -17.3018   21.5703 C.ar    1  UNL1        0.0296
      9 C          -8.9149  -16.7315   22.3278 C.ar    1  UNL1        0.0017
     10 C          -7.6054  -17.4626   22.3542 C.ar    1  UNL1       -0.0077
     11 C          -5.0413  -14.8963   23.3393 C.3     1  UNL1        0.0116
     12 C          -5.9927  -15.9397   23.8457 C.3     1  UNL1        0.0681
     13 C          -6.6429  -15.7738   25.1871 C.ar    1  UNL1        0.0919
     14 N          -5.9545  -15.8575   26.5171 N.ar    1  UNL1       -0.2408
     15 C          -6.9820  -15.6306   27.5861 C.ar    1  UNL1        0.1061
     16 C          -8.3055  -15.4067   26.9168 C.ar    1  UNL1        0.0572
     17 S          -8.0960  -15.4952   25.4341 S.2     1  UNL1       -0.0699
     18 C          -3.9087  -18.3491   23.1377 C.3     1  UNL1        0.0394
     19 C          -2.8441  -18.7879   22.1765 C.3     1  UNL1        0.0765
     20 N          -2.2332  -17.7970   21.2304 N.3     1  UNL1       -0.2700
     21 C          -1.8074  -18.2329   19.8597 C.3     1  UNL1        0.0897
     22 C          -2.0481  -16.3704   21.6550 C.3     1  UNL1        0.0897
@<TRIPOS>BOND
     1    12    11    1
     2    12     1    1
     3     1     2    2
     4     2    18    1
     5    18    19    1
     6    19    20    1
     7    20    21    1
     8    20    22    1
     9     2     3    1
    10     3     4    1
    11     4     5   ar
    12     5     6   ar
    13     6     7    1
    14     6     8   ar
    15     8     9   ar
    16     9    10   ar
    17    12    13    1
    18    13    14   ar
    19    14    15   ar
    20    15    16   ar
    21    16    17   ar
    22    10     1    1
    23    17    13   ar
    24    10     4   ar
@<TRIPOS>MOLECULE
*****
 22 24 0 0 0
SMALL
GASTEIGER

@<TRIPOS>ATOM
      1 C          -8.4363  -18.0954   22.4076 C.2     1  UNL1       -0.0242
      2 C          -9.7940  -18.2024   23.0362 C.2     1  UNL1       -0.0420
      3 C          -9.7924  -17.3739   24.2867 C.3     1  UNL1        0.0481
      4 C          -8.4337  -16.7549   24.4309 C.ar    1  UNL1       -0.0162
      5 C          -7.8514  -15.8428   25.4696 C.ar    1  UNL1        0.0257
      6 C          -6.4310  -15.3767   25.3470 C.ar    1  UNL1        0.1398
      7 F          -5.8486  -14.4645   26.3858 F       1  UNL1       -0.2042
      8 C          -5.5928  -15.8226   24.1856 C.ar    1  UNL1        0.0296
      9 C          -6.1751  -16.7346   23.1469 C.ar    1  UNL1        0.0017
     10 C          -7.5955  -17.2008   23.2695 C.ar    1  UNL1       -0.0077
     11 C          -9.0061  -19.1142   20.0865 C.3     1  UNL1        0.0116
     12 C          -7.9965  -18.7653   21.1396 C.3     1  UNL1        0.0681
     13 C          -6.5472  -19.0865   20.9247 C.ar    1  UNL1        0.0919
     14 N          -5.6706  -18.5258   19.8445 N.ar    1  UNL1       -0.2408
     15 C          -4.3016  -19.1175   20.0045 C.ar    1  UNL1        0.1061
     16 C          -4.3320  -20.0440   21.1837 C.ar    1  UNL1        0.0572
     17 S          -5.7199  -20.0249   21.7525 S.2     1  UNL1       -0.0699
     18 C         -10.9503  -18.9981   22.5073 C.3     1  UNL1        0.0394
     19 C         -12.1764  -18.2957   22.0040 C.3     1  UNL1        0.0765
     20 N         -12.0882  -16.8715   21.5416 N.3     1  UNL1       -0.2700
     21 C         -12.4654  -15.7564   22.4714 C.3     1  UNL1        0.0897
     22 C         -11.6230  -16.5623   20.1495 C.3     1  UNL1        0.0897
@<TRIPOS>BOND
     1    12    11    1
     2    12     1    1
     3     1     2    2
     4     2    18    1
     5    18    19    1
     6    19    20    1
     7    20    21    1
     8    20    22    1
     9     2     3    1
    10     3     4    1
    11     4     5   ar
    12     5     6   ar
    13     6     7    1
    14     6     8   ar
    15     8     9   ar
    16     9    10   ar
    17    12    13    1
    18    13    14   ar
    19    14    15   ar
    20    15    16   ar
    21    16    17   ar
    22    10     1    1
    23    17    13   ar
    24    10     4   ar
@<TRIPOS>MOLECULE
*****
 22 24 0 0 0
SMALL
GASTEIGER

@<TRIPOS>ATOM
      1 C          -7.3846  -18.5977   21.7968 C.2     1  UNL1       -0.0242
      2 C          -5.9368  -18.9832   21.7229 C.2     1  UNL1       -0.0420
      3 C          -5.7513  -19.8587   20.5191 C.3     1  UNL1        0.0481
      4 C          -7.0843  -20.0142   19.8491 C.ar    1  UNL1       -0.0162
      5 C          -7.5093  -20.7648   18.6219 C.ar    1  UNL1        0.0257
      6 C          -8.9438  -20.7360   18.1845 C.ar    1  UNL1        0.1398
      7 F          -9.3689  -21.4866   16.9573 F       1  UNL1       -0.2042
      8 C          -9.9533  -19.9567   18.9742 C.ar    1  UNL1        0.0296
      9 C          -9.5282  -19.2061   20.2014 C.ar    1  UNL1        0.0017
     10 C          -8.0937  -19.2349   20.6388 C.ar    1  UNL1       -0.0077
     11 C          -7.3357  -16.4588   23.2710 C.3     1  UNL1        0.0116
     12 C          -8.0129  -17.7277   22.8449 C.3     1  UNL1        0.0681
     13 C          -9.3182  -18.1265   23.4669 C.ar    1  UNL1        0.0919
     14 N          -9.5468  -19.3172   24.3500 N.ar    1  UNL1       -0.2408
     15 C         -10.9941  -19.3311   24.7439 C.ar    1  UNL1        0.1061
     16 C         -11.6600  -18.1491   24.1042 C.ar    1  UNL1        0.0572
     17 S         -10.6242  -17.4046   23.3149 S.2     1  UNL1       -0.0699
     18 C          -4.8632  -18.5665   22.6839 C.3     1  UNL1        0.0394
     19 C          -3.4197  -18.6885   22.2949 C.3     1  UNL1        0.0765
     20 N          -2.7878  -17.6461   21.4208 N.3     1  UNL1       -0.2700
     21 C          -2.5352  -17.9359   19.9708 C.3     1  UNL1        0.0897
     22 C          -2.4086  -16.3140   21.9965 C.3     1  UNL1        0.0897
@<TRIPOS>BOND
     1    12    11    1
     2    12     1    1
     3     1     2    2
     4     2    18    1
     5    18    19    1
     6    19    20    1
     7    20    21    1
     8    20    22    1
     9     2     3    1
    10     3     4    1
    11     4     5   ar
    12     5     6   ar
    13     6     7    1
    14     6     8   ar
    15     8     9   ar
    16     9    10   ar
    17    12    13    1
    18    13    14   ar
    19    14    15   ar
    20    15    16   ar
    21    16    17   ar
    22    10     1    1
    23    17    13   ar
    24    10     4   ar
@<TRIPOS>MOLECULE
*****
 22 24 0 0 0
SMALL
GASTEIGER

@<TRIPOS>ATOM
      1 C          -8.8566  -16.9947   22.1404 C.2     1  UNL1       -0.0242
      2 C          -8.3561  -18.3105   21.6228 C.2     1  UNL1       -0.0420
      3 C          -9.5030  -19.2773   21.6282 C.3     1  UNL1        0.0481
      4 C         -10.7123  -18.5589   22.1491 C.ar    1  UNL1       -0.0162
      5 C         -12.1257  -19.0071   22.3762 C.ar    1  UNL1        0.0257
      6 C         -13.1395  -18.0445   22.9197 C.ar    1  UNL1        0.1398
      7 F         -14.5530  -18.4927   23.1468 F       1  UNL1       -0.2042
      8 C         -12.7401  -16.6338   23.2362 C.ar    1  UNL1        0.0296
      9 C         -11.3268  -16.1856   23.0092 C.ar    1  UNL1        0.0017
     10 C         -10.3129  -17.1481   22.4657 C.ar    1  UNL1       -0.0077
     11 C          -8.1248  -14.6571   21.2740 C.3     1  UNL1        0.0116
     12 C          -8.0437  -15.7447   22.3039 C.3     1  UNL1        0.0681
     13 C          -7.1497  -15.5822   23.4973 C.ar    1  UNL1        0.0919
     14 N          -5.6540  -15.4720   23.4700 N.ar    1  UNL1       -0.2408
     15 C          -5.1743  -15.3231   24.8834 C.ar    1  UNL1        0.1061
     16 C          -6.3735  -15.3413   25.7842 C.ar    1  UNL1        0.0572
     17 S          -7.5944  -15.5015   24.9276 S.2     1  UNL1       -0.0699
     18 C          -6.9547  -18.6075   21.1779 C.3     1  UNL1        0.0394
     19 C          -6.0656  -19.4689   22.0249 C.3     1  UNL1        0.0765
     20 N          -4.5771  -19.2911   21.9714 N.3     1  UNL1       -0.2700
     21 C          -3.8808  -18.4773   23.0217 C.3     1  UNL1        0.0897
     22 C          -3.7850  -19.9270   20.8678 C.3     1  UNL1        0.0897
@<TRIPOS>BOND
     1    12    11    1
     2    12     1    1
     3     1     2    2
     4     2    18    1
     5    18    19    1
     6    19    20    1
     7    20    21    1
     8    20    22    1
     9     2     3    1
    10     3     4    1
    11     4     5   ar
    12     5     6   ar
    13     6     7    1
    14     6     8   ar
    15     8     9   ar
    16     9    10   ar
    17    12    13    1
    18    13    14   ar
    19    14    15   ar
    20    15    16   ar
    21    16    17   ar
    22    10     1    1
    23    17    13   ar
    24    10     4   ar
