@<TRIPOS>MOLECULE
*****
 42 46 0 0 0
SMALL
GASTEIGER

@<TRIPOS>ATOM
      1 C          -2.1052    3.4698   20.5703 C.ar    1  UNL1        0.1200
      2 N          -1.2320    2.2885   20.8736 N.ar    1  UNL1       -0.2309
      3 C          -0.2434    2.1434   19.7548 C.ar    1  UNL1        0.0997
      4 C          -0.5056    3.2352   18.7601 C.ar    1  UNL1        0.0961
      5 N          -1.6562    4.0549   19.2641 N.ar    1  UNL1       -0.3123
      6 C           0.8206    1.0914   19.6493 C.ar    1  UNL1        0.0193
      7 C           0.8139   -0.0789   20.5876 C.ar    1  UNL1        0.0038
      8 C           1.8778   -1.1309   20.4821 C.ar    1  UNL1        0.0296
      9 C           2.9486   -1.0127   19.4383 C.ar    1  UNL1        0.1440
     10 F           4.0125   -2.0647   19.3327 F       1  UNL1       -0.2042
     11 C           2.9553    0.1576   18.5000 C.ar    1  UNL1        0.0988
     12 C           1.8913    1.2096   18.6055 C.ar    1  UNL1        0.0077
     13 C           4.0261    0.2758   17.4562 C.3     1  UNL1        0.4207
     14 F           5.0968    0.3940   16.4124 F       1  UNL1       -0.1658
     15 F           4.6704    1.3790   18.2421 F       1  UNL1       -0.1658
     16 F           3.3817   -0.8274   16.6703 F       1  UNL1       -0.1658
     17 N          -5.4791    4.9915   23.1298 N.pl3   1  UNL1       -0.2930
     18 C          -4.3552    5.9085   22.7475 C.3     1  UNL1        0.0926
     19 C          -3.2306    5.4013   21.8943 C.3     1  UNL1        0.0290
     20 C          -3.2298    3.9770   21.4234 C.3     1  UNL1        0.0603
     21 C          -4.3537    3.0601   21.8057 C.3     1  UNL1        0.0290
     22 C          -5.4783    3.5674   22.6589 C.3     1  UNL1        0.0926
     23 C          -6.4141    5.6472   25.4635 C.ar    1  UNL1        0.1157
     24 C          -7.5387    6.1544   26.3165 C.ar    1  UNL1        0.1342
     25 N          -7.3490    6.3028   27.7971 N.pl3   1  UNL1       -0.3424
     26 N          -8.8531    6.5133   25.6891 N.ar    1  UNL1       -0.2092
     27 C          -9.0428    6.3650   24.2086 C.ar    1  UNL1        0.2012
     28 N          -7.9181    5.8577   23.3555 N.ar    1  UNL1       -0.2088
     29 C          -6.6038    5.4988   23.9829 C.ar    1  UNL1        0.1405
     30 H          -6.4864    6.0673   28.2089 H       1  UNL1        0.1437
     31 H          -8.0872    6.6358   28.3571 H       1  UNL1        0.1437
     32 N          -4.0946    6.3603   26.3915 N.am    1  UNL1       -0.3252
     33 C          -5.0997    5.2883   26.0909 C.2     1  UNL1        0.2482
     34 O          -4.7905    3.8574   26.4176 O.2     1  UNL1       -0.2702
     35 H          -3.2319    6.1247   26.8033 H       1  UNL1        0.1453
     36 H          -4.2975    7.2995   26.1771 H       1  UNL1        0.1453
     37 C          -2.2531    5.2499   18.5817 C.3     1  UNL1        0.1245
     38 C          -3.4647    5.0896   17.7121 C.3     1  UNL1        0.0969
     39 N          -4.7935    4.7677   18.3291 N.3     1  UNL1       -0.2710
     40 C          -5.7976    5.5294   19.1425 C.3     1  UNL1        0.0736
     41 C          -6.6727    4.3126   19.2017 C.3     1  UNL1        0.0346
     42 C          -5.6686    3.5510   18.3883 C.3     1  UNL1        0.0736
@<TRIPOS>BOND
     1    32    33   am
     2    33    34    2
     3    33    23    1
     4    23    24   ar
     5    24    25    1
     6    24    26   ar
     7    26    27   ar
     8    27    28   ar
     9    28    29   ar
    10    29    17    1
    11    17    18    1
    12    18    19    1
    13    19    20    1
    14    20     1    1
    15     1     2   ar
    16     2     3   ar
    17     3     6    1
    18     6     7   ar
    19     7     8   ar
    20     8     9   ar
    21     9    10    1
    22     9    11   ar
    23    11    13    1
    24    13    14    1
    25    13    15    1
    26    13    16    1
    27    11    12   ar
    28     3     4   ar
    29     4     5   ar
    30     5    37    1
    31    37    38    1
    32    38    39    1
    33    39    40    1
    34    40    41    1
    35    41    42    1
    36    20    21    1
    37    21    22    1
    38    29    23   ar
    39    22    17    1
    40     5     1   ar
    41    42    39    1
    42    12     6   ar
    43    32    35    1
    44    32    36    1
    45    25    30    1
    46    25    31    1
@<TRIPOS>MOLECULE
*****
 42 46 0 0 0
SMALL
GASTEIGER

@<TRIPOS>ATOM
      1 C           4.3873   -1.1762   26.5127 C.ar    1  UNL1        0.1200
      2 N           3.7386   -1.2093   25.1606 N.ar    1  UNL1       -0.2309
      3 C           4.5709   -2.0819   24.2685 C.ar    1  UNL1        0.0997
      4 C           5.7340   -2.5880   25.0692 C.ar    1  UNL1        0.0961
      5 N           5.6205   -2.0283   26.4562 N.ar    1  UNL1       -0.3123
      6 C           4.2895   -2.3936   22.8284 C.ar    1  UNL1        0.0193
      7 C           4.7534   -3.6919   22.2376 C.ar    1  UNL1        0.0038
      8 C           4.4721   -4.0037   20.7977 C.ar    1  UNL1        0.0296
      9 C           3.7268   -3.0170   19.9484 C.ar    1  UNL1        0.1440
     10 F           3.4454   -3.3286   18.5084 F       1  UNL1       -0.2042
     11 C           3.2629   -1.7186   20.5392 C.ar    1  UNL1        0.0988
     12 C           3.5443   -1.4069   21.9793 C.ar    1  UNL1        0.0077
     13 C           2.5177   -0.7320   19.6900 C.3     1  UNL1        0.4207
     14 F           1.7725    0.2547   18.8408 F       1  UNL1       -0.1658
     15 F           3.8183   -0.2097   19.1555 F       1  UNL1       -0.1658
     16 F           1.2172   -1.2542   20.2246 F       1  UNL1       -0.1658
     17 N           2.8955    1.0828   30.1073 N.pl3   1  UNL1       -0.2930
     18 C           2.1497   -0.1224   29.6163 C.3     1  UNL1        0.0926
     19 C           2.6469   -0.8754   28.4181 C.3     1  UNL1        0.0290
     20 C           3.8900   -0.4232   27.7109 C.3     1  UNL1        0.0603
     21 C           4.6359    0.7821   28.2019 C.3     1  UNL1        0.0290
     22 C           4.1386    1.5351   29.4001 C.3     1  UNL1        0.0926
     23 C           2.9220    1.5029   32.6711 C.ar    1  UNL1        0.1157
     24 C           2.4247    2.2559   33.8693 C.ar    1  UNL1        0.1342
     25 N           2.9486    1.9229   35.2349 N.pl3   1  UNL1       -0.3424
     26 N           1.4036    3.3418   33.7019 N.ar    1  UNL1       -0.2092
     27 C           0.8798    3.6748   32.3364 C.ar    1  UNL1        0.2012
     28 N           1.3771    2.9218   31.1382 N.ar    1  UNL1       -0.2088
     29 C           2.3982    1.8359   31.3056 C.ar    1  UNL1        0.1405
     30 H           3.6188    1.2102   35.3448 H       1  UNL1        0.1437
     31 H           2.6222    2.4172   36.0213 H       1  UNL1        0.1437
     32 N           5.4029    0.7596   32.8774 N.am    1  UNL1       -0.3252
     33 C           3.9432    0.4169   32.8385 C.2     1  UNL1        0.2482
     34 O           3.5045   -1.0117   32.9669 O.2     1  UNL1       -0.2702
     35 H           6.0731    0.0468   32.9873 H       1  UNL1        0.1453
     36 H           5.6909    1.6973   32.7931 H       1  UNL1        0.1453
     37 C           6.5730   -2.2770   27.5880 C.3     1  UNL1        0.1245
     38 C           6.4514   -3.5257   28.4100 C.3     1  UNL1        0.0969
     39 N           6.4658   -3.4423   29.9076 N.3     1  UNL1       -0.2710
     40 C           6.0970   -2.3940   30.9150 C.3     1  UNL1        0.0736
     41 C           6.4861   -3.3242   32.0254 C.3     1  UNL1        0.0346
     42 C           6.8548   -4.3726   31.0180 C.3     1  UNL1        0.0736
@<TRIPOS>BOND
     1    32    33   am
     2    33    34    2
     3    33    23    1
     4    23    24   ar
     5    24    25    1
     6    24    26   ar
     7    26    27   ar
     8    27    28   ar
     9    28    29   ar
    10    29    17    1
    11    17    18    1
    12    18    19    1
    13    19    20    1
    14    20     1    1
    15     1     2   ar
    16     2     3   ar
    17     3     6    1
    18     6     7   ar
    19     7     8   ar
    20     8     9   ar
    21     9    10    1
    22     9    11   ar
    23    11    13    1
    24    13    14    1
    25    13    15    1
    26    13    16    1
    27    11    12   ar
    28     3     4   ar
    29     4     5   ar
    30     5    37    1
    31    37    38    1
    32    38    39    1
    33    39    40    1
    34    40    41    1
    35    41    42    1
    36    20    21    1
    37    21    22    1
    38    29    23   ar
    39    22    17    1
    40     5     1   ar
    41    42    39    1
    42    12     6   ar
    43    32    35    1
    44    32    36    1
    45    25    30    1
    46    25    31    1
@<TRIPOS>MOLECULE
*****
 42 46 0 0 0
SMALL
GASTEIGER

@<TRIPOS>ATOM
      1 C           1.2446    1.4983   23.1676 C.ar    1  UNL1        0.1200
      2 N           2.2942    0.5503   22.6681 N.ar    1  UNL1       -0.2309
      3 C           2.0823    0.3580   21.1956 C.ar    1  UNL1        0.0997
      4 C           0.9016    1.1873   20.7851 C.ar    1  UNL1        0.0961
      5 N           0.3839    1.8920   22.0039 N.ar    1  UNL1       -0.3123
      6 C           2.9063   -0.5109   20.2923 C.ar    1  UNL1        0.0193
      7 C           3.7551    0.1108   19.2231 C.ar    1  UNL1        0.0038
      8 C           4.5790   -0.7580   18.3198 C.ar    1  UNL1        0.0296
      9 C           4.5543   -2.2487   18.4856 C.ar    1  UNL1        0.1440
     10 F           5.3782   -3.1176   17.5823 F       1  UNL1       -0.2042
     11 C           3.7055   -2.8704   19.5547 C.ar    1  UNL1        0.0988
     12 C           2.8815   -2.0015   20.4580 C.ar    1  UNL1        0.0077
     13 C           3.6807   -4.3610   19.7205 C.3     1  UNL1        0.4207
     14 F           3.6558   -5.8516   19.8862 F       1  UNL1       -0.1658
     15 F           2.6157   -4.4602   18.6688 F       1  UNL1       -0.1658
     16 F           4.7456   -4.2618   20.7721 F       1  UNL1       -0.1658
     17 N           0.7625    2.9129   27.4121 N.pl3   1  UNL1       -0.2930
     18 C          -0.3350    2.1313   26.7528 C.3     1  UNL1        0.0926
     19 C          -0.1743    1.6598   25.3380 C.3     1  UNL1        0.0290
     20 C           1.0839    1.9698   24.5824 C.3     1  UNL1        0.0603
     21 C           2.1814    2.7515   25.2417 C.3     1  UNL1        0.0290
     22 C           2.0206    3.2230   26.6566 C.3     1  UNL1        0.0926
     23 C           0.8448    2.4382   29.9652 C.ar    1  UNL1        0.1157
     24 C           0.6840    2.9098   31.3800 C.ar    1  UNL1        0.1342
     25 N           0.9272    1.9635   32.5182 N.pl3   1  UNL1       -0.3424
     26 N           0.2802    4.3276   31.6567 N.ar    1  UNL1       -0.2092
     27 C           0.0371    5.2739   30.5185 C.ar    1  UNL1        0.2012
     28 N           0.1978    4.8024   29.1037 N.ar    1  UNL1       -0.2088
     29 C           0.6017    3.3845   28.8270 C.ar    1  UNL1        0.1405
     30 H           1.1922    1.0329   32.3366 H       1  UNL1        0.1437
     31 H           0.8216    2.2730   33.4468 H       1  UNL1        0.1437
     32 N           2.6974    0.6740   29.5119 N.am    1  UNL1       -0.3252
     33 C           1.2487    1.0203   29.6885 C.2     1  UNL1        0.2482
     34 O           0.2038   -0.0512   29.5884 O.2     1  UNL1       -0.2702
     35 H           2.9624   -0.2566   29.3303 H       1  UNL1        0.1453
     36 H           3.3832    1.3773   29.5776 H       1  UNL1        0.1453
     37 C          -0.7886    2.8263   22.0507 C.3     1  UNL1        0.1245
     38 C          -1.5942    3.0815   20.8114 C.3     1  UNL1        0.0969
     39 N          -3.0789    3.2725   20.9080 N.3     1  UNL1       -0.2710
     40 C          -4.1825    3.5218   19.9233 C.3     1  UNL1        0.0736
     41 C          -5.1784    3.5426   21.0447 C.3     1  UNL1        0.0346
     42 C          -4.0748    3.2932   22.0294 C.3     1  UNL1        0.0736
@<TRIPOS>BOND
     1    32    33   am
     2    33    34    2
     3    33    23    1
     4    23    24   ar
     5    24    25    1
     6    24    26   ar
     7    26    27   ar
     8    27    28   ar
     9    28    29   ar
    10    29    17    1
    11    17    18    1
    12    18    19    1
    13    19    20    1
    14    20     1    1
    15     1     2   ar
    16     2     3   ar
    17     3     6    1
    18     6     7   ar
    19     7     8   ar
    20     8     9   ar
    21     9    10    1
    22     9    11   ar
    23    11    13    1
    24    13    14    1
    25    13    15    1
    26    13    16    1
    27    11    12   ar
    28     3     4   ar
    29     4     5   ar
    30     5    37    1
    31    37    38    1
    32    38    39    1
    33    39    40    1
    34    40    41    1
    35    41    42    1
    36    20    21    1
    37    21    22    1
    38    29    23   ar
    39    22    17    1
    40     5     1   ar
    41    42    39    1
    42    12     6   ar
    43    32    35    1
    44    32    36    1
    45    25    30    1
    46    25    31    1
@<TRIPOS>MOLECULE
*****
 42 46 0 0 0
SMALL
GASTEIGER

@<TRIPOS>ATOM
      1 C           5.1026   -1.5133   25.9805 C.ar    1  UNL1        0.1200
      2 N           4.8261   -1.4096   24.5099 N.ar    1  UNL1       -0.2309
      3 C           5.7473   -2.3548   23.7972 C.ar    1  UNL1        0.0997
      4 C           6.5933   -3.0427   24.8274 C.ar    1  UNL1        0.0961
      5 N           6.1948   -2.5227   26.1767 N.ar    1  UNL1       -0.3123
      6 C           5.8114   -2.5737   22.3146 C.ar    1  UNL1        0.0193
      7 C           7.0266   -2.1477   21.5454 C.ar    1  UNL1        0.0038
      8 C           7.0908   -2.3665   20.0629 C.ar    1  UNL1        0.0296
      9 C           5.9396   -3.0115   19.3495 C.ar    1  UNL1        0.1440
     10 F           6.0036   -3.2304   17.8670 F       1  UNL1       -0.2042
     11 C           4.7243   -3.4375   20.1187 C.ar    1  UNL1        0.0988
     12 C           4.6603   -3.2186   21.6013 C.ar    1  UNL1        0.0077
     13 C           3.5732   -4.0824   19.4053 C.3     1  UNL1        0.4207
     14 F           2.4221   -4.7274   18.6920 F       1  UNL1       -0.1658
     15 F           2.7588   -2.8369   19.5934 F       1  UNL1       -0.1658
     16 F           4.3876   -5.3280   19.2172 F       1  UNL1       -0.1658
     17 N           3.0211    0.7977   29.2327 N.pl3   1  UNL1       -0.2930
     18 C           2.4202   -0.4754   28.7149 C.3     1  UNL1        0.0926
     19 C           3.1140   -1.2458   27.6309 C.3     1  UNL1        0.0290
     20 C           4.4088   -0.7430   27.0645 C.3     1  UNL1        0.0603
     21 C           5.0098    0.5301   27.5823 C.3     1  UNL1        0.0290
     22 C           4.3159    1.3004   28.6664 C.3     1  UNL1        0.0926
     23 C           2.6351    1.2799   31.7563 C.ar    1  UNL1        0.1157
     24 C           1.9412    2.0502   32.8403 C.ar    1  UNL1        0.1342
     25 N           2.2490    1.7622   34.2799 N.pl3   1  UNL1       -0.3424
     26 N           0.9396    3.1087   32.4848 N.ar    1  UNL1       -0.2092
     27 C           0.6317    3.3968   31.0453 C.ar    1  UNL1        0.2012
     28 N           1.3256    2.6264   29.9613 N.ar    1  UNL1       -0.2088
     29 C           2.3273    1.5680   30.3168 C.ar    1  UNL1        0.1405
     30 H           2.9065    1.0675   34.5132 H       1  UNL1        0.1437
     31 H           1.7936    2.2678   34.9913 H       1  UNL1        0.1437
     32 N           5.0464    0.6064   32.4505 N.am    1  UNL1       -0.3252
     33 C           3.6368    0.2215   32.1118 C.2     1  UNL1        0.2482
     34 O           3.2288   -1.2218   32.1285 O.2     1  UNL1       -0.2702
     35 H           5.7038   -0.0883   32.6838 H       1  UNL1        0.1453
     36 H           5.3142    1.5537   32.4395 H       1  UNL1        0.1453
     37 C           6.7849   -2.9388   27.4915 C.3     1  UNL1        0.1245
     38 C           6.3590   -4.2273   28.1305 C.3     1  UNL1        0.0969
     39 N           6.6225   -4.4648   29.5879 N.3     1  UNL1       -0.2710
     40 C           6.9935   -5.6577   30.4181 C.3     1  UNL1        0.0736
     41 C           6.9951   -4.8006   31.6490 C.3     1  UNL1        0.0346
     42 C           6.6240   -3.6076   30.8189 C.3     1  UNL1        0.0736
@<TRIPOS>BOND
     1    32    33   am
     2    33    34    2
     3    33    23    1
     4    23    24   ar
     5    24    25    1
     6    24    26   ar
     7    26    27   ar
     8    27    28   ar
     9    28    29   ar
    10    29    17    1
    11    17    18    1
    12    18    19    1
    13    19    20    1
    14    20     1    1
    15     1     2   ar
    16     2     3   ar
    17     3     6    1
    18     6     7   ar
    19     7     8   ar
    20     8     9   ar
    21     9    10    1
    22     9    11   ar
    23    11    13    1
    24    13    14    1
    25    13    15    1
    26    13    16    1
    27    11    12   ar
    28     3     4   ar
    29     4     5   ar
    30     5    37    1
    31    37    38    1
    32    38    39    1
    33    39    40    1
    34    40    41    1
    35    41    42    1
    36    20    21    1
    37    21    22    1
    38    29    23   ar
    39    22    17    1
    40     5     1   ar
    41    42    39    1
    42    12     6   ar
    43    32    35    1
    44    32    36    1
    45    25    30    1
    46    25    31    1
@<TRIPOS>MOLECULE
*****
 42 46 0 0 0
SMALL
GASTEIGER

@<TRIPOS>ATOM
      1 C           3.2335    0.5679   27.2311 C.ar    1  UNL1        0.1200
      2 N           3.5943   -0.5255   26.2697 N.ar    1  UNL1       -0.2309
      3 C           3.2296   -0.0674   24.8887 C.ar    1  UNL1        0.0997
      4 C           2.6434    1.3092   24.9967 C.ar    1  UNL1        0.0961
      5 N           2.6458    1.7017   26.4444 N.ar    1  UNL1       -0.3123
      6 C           3.4180   -0.8486   23.6221 C.ar    1  UNL1        0.0193
      7 C           4.2236   -2.1138   23.6341 C.ar    1  UNL1        0.0038
      8 C           4.4120   -2.8950   22.3676 C.ar    1  UNL1        0.0296
      9 C           3.7947   -2.4110   21.0889 C.ar    1  UNL1        0.1440
     10 F           3.9831   -3.1922   19.8224 F       1  UNL1       -0.2042
     11 C           2.9891   -1.1458   21.0770 C.ar    1  UNL1        0.0988
     12 C           2.8007   -0.3646   22.3436 C.ar    1  UNL1        0.0077
     13 C           2.3719   -0.6618   19.7984 C.3     1  UNL1        0.4207
     14 F           1.7546   -0.1778   18.5199 F       1  UNL1       -0.1658
     15 F           1.0221   -1.1000   20.2842 F       1  UNL1       -0.1658
     16 F           3.7217   -0.2236   19.3127 F       1  UNL1       -0.1658
     17 N           3.8126    0.4644   31.6925 N.pl3   1  UNL1       -0.2930
     18 C           2.9327   -0.5517   31.0267 C.3     1  UNL1        0.0926
     19 C           2.7397   -0.5172   29.5396 C.3     1  UNL1        0.0290
     20 C           3.4265    0.5334   28.7182 C.3     1  UNL1        0.0603
     21 C           4.3064    1.5495   29.3841 C.3     1  UNL1        0.0290
     22 C           4.4994    1.5150   30.8713 C.3     1  UNL1        0.0926
     23 C           3.2646    1.3969   34.0548 C.ar    1  UNL1        0.1157
     24 C           3.4576    1.3623   35.5419 C.ar    1  UNL1        0.1342
     25 N           2.7166    2.3294   36.4171 N.pl3   1  UNL1       -0.3424
     26 N           4.3916    0.3608   36.1539 N.ar    1  UNL1       -0.2092
     27 C           5.1326   -0.6062   35.2788 C.ar    1  UNL1        0.2012
     28 N           4.9395   -0.5717   33.7917 N.ar    1  UNL1       -0.2088
     29 C           4.0056    0.4299   33.1797 C.ar    1  UNL1        0.1405
     30 H           2.1036    2.9867   36.0154 H       1  UNL1        0.1437
     31 H           2.8433    2.3067   37.3931 H       1  UNL1        0.1437
     32 N           1.0402    1.9430   32.8285 N.am    1  UNL1       -0.3252
     33 C           2.3306    2.3984   33.4428 C.2     1  UNL1        0.2482
     34 O           2.6870    3.8554   33.4450 O.2     1  UNL1       -0.2702
     35 H           0.4272    2.6004   32.4269 H       1  UNL1        0.1453
     36 H           0.8062    0.9867   32.8271 H       1  UNL1        0.1453
     37 C           2.1480    3.0002   27.0066 C.3     1  UNL1        0.1245
     38 C           0.7471    3.1017   27.5329 C.3     1  UNL1        0.0969
     39 N           0.0715    1.8912   28.1058 N.3     1  UNL1       -0.2710
     40 C          -0.1959    1.3818   29.4910 C.3     1  UNL1        0.0736
     41 C          -0.8838    0.1793   28.9161 C.3     1  UNL1        0.0346
     42 C          -0.6163    0.6886   27.5308 C.3     1  UNL1        0.0736
@<TRIPOS>BOND
     1    32    33   am
     2    33    34    2
     3    33    23    1
     4    23    24   ar
     5    24    25    1
     6    24    26   ar
     7    26    27   ar
     8    27    28   ar
     9    28    29   ar
    10    29    17    1
    11    17    18    1
    12    18    19    1
    13    19    20    1
    14    20     1    1
    15     1     2   ar
    16     2     3   ar
    17     3     6    1
    18     6     7   ar
    19     7     8   ar
    20     8     9   ar
    21     9    10    1
    22     9    11   ar
    23    11    13    1
    24    13    14    1
    25    13    15    1
    26    13    16    1
    27    11    12   ar
    28     3     4   ar
    29     4     5   ar
    30     5    37    1
    31    37    38    1
    32    38    39    1
    33    39    40    1
    34    40    41    1
    35    41    42    1
    36    20    21    1
    37    21    22    1
    38    29    23   ar
    39    22    17    1
    40     5     1   ar
    41    42    39    1
    42    12     6   ar
    43    32    35    1
    44    32    36    1
    45    25    30    1
    46    25    31    1
@<TRIPOS>MOLECULE
*****
 42 46 0 0 0
SMALL
GASTEIGER

@<TRIPOS>ATOM
      1 C         -15.0789   -2.7040   18.0813 C.ar    1  UNL1        0.1200
      2 N         -15.7094   -1.3487   18.2062 N.ar    1  UNL1       -0.2309
      3 C         -14.6104   -0.3291   18.2572 C.ar    1  UNL1        0.0997
      4 C         -13.3006   -1.0543   18.1638 C.ar    1  UNL1        0.0961
      5 N         -13.5902   -2.5220   18.0550 N.ar    1  UNL1       -0.3123
      6 C         -14.7897    1.1551   18.3801 C.ar    1  UNL1        0.0193
      7 C         -14.2697    2.0647   17.3068 C.ar    1  UNL1        0.0038
      8 C         -14.4489    3.5488   17.4296 C.ar    1  UNL1        0.0296
      9 C         -15.1483    4.1234   18.6258 C.ar    1  UNL1        0.1440
     10 F         -15.3275    5.6075   18.7487 F       1  UNL1       -0.2042
     11 C         -15.6683    3.2137   19.6991 C.ar    1  UNL1        0.0988
     12 C         -15.4891    1.7295   19.5763 C.ar    1  UNL1        0.0077
     13 C         -16.3677    3.7882   20.8953 C.3     1  UNL1        0.4207
     14 F         -17.0670    4.3627   22.0915 F       1  UNL1       -0.1658
     15 F         -15.0411    4.0557   21.5424 F       1  UNL1       -0.1658
     16 F         -17.6942    3.5207   20.2482 F       1  UNL1       -0.1658
     17 N         -17.2690   -6.6270   17.8293 N.pl3   1  UNL1       -0.2930
     18 C         -16.5184   -6.1093   16.6383 C.3     1  UNL1        0.0926
     19 C         -15.7884   -4.8016   16.7222 C.3     1  UNL1        0.0290
     20 C         -15.8089   -4.0117   17.9973 C.3     1  UNL1        0.0603
     21 C         -16.5595   -4.5295   19.1883 C.3     1  UNL1        0.0290
     22 C         -17.2895   -5.8372   19.1043 C.3     1  UNL1        0.0926
     23 C         -17.3657   -9.1832   18.2840 C.ar    1  UNL1        0.1157
     24 C         -18.0958  -10.4908   18.2000 C.ar    1  UNL1        0.1342
     25 N         -17.4625  -11.7394   18.7388 N.pl3   1  UNL1       -0.3424
     26 N         -19.4590  -10.5500   17.5771 N.ar    1  UNL1       -0.2092
     27 C         -20.0923   -9.3016   17.0383 C.ar    1  UNL1        0.2012
     28 N         -19.3623   -7.9940   17.1224 N.ar    1  UNL1       -0.2088
     29 C         -17.9990   -7.9348   17.7452 C.ar    1  UNL1        0.1405
     30 H         -16.5677  -11.7005   19.1476 H       1  UNL1        0.1437
     31 H         -17.9417  -12.5976   18.6836 H       1  UNL1        0.1437
     32 N         -15.8559   -9.1871   20.3984 N.am    1  UNL1       -0.3252
     33 C         -16.0024   -9.1240   18.9069 C.2     1  UNL1        0.2482
     34 O         -14.7857   -9.0017   18.0383 O.2     1  UNL1       -0.2702
     35 H         -14.9611   -9.1482   20.8071 H       1  UNL1        0.1453
     36 H         -16.6545   -9.2674   20.9685 H       1  UNL1        0.1453
     37 C         -12.5702   -3.6158   17.9402 C.3     1  UNL1        0.1245
     38 C         -12.1440   -4.3752   19.1615 C.3     1  UNL1        0.0969
     39 N         -11.1262   -5.4710   19.0462 N.3     1  UNL1       -0.2710
     40 C          -9.6339   -5.5503   19.1748 C.3     1  UNL1        0.0736
     41 C          -9.6869   -7.0206   18.8831 C.3     1  UNL1        0.0346
     42 C         -11.1792   -6.9413   18.7544 C.3     1  UNL1        0.0736
@<TRIPOS>BOND
     1    32    33   am
     2    33    34    2
     3    33    23    1
     4    23    24   ar
     5    24    25    1
     6    24    26   ar
     7    26    27   ar
     8    27    28   ar
     9    28    29   ar
    10    29    17    1
    11    17    18    1
    12    18    19    1
    13    19    20    1
    14    20     1    1
    15     1     2   ar
    16     2     3   ar
    17     3     6    1
    18     6     7   ar
    19     7     8   ar
    20     8     9   ar
    21     9    10    1
    22     9    11   ar
    23    11    13    1
    24    13    14    1
    25    13    15    1
    26    13    16    1
    27    11    12   ar
    28     3     4   ar
    29     4     5   ar
    30     5    37    1
    31    37    38    1
    32    38    39    1
    33    39    40    1
    34    40    41    1
    35    41    42    1
    36    20    21    1
    37    21    22    1
    38    29    23   ar
    39    22    17    1
    40     5     1   ar
    41    42    39    1
    42    12     6   ar
    43    32    35    1
    44    32    36    1
    45    25    30    1
    46    25    31    1
@<TRIPOS>MOLECULE
*****
 42 46 0 0 0
SMALL
GASTEIGER

@<TRIPOS>ATOM
      1 C           5.1738   -1.7808   26.4457 C.ar    1  UNL1        0.1200
      2 N           4.4197   -1.3279   25.2307 N.ar    1  UNL1       -0.2309
      3 C           4.8231   -2.2037   24.0817 C.ar    1  UNL1        0.0997
      4 C           5.8265   -3.1979   24.5865 C.ar    1  UNL1        0.0961
      5 N           6.0432   -2.9365   26.0476 N.ar    1  UNL1       -0.3123
      6 C           4.3126   -2.1030   22.6748 C.ar    1  UNL1        0.0193
      7 C           3.5046   -0.9116   22.2535 C.ar    1  UNL1        0.0038
      8 C           2.9942   -0.8108   20.8467 C.ar    1  UNL1        0.0296
      9 C           3.2918   -1.9017   19.8609 C.ar    1  UNL1        0.1440
     10 F           2.7814   -1.8011   18.4541 F       1  UNL1       -0.2042
     11 C           4.0998   -3.0932   20.2822 C.ar    1  UNL1        0.0988
     12 C           4.6102   -3.1938   21.6891 C.ar    1  UNL1        0.0077
     13 C           4.3974   -4.1840   19.2965 C.3     1  UNL1        0.4207
     14 F           4.6951   -5.2748   18.3109 F       1  UNL1       -0.1658
     15 F           2.9517   -4.5836   19.3023 F       1  UNL1       -0.1658
     16 F           5.8432   -3.7843   19.2908 F       1  UNL1       -0.1658
     17 N           4.8796    0.0129   30.5622 N.pl3   1  UNL1       -0.2930
     18 C           6.2105   -0.0754   29.8760 C.3     1  UNL1        0.0926
     19 C           6.3085   -0.6733   28.5038 C.3     1  UNL1        0.0290
     20 C           5.0757   -1.1829   27.8178 C.3     1  UNL1        0.0603
     21 C           3.7448   -1.0946   28.5041 C.3     1  UNL1        0.0290
     22 C           3.6468   -0.4967   29.8763 C.3     1  UNL1        0.0926
     23 C           4.8184   -0.2762   33.1435 C.ar    1  UNL1        0.1157
     24 C           4.7203    0.3217   34.5156 C.ar    1  UNL1        0.1342
     25 N           4.7572   -0.5654   35.7247 N.pl3   1  UNL1       -0.3424
     26 N           4.5854    1.8067   34.6788 N.ar    1  UNL1       -0.2092
     27 C           4.5486    2.6937   33.4698 C.ar    1  UNL1        0.2012
     28 N           4.6466    2.0958   32.0976 N.ar    1  UNL1       -0.2088
     29 C           4.7815    0.6108   31.9345 C.ar    1  UNL1        0.1405
     30 H           4.8457   -1.5400   35.6177 H       1  UNL1        0.1437
     31 H           4.6928   -0.1729   36.6253 H       1  UNL1        0.1437
     32 N           6.2689   -2.3544   32.5715 N.am    1  UNL1       -0.3252
     33 C           4.9533   -1.7612   32.9803 C.2     1  UNL1        0.2482
     34 O           3.7726   -2.6531   33.2260 O.2     1  UNL1       -0.2702
     35 H           6.3575   -3.3290   32.4644 H       1  UNL1        0.1453
     36 H           7.0439   -1.7690   32.4102 H       1  UNL1        0.1453
     37 C           6.9672   -3.6972   26.9518 C.3     1  UNL1        0.1245
     38 C           6.7428   -5.1604   27.1942 C.3     1  UNL1        0.0969
     39 N           7.2984   -6.1731   26.2373 N.3     1  UNL1       -0.2710
     40 C           8.0596   -6.1068   24.9465 C.3     1  UNL1        0.0736
     41 C           8.0841   -7.6052   24.8840 C.3     1  UNL1        0.0346
     42 C           7.3229   -7.6715   26.1748 C.3     1  UNL1        0.0736
@<TRIPOS>BOND
     1    32    33   am
     2    33    34    2
     3    33    23    1
     4    23    24   ar
     5    24    25    1
     6    24    26   ar
     7    26    27   ar
     8    27    28   ar
     9    28    29   ar
    10    29    17    1
    11    17    18    1
    12    18    19    1
    13    19    20    1
    14    20     1    1
    15     1     2   ar
    16     2     3   ar
    17     3     6    1
    18     6     7   ar
    19     7     8   ar
    20     8     9   ar
    21     9    10    1
    22     9    11   ar
    23    11    13    1
    24    13    14    1
    25    13    15    1
    26    13    16    1
    27    11    12   ar
    28     3     4   ar
    29     4     5   ar
    30     5    37    1
    31    37    38    1
    32    38    39    1
    33    39    40    1
    34    40    41    1
    35    41    42    1
    36    20    21    1
    37    21    22    1
    38    29    23   ar
    39    22    17    1
    40     5     1   ar
    41    42    39    1
    42    12     6   ar
    43    32    35    1
    44    32    36    1
    45    25    30    1
    46    25    31    1
@<TRIPOS>MOLECULE
*****
 42 46 0 0 0
SMALL
GASTEIGER

@<TRIPOS>ATOM
      1 C           4.0558   -0.9946   26.0662 C.ar    1  UNL1        0.1200
      2 N           3.5478   -0.7411   24.6778 N.ar    1  UNL1       -0.2309
      3 C           4.2843   -1.6523   23.7411 C.ar    1  UNL1        0.0997
      4 C           5.2476   -2.4690   24.5507 C.ar    1  UNL1        0.0961
      5 N           5.1063   -2.0625   25.9876 N.ar    1  UNL1       -0.3123
      6 C           4.0915   -1.7327   22.2557 C.ar    1  UNL1        0.0193
      7 C           3.6444   -0.5224   21.4908 C.ar    1  UNL1        0.0038
      8 C           3.4516   -0.6027   20.0055 C.ar    1  UNL1        0.0296
      9 C           3.7059   -1.8936   19.2849 C.ar    1  UNL1        0.1440
     10 F           3.5131   -1.9740   17.7996 F       1  UNL1       -0.2042
     11 C           4.1530   -3.1040   20.0498 C.ar    1  UNL1        0.0988
     12 C           4.3458   -3.0235   21.5352 C.ar    1  UNL1        0.0077
     13 C           4.4072   -4.3948   19.3294 C.3     1  UNL1        0.4207
     14 F           4.6615   -5.6856   18.6089 F       1  UNL1       -0.1658
     15 F           5.8657   -4.2950   19.6654 F       1  UNL1       -0.1658
     16 F           2.9488   -4.4945   18.9933 F       1  UNL1       -0.1658
     17 N           2.6713    1.0836   29.8097 N.pl3   1  UNL1       -0.2930
     18 C           2.0009   -0.1816   29.3625 C.3     1  UNL1        0.0926
     19 C           2.4623   -0.8743   28.1147 C.3     1  UNL1        0.0290
     20 C           3.5943   -0.3019   27.3140 C.3     1  UNL1        0.0603
     21 C           4.2647    0.9632   27.7612 C.3     1  UNL1        0.0290
     22 C           3.8032    1.6560   29.0091 C.3     1  UNL1        0.0926
     23 C           2.8241    1.4265   32.3805 C.ar    1  UNL1        0.1157
     24 C           2.3625    2.1192   33.6283 C.ar    1  UNL1        0.1342
     25 N           2.9769    1.7694   34.9514 N.pl3   1  UNL1       -0.3424
     26 N           1.2866    3.1617   33.5532 N.ar    1  UNL1       -0.2092
     27 C           0.6723    3.5115   32.2303 C.ar    1  UNL1        0.2012
     28 N           1.1339    2.8188   30.9825 N.ar    1  UNL1       -0.2088
     29 C           2.2097    1.7763   31.0576 C.ar    1  UNL1        0.1405
     30 H           3.6830    1.0852   35.0007 H       1  UNL1        0.1437
     31 H           2.6739    2.2241   35.7704 H       1  UNL1        0.1437
     32 N           5.3397    0.7806   32.3156 N.am    1  UNL1       -0.3252
     33 C           3.8999    0.3840   32.4557 C.2     1  UNL1        0.2482
     34 O           3.5360   -1.0552   32.6708 O.2     1  UNL1       -0.2702
     35 H           6.0458    0.0964   32.3649 H       1  UNL1        0.1453
     36 H           5.5786    1.7252   32.1744 H       1  UNL1        0.1453
     37 C           5.8797   -2.6251   27.1431 C.3     1  UNL1        0.1245
     38 C           7.1949   -3.3060   26.9050 C.3     1  UNL1        0.0969
     39 N           7.2347   -4.7731   26.5951 N.3     1  UNL1       -0.2710
     40 C           7.3003   -5.5904   25.3392 C.3     1  UNL1        0.0736
     41 C           7.2910   -6.8478   26.1570 C.3     1  UNL1        0.0346
     42 C           7.2254   -6.0304   27.4129 C.3     1  UNL1        0.0736
@<TRIPOS>BOND
     1    32    33   am
     2    33    34    2
     3    33    23    1
     4    23    24   ar
     5    24    25    1
     6    24    26   ar
     7    26    27   ar
     8    27    28   ar
     9    28    29   ar
    10    29    17    1
    11    17    18    1
    12    18    19    1
    13    19    20    1
    14    20     1    1
    15     1     2   ar
    16     2     3   ar
    17     3     6    1
    18     6     7   ar
    19     7     8   ar
    20     8     9   ar
    21     9    10    1
    22     9    11   ar
    23    11    13    1
    24    13    14    1
    25    13    15    1
    26    13    16    1
    27    11    12   ar
    28     3     4   ar
    29     4     5   ar
    30     5    37    1
    31    37    38    1
    32    38    39    1
    33    39    40    1
    34    40    41    1
    35    41    42    1
    36    20    21    1
    37    21    22    1
    38    29    23   ar
    39    22    17    1
    40     5     1   ar
    41    42    39    1
    42    12     6   ar
    43    32    35    1
    44    32    36    1
    45    25    30    1
    46    25    31    1
@<TRIPOS>MOLECULE
*****
 42 46 0 0 0
SMALL
GASTEIGER

@<TRIPOS>ATOM
      1 C           4.6036   -1.3609   26.2328 C.ar    1  UNL1        0.1200
      2 N           3.9115   -1.3475   24.9021 N.ar    1  UNL1       -0.2309
      3 C           4.6600   -2.2646   23.9810 C.ar    1  UNL1        0.0997
      4 C           5.8149   -2.8449   24.7425 C.ar    1  UNL1        0.0961
      5 N           5.7799   -2.2864   26.1341 N.ar    1  UNL1       -0.3123
      6 C           4.3145   -2.5512   22.5498 C.ar    1  UNL1        0.0193
      7 C           4.7042   -3.8613   21.9320 C.ar    1  UNL1        0.0038
      8 C           4.3587   -4.1480   20.5008 C.ar    1  UNL1        0.0296
      9 C           3.6234   -3.1244   19.6872 C.ar    1  UNL1        0.1440
     10 F           3.2779   -3.4110   18.2561 F       1  UNL1       -0.2042
     11 C           3.2337   -1.8143   20.3050 C.ar    1  UNL1        0.0988
     12 C           3.5793   -1.5277   21.7363 C.ar    1  UNL1        0.0077
     13 C           2.4985   -0.7907   19.4915 C.3     1  UNL1        0.4207
     14 F           1.7633    0.2328   18.6781 F       1  UNL1       -0.1658
     15 F           1.2182   -1.1653   20.1774 F       1  UNL1       -0.1658
     16 F           3.7788   -0.4161   18.8057 F       1  UNL1       -0.1658
     17 N           3.3679    0.9667   29.8805 N.pl3   1  UNL1       -0.2930
     18 C           4.1937    1.6247   28.8151 C.3     1  UNL1        0.0926
     19 C           4.6056    0.8489   27.5992 C.3     1  UNL1        0.0290
     20 C           4.1917   -0.5850   27.4487 C.3     1  UNL1        0.0603
     21 C           3.3659   -1.2431   28.5141 C.3     1  UNL1        0.0290
     22 C           2.9540   -0.4672   29.7300 C.3     1  UNL1        0.0926
     23 C           1.5788    2.3311   31.1796 C.ar    1  UNL1        0.1157
     24 C           1.1670    3.1069   32.3955 C.ar    1  UNL1        0.1342
     25 N          -0.2103    3.6954   32.4787 N.pl3   1  UNL1       -0.3424
     26 N           2.1323    3.2943   33.5281 N.ar    1  UNL1       -0.2092
     27 C           3.5095    2.7059   33.4449 C.ar    1  UNL1        0.2012
     28 N           3.9214    1.9300   32.2291 N.ar    1  UNL1       -0.2088
     29 C           2.9560    1.7426   31.0964 C.ar    1  UNL1        0.1405
     30 H          -0.8439    3.5725   31.7353 H       1  UNL1        0.1437
     31 H          -0.4806    4.2047   33.2767 H       1  UNL1        0.1437
     32 N           0.5646    3.1436   28.9299 N.am    1  UNL1       -0.3252
     33 C           0.6134    2.1437   30.0469 C.2     1  UNL1        0.2482
     34 O          -0.3031    0.9564   30.0313 O.2     1  UNL1       -0.2702
     35 H          -0.0690    3.0206   28.1865 H       1  UNL1        0.1453
     36 H           1.1661    3.9228   28.9401 H       1  UNL1        0.1453
     37 C           6.7509   -2.5985   27.2340 C.3     1  UNL1        0.1245
     38 C           6.5214   -3.7847   28.1229 C.3     1  UNL1        0.0969
     39 N           6.5331   -3.6184   29.6136 N.3     1  UNL1       -0.2710
     40 C           6.9086   -4.4900   30.7751 C.3     1  UNL1        0.0736
     41 C           6.5496   -3.3832   31.7217 C.3     1  UNL1        0.0346
     42 C           6.1741   -2.5116   30.5602 C.3     1  UNL1        0.0736
@<TRIPOS>BOND
     1    32    33   am
     2    33    34    2
     3    33    23    1
     4    23    24   ar
     5    24    25    1
     6    24    26   ar
     7    26    27   ar
     8    27    28   ar
     9    28    29   ar
    10    29    17    1
    11    17    18    1
    12    18    19    1
    13    19    20    1
    14    20     1    1
    15     1     2   ar
    16     2     3   ar
    17     3     6    1
    18     6     7   ar
    19     7     8   ar
    20     8     9   ar
    21     9    10    1
    22     9    11   ar
    23    11    13    1
    24    13    14    1
    25    13    15    1
    26    13    16    1
    27    11    12   ar
    28     3     4   ar
    29     4     5   ar
    30     5    37    1
    31    37    38    1
    32    38    39    1
    33    39    40    1
    34    40    41    1
    35    41    42    1
    36    20    21    1
    37    21    22    1
    38    29    23   ar
    39    22    17    1
    40     5     1   ar
    41    42    39    1
    42    12     6   ar
    43    32    35    1
    44    32    36    1
    45    25    30    1
    46    25    31    1
