@<TRIPOS>MOLECULE
*****
 34 37 0 0 0
SMALL
GASTEIGER

@<TRIPOS>ATOM
      1 C          -6.9274  -20.3418   20.7910 C.3     1  UNL1        0.0071
      2 C          -7.8343  -19.7762   19.7386 C.3     1  UNL1        0.0177
      3 C          -9.1361  -19.1433   20.1317 C.3     1  UNL1        0.0722
      4 N          -9.5311  -19.0761   21.5772 N.3     1  UNL1       -0.2704
      5 C          -8.6242  -19.6418   22.6296 C.3     1  UNL1        0.0722
      6 C          -7.3224  -20.2746   22.2365 C.3     1  UNL1        0.0177
      7 C          -5.6254  -20.9747   20.3979 C.3     1  UNL1        0.0265
      8 C          -2.4284  -18.9301   21.5591 C.ar    1  UNL1        0.1445
      9 C          -3.6784  -19.7575   21.6134 C.ar    1  UNL1        0.0331
     10 C          -4.3755  -20.1473   20.3437 C.ar    1  UNL1       -0.0191
     11 C          -3.8227  -19.7097   19.0198 C.ar    1  UNL1       -0.0036
     12 C          -2.5726  -18.8822   18.9655 C.ar    1  UNL1        0.0094
     13 C          -1.8755  -18.4925   20.2352 C.ar    1  UNL1        0.0684
     14 BR         -0.6256  -17.6651   20.1809 Br      1  UNL1       -0.0458
     15 O          -1.7313  -18.5403   22.8288 O.3     1  UNL1       -0.4723
     16 C          -2.4982  -17.8707   23.9303 C.3     1  UNL1        0.2373
     17 C          -3.8560  -17.2950   23.6564 C.3     1  UNL1        0.1894
     18 C          -2.7942  -15.5009   22.1060 C.3     1  UNL1        0.1743
     19 O          -3.9912  -16.0596   22.8166 O.3     1  UNL1       -0.3471
     20 C         -10.8331  -18.4432   21.9703 C.3     1  UNL1        0.1063
     21 C         -10.8511  -17.0543   22.5366 C.3     1  UNL1        0.1486
     22 O         -12.1173  -16.2505   22.5115 O.3     1  UNL1       -0.3786
     23 H         -11.9572  -15.3824   22.9136 H       1  UNL1        0.2108
     24 C          -9.6028  -16.4692   23.1279 C.ar    1  UNL1        0.0059
     25 C          -8.6176  -15.7589   22.2477 C.ar    1  UNL1        0.0012
     26 C          -7.3694  -15.1738   22.8391 C.ar    1  UNL1        0.0367
     27 C          -7.1065  -15.2990   24.3105 C.ar    1  UNL1        0.1412
     28 C          -8.0917  -16.0094   25.1907 C.ar    1  UNL1        0.0685
     29 C          -9.3399  -16.5945   24.5993 C.ar    1  UNL1        0.0040
     30 C          -7.8288  -16.1346   26.6621 C.2     1  UNL1        0.1797
     31 O          -8.8140  -16.8450   27.5422 O.2     1  UNL1       -0.2911
     32 C          -6.5806  -15.5495   27.2534 C.3     1  UNL1        0.1165
     33 C          -5.5953  -14.8391   26.3733 C.3     1  UNL1        0.2135
     34 O          -5.8583  -14.7139   24.9018 O.3     1  UNL1       -0.4749
@<TRIPOS>BOND
     1    18    19    1
     2    19    17    1
     3    17    16    1
     4    16    15    1
     5    15     8    1
     6     8     9   ar
     7     9    10   ar
     8    10     7    1
     9     7     1    1
    10     1     2    1
    11     2     3    1
    12     3     4    1
    13     4    20    1
    14    20    21    1
    15    21    22    1
    16    21    24    1
    17    24    25   ar
    18    25    26   ar
    19    26    27   ar
    20    27    28   ar
    21    28    29   ar
    22    28    30    1
    23    30    31    2
    24    30    32    1
    25    32    33    1
    26    33    34    1
    27     4     5    1
    28     5     6    1
    29    10    11   ar
    30    11    12   ar
    31    12    13   ar
    32    13    14    1
    33    13     8   ar
    34     6     1    1
    35    29    24   ar
    36    34    27    1
    37    22    23    1
@<TRIPOS>MOLECULE
*****
 34 37 0 0 0
SMALL
GASTEIGER

@<TRIPOS>ATOM
      1 C          -6.7883  -20.3395   20.1651 C.3     1  UNL1        0.0071
      2 C          -7.6176  -20.4741   18.9225 C.3     1  UNL1        0.0177
      3 C          -9.0441  -20.0103   18.9190 C.3     1  UNL1        0.0722
      4 N          -9.6412  -19.4118   20.1580 N.3     1  UNL1       -0.2704
      5 C          -8.8119  -19.2772   21.4006 C.3     1  UNL1        0.0722
      6 C          -7.3855  -19.7410   21.4042 C.3     1  UNL1        0.0177
      7 C          -5.3618  -20.8033   20.1687 C.3     1  UNL1        0.0265
      8 C          -2.9383  -18.0748   21.7281 C.ar    1  UNL1        0.1445
      9 C          -4.0508  -19.0720   21.5949 C.ar    1  UNL1        0.0331
     10 C          -4.2492  -19.8061   20.3019 C.ar    1  UNL1       -0.0191
     11 C          -3.3351  -19.5430   19.1421 C.ar    1  UNL1       -0.0036
     12 C          -2.2225  -18.5457   19.2753 C.ar    1  UNL1        0.0094
     13 C          -2.0241  -17.8116   20.5683 C.ar    1  UNL1        0.0684
     14 BR         -0.9115  -16.8144   20.7014 Br      1  UNL1       -0.0458
     15 O          -2.7399  -17.3407   23.0210 O.3     1  UNL1       -0.4723
     16 C          -3.8595  -17.2576   24.0158 C.3     1  UNL1        0.2373
     17 C          -5.0075  -16.3223   23.7765 C.3     1  UNL1        0.1894
     18 C          -5.0400  -14.9800   26.0007 C.3     1  UNL1        0.1743
     19 O          -5.0698  -15.0106   24.5013 O.3     1  UNL1       -0.3471
     20 C         -11.0678  -18.9480   20.1545 C.3     1  UNL1        0.1063
     21 C         -11.5242  -17.9185   21.1453 C.3     1  UNL1        0.1486
     22 O         -12.5217  -16.8753   20.7372 O.3     1  UNL1       -0.3786
     23 H         -12.7069  -16.2928   21.4904 H       1  UNL1        0.2108
     24 C         -10.9830  -17.9322   22.5442 C.ar    1  UNL1        0.0059
     25 C         -11.3276  -19.0605   23.4706 C.ar    1  UNL1        0.0012
     26 C         -10.7865  -19.0741   24.8695 C.ar    1  UNL1        0.0367
     27 C          -9.9008  -17.9595   25.3420 C.ar    1  UNL1        0.1412
     28 C          -9.5562  -16.8313   24.4156 C.ar    1  UNL1        0.0685
     29 C         -10.0973  -16.8176   23.0167 C.ar    1  UNL1        0.0040
     30 C          -8.6705  -15.7167   24.8881 C.2     1  UNL1        0.1797
     31 O          -8.3259  -14.5885   23.9617 O.2     1  UNL1       -0.2911
     32 C          -8.1294  -15.7304   26.2870 C.3     1  UNL1        0.1165
     33 C          -8.4739  -16.8587   27.2135 C.3     1  UNL1        0.2135
     34 O          -9.3596  -17.9733   26.7410 O.3     1  UNL1       -0.4749
@<TRIPOS>BOND
     1    18    19    1
     2    19    17    1
     3    17    16    1
     4    16    15    1
     5    15     8    1
     6     8     9   ar
     7     9    10   ar
     8    10     7    1
     9     7     1    1
    10     1     2    1
    11     2     3    1
    12     3     4    1
    13     4    20    1
    14    20    21    1
    15    21    22    1
    16    21    24    1
    17    24    25   ar
    18    25    26   ar
    19    26    27   ar
    20    27    28   ar
    21    28    29   ar
    22    28    30    1
    23    30    31    2
    24    30    32    1
    25    32    33    1
    26    33    34    1
    27     4     5    1
    28     5     6    1
    29    10    11   ar
    30    11    12   ar
    31    12    13   ar
    32    13    14    1
    33    13     8   ar
    34     6     1    1
    35    29    24   ar
    36    34    27    1
    37    22    23    1
@<TRIPOS>MOLECULE
*****
 34 37 0 0 0
SMALL
GASTEIGER

@<TRIPOS>ATOM
      1 C          -3.6040  -17.0144   24.2305 C.3     1  UNL1        0.0071
      2 C          -3.9148  -17.2486   25.6791 C.3     1  UNL1        0.0177
      3 C          -5.1376  -16.6335   26.2927 C.3     1  UNL1        0.0722
      4 N          -6.0495  -15.7843   25.4577 N.3     1  UNL1       -0.2704
      5 C          -5.7386  -15.5501   24.0091 C.3     1  UNL1        0.0722
      6 C          -4.5159  -16.1652   23.3955 C.3     1  UNL1        0.0177
      7 C          -2.3812  -17.6295   23.6169 C.3     1  UNL1        0.0265
      8 C          -2.8819  -18.8602   19.8773 C.ar    1  UNL1        0.1445
      9 C          -3.0086  -18.7717   21.3693 C.ar    1  UNL1        0.0331
     10 C          -2.2544  -17.7180   22.1249 C.ar    1  UNL1       -0.0191
     11 C          -1.3735  -16.7529   21.3885 C.ar    1  UNL1       -0.0036
     12 C          -1.2467  -16.8413   19.8964 C.ar    1  UNL1        0.0094
     13 C          -2.0009  -17.8950   19.1408 C.ar    1  UNL1        0.0684
     14 BR         -1.8741  -17.9835   17.6489 Br      1  UNL1       -0.0458
     15 O          -3.6361  -19.9139   19.1217 O.3     1  UNL1       -0.4723
     16 C          -4.3714  -20.9888   19.8658 C.3     1  UNL1        0.2373
     17 C          -5.8226  -20.8106   20.2010 C.3     1  UNL1        0.1894
     18 C          -6.6244  -19.0325   21.9172 C.3     1  UNL1        0.1743
     19 O          -6.2303  -20.4439   21.5972 O.3     1  UNL1       -0.3471
     20 C          -7.2723  -15.1692   26.0714 C.3     1  UNL1        0.1063
     21 C          -8.4276  -16.0375   26.4729 C.3     1  UNL1        0.1486
     22 O          -8.9000  -16.0463   27.8965 O.3     1  UNL1       -0.3786
     23 H          -9.6489  -16.6564   27.9849 H       1  UNL1        0.2108
     24 C          -9.1106  -16.8970   25.4507 C.ar    1  UNL1        0.0059
     25 C          -9.6503  -18.2411   25.8409 C.ar    1  UNL1        0.0012
     26 C         -10.3332  -19.1006   24.8187 C.ar    1  UNL1        0.0367
     27 C         -10.4765  -18.6160   23.4064 C.ar    1  UNL1        0.1412
     28 C          -9.9368  -17.2720   23.0162 C.ar    1  UNL1        0.0685
     29 C          -9.2539  -16.4125   24.0383 C.ar    1  UNL1        0.0040
     30 C         -10.0801  -16.7874   21.6039 C.2     1  UNL1        0.1797
     31 O          -9.5404  -15.4434   21.2137 O.2     1  UNL1       -0.2911
     32 C         -10.7630  -17.6469   20.5817 C.3     1  UNL1        0.1165
     33 C         -11.3027  -18.9910   20.9719 C.3     1  UNL1        0.2135
     34 O         -11.1594  -19.4756   22.3842 O.3     1  UNL1       -0.4749
@<TRIPOS>BOND
     1    18    19    1
     2    19    17    1
     3    17    16    1
     4    16    15    1
     5    15     8    1
     6     8     9   ar
     7     9    10   ar
     8    10     7    1
     9     7     1    1
    10     1     2    1
    11     2     3    1
    12     3     4    1
    13     4    20    1
    14    20    21    1
    15    21    22    1
    16    21    24    1
    17    24    25   ar
    18    25    26   ar
    19    26    27   ar
    20    27    28   ar
    21    28    29   ar
    22    28    30    1
    23    30    31    2
    24    30    32    1
    25    32    33    1
    26    33    34    1
    27     4     5    1
    28     5     6    1
    29    10    11   ar
    30    11    12   ar
    31    12    13   ar
    32    13    14    1
    33    13     8   ar
    34     6     1    1
    35    29    24   ar
    36    34    27    1
    37    22    23    1
@<TRIPOS>MOLECULE
*****
 34 37 0 0 0
SMALL
GASTEIGER

@<TRIPOS>ATOM
      1 C           6.8471   -3.7452   23.3296 C.3     1  UNL1        0.0071
      2 C           7.3205   -3.8674   21.9116 C.3     1  UNL1        0.0177
      3 C           6.3467   -3.7188   20.7804 C.3     1  UNL1        0.0722
      4 N           4.8995   -3.4480   21.0673 N.3     1  UNL1       -0.2704
      5 C           4.4261   -3.3259   22.4854 C.3     1  UNL1        0.0722
      6 C           5.3999   -3.4744   23.6165 C.3     1  UNL1        0.0177
      7 C           7.8209   -3.8938   24.4609 C.3     1  UNL1        0.0265
      8 C           7.9285   -6.5033   27.4490 C.ar    1  UNL1        0.1445
      9 C           7.8368   -5.2046   26.7040 C.ar    1  UNL1        0.0331
     10 C           7.9126   -5.1924   25.2059 C.ar    1  UNL1       -0.0191
     11 C           8.0799   -6.4788   24.4529 C.ar    1  UNL1       -0.0036
     12 C           8.1716   -7.7776   25.1980 C.ar    1  UNL1        0.0094
     13 C           8.0959   -7.7898   26.6960 C.ar    1  UNL1        0.0684
     14 BR          8.1875   -9.0884   27.4410 Br      1  UNL1       -0.0458
     15 O           7.8528   -6.5155   28.9470 O.3     1  UNL1       -0.4723
     16 C           7.0421   -5.4779   29.6655 C.3     1  UNL1        0.2373
     17 C           7.0002   -5.4646   31.1649 C.3     1  UNL1        0.1894
     18 C           7.6545   -3.1401   32.1232 C.3     1  UNL1        0.1743
     19 O           6.6264   -4.2080   31.8936 O.3     1  UNL1       -0.3471
     20 C           3.9256   -3.2994   19.9361 C.3     1  UNL1        0.1063
     21 C           4.2433   -2.3882   18.7878 C.3     1  UNL1        0.1486
     22 O           5.0413   -2.8979   17.6244 O.3     1  UNL1       -0.3786
     23 H           5.1561   -2.1869   16.9747 H       1  UNL1        0.2108
     24 C           3.7631   -0.9672   18.8028 C.ar    1  UNL1        0.0059
     25 C           4.6062    0.1158   18.1975 C.ar    1  UNL1        0.0012
     26 C           4.1259    1.5367   18.2126 C.ar    1  UNL1        0.0367
     27 C           2.8027    1.8747   18.8330 C.ar    1  UNL1        0.1412
     28 C           1.9597    0.7917   19.4383 C.ar    1  UNL1        0.0685
     29 C           2.4399   -0.6292   19.4232 C.ar    1  UNL1        0.0040
     30 C           0.6365    1.1297   20.0586 C.2     1  UNL1        0.1797
     31 O          -0.2065    0.0467   20.6639 O.2     1  UNL1       -0.2911
     32 C           0.1563    2.5506   20.0737 C.3     1  UNL1        0.1165
     33 C           0.9993    3.6337   19.4684 C.3     1  UNL1        0.2135
     34 O           2.3225    3.2957   18.8480 O.3     1  UNL1       -0.4749
@<TRIPOS>BOND
     1    18    19    1
     2    19    17    1
     3    17    16    1
     4    16    15    1
     5    15     8    1
     6     8     9   ar
     7     9    10   ar
     8    10     7    1
     9     7     1    1
    10     1     2    1
    11     2     3    1
    12     3     4    1
    13     4    20    1
    14    20    21    1
    15    21    22    1
    16    21    24    1
    17    24    25   ar
    18    25    26   ar
    19    26    27   ar
    20    27    28   ar
    21    28    29   ar
    22    28    30    1
    23    30    31    2
    24    30    32    1
    25    32    33    1
    26    33    34    1
    27     4     5    1
    28     5     6    1
    29    10    11   ar
    30    11    12   ar
    31    12    13   ar
    32    13    14    1
    33    13     8   ar
    34     6     1    1
    35    29    24   ar
    36    34    27    1
    37    22    23    1
@<TRIPOS>MOLECULE
*****
 34 37 0 0 0
SMALL
GASTEIGER

@<TRIPOS>ATOM
      1 C           4.5488   -3.2859   20.5370 C.3     1  UNL1        0.0071
      2 C           4.5925   -3.4569   22.0265 C.3     1  UNL1        0.0177
      3 C           5.8544   -3.9213   22.6914 C.3     1  UNL1        0.0722
      4 N           7.0724   -4.2148   21.8666 N.3     1  UNL1       -0.2704
      5 C           7.0287   -4.0438   20.3771 C.3     1  UNL1        0.0722
      6 C           5.7669   -3.5794   19.7123 C.3     1  UNL1        0.0177
      7 C           3.2869   -2.8215   19.8721 C.3     1  UNL1        0.0265
      8 C           2.2104    0.9834   20.2089 C.ar    1  UNL1        0.1445
      9 C           2.3986   -0.4700   20.5286 C.ar    1  UNL1        0.0331
     10 C           3.0987   -1.3681   19.5524 C.ar    1  UNL1       -0.0191
     11 C           3.6107   -0.8129   18.2564 C.ar    1  UNL1       -0.0036
     12 C           3.4226    0.6405   17.9366 C.ar    1  UNL1        0.0094
     13 C           2.7224    1.5387   18.9129 C.ar    1  UNL1        0.0684
     14 BR          2.5342    2.9921   18.5932 Br      1  UNL1       -0.0458
     15 O           1.5102    1.8816   21.1851 O.3     1  UNL1       -0.4723
     16 C           0.0238    1.7841   21.3611 C.3     1  UNL1        0.2373
     17 C          -0.8869    2.6488   20.5408 C.3     1  UNL1        0.1894
     18 C          -3.2699    3.5366   20.0087 C.3     1  UNL1        0.1743
     19 O          -2.3636    2.6439   20.8036 O.3     1  UNL1       -0.3471
     20 C           8.3343   -4.6792   22.5316 C.3     1  UNL1        0.1063
     21 C           8.4194   -6.0679   23.0920 C.3     1  UNL1        0.1486
     22 O           8.6473   -7.2337   22.1761 O.3     1  UNL1       -0.3786
     23 H           8.6761   -8.0523   22.6957 H       1  UNL1        0.2108
     24 C           8.2766   -6.2909   24.5686 C.ar    1  UNL1        0.0059
     25 C           8.7551   -7.5727   25.1832 C.ar    1  UNL1        0.0012
     26 C           8.6123   -7.7956   26.6596 C.ar    1  UNL1        0.0367
     27 C           7.9911   -6.7367   27.5214 C.ar    1  UNL1        0.1412
     28 C           7.5126   -5.4548   26.9067 C.ar    1  UNL1        0.0685
     29 C           7.6554   -5.2319   25.4303 C.ar    1  UNL1        0.0040
     30 C           6.8913   -4.3958   27.7685 C.2     1  UNL1        0.1797
     31 O           6.4128   -3.1140   27.1538 O.2     1  UNL1       -0.2911
     32 C           6.7485   -4.6187   29.2449 C.3     1  UNL1        0.1165
     33 C           7.2270   -5.9006   29.8597 C.3     1  UNL1        0.2135
     34 O           7.8483   -6.9596   28.9979 O.3     1  UNL1       -0.4749
@<TRIPOS>BOND
     1    18    19    1
     2    19    17    1
     3    17    16    1
     4    16    15    1
     5    15     8    1
     6     8     9   ar
     7     9    10   ar
     8    10     7    1
     9     7     1    1
    10     1     2    1
    11     2     3    1
    12     3     4    1
    13     4    20    1
    14    20    21    1
    15    21    22    1
    16    21    24    1
    17    24    25   ar
    18    25    26   ar
    19    26    27   ar
    20    27    28   ar
    21    28    29   ar
    22    28    30    1
    23    30    31    2
    24    30    32    1
    25    32    33    1
    26    33    34    1
    27     4     5    1
    28     5     6    1
    29    10    11   ar
    30    11    12   ar
    31    12    13   ar
    32    13    14    1
    33    13     8   ar
    34     6     1    1
    35    29    24   ar
    36    34    27    1
    37    22    23    1
@<TRIPOS>MOLECULE
*****
 34 37 0 0 0
SMALL
GASTEIGER

@<TRIPOS>ATOM
      1 C           6.8449   -3.8752   23.3900 C.3     1  UNL1        0.0071
      2 C           5.3532   -3.7268   23.3369 C.3     1  UNL1        0.0177
      3 C           4.6501   -3.6876   22.0125 C.3     1  UNL1        0.0722
      4 N           5.4386   -3.7968   20.7412 N.3     1  UNL1       -0.2704
      5 C           6.9303   -3.9451   20.7942 C.3     1  UNL1        0.0722
      6 C           7.6334   -3.9843   22.1186 C.3     1  UNL1        0.0177
      7 C           7.5481   -3.9144   24.7144 C.3     1  UNL1        0.0265
      8 C           7.8785   -6.5778   27.6378 C.ar    1  UNL1        0.1445
      9 C           7.6933   -5.2709   26.9254 C.ar    1  UNL1        0.0331
     10 C           7.7333   -5.2213   25.4268 C.ar    1  UNL1       -0.0191
     11 C           7.9587   -6.4787   24.6405 C.ar    1  UNL1       -0.0036
     12 C           8.1440   -7.7857   25.3529 C.ar    1  UNL1        0.0094
     13 C           8.1039   -7.8353   26.8516 C.ar    1  UNL1        0.0684
     14 BR          8.2891   -9.1422   27.5640 Br      1  UNL1       -0.0458
     15 O           7.8384   -6.6274   29.1365 O.3     1  UNL1       -0.4723
     16 C           7.2915   -5.4651   29.9110 C.3     1  UNL1        0.2373
     17 C           6.9744   -5.6180   31.3691 C.3     1  UNL1        0.1894
     18 C           7.4555   -3.1630   32.0700 C.3     1  UNL1        0.1743
     19 O           6.6338   -4.4118   32.1930 O.3     1  UNL1       -0.3471
     20 C           4.7354   -3.7576   19.4168 C.3     1  UNL1        0.1063
     21 C           4.6982   -2.4843   18.6248 C.3     1  UNL1        0.1486
     22 O           5.6448   -2.2863   17.4782 O.3     1  UNL1       -0.3786
     23 H           5.4895   -1.4169   17.0771 H       1  UNL1        0.2108
     24 C           3.7143   -1.4090   18.9793 C.ar    1  UNL1        0.0059
     25 C           2.4795   -1.7498   19.7597 C.ar    1  UNL1        0.0012
     26 C           1.4956   -0.6745   20.1142 C.ar    1  UNL1        0.0367
     27 C           1.7466    0.7417   19.6883 C.ar    1  UNL1        0.1412
     28 C           2.9815    1.0826   18.9080 C.ar    1  UNL1        0.0685
     29 C           3.9653    0.0073   18.5535 C.ar    1  UNL1        0.0040
     30 C           3.2325    2.4988   18.4822 C.2     1  UNL1        0.1797
     31 O           4.4673    2.8397   17.7019 O.2     1  UNL1       -0.2911
     32 C           2.2487    3.5741   18.8367 C.3     1  UNL1        0.1165
     33 C           1.0138    3.2333   19.6171 C.3     1  UNL1        0.2135
     34 O           0.7627    1.8171   20.0429 O.3     1  UNL1       -0.4749
@<TRIPOS>BOND
     1    18    19    1
     2    19    17    1
     3    17    16    1
     4    16    15    1
     5    15     8    1
     6     8     9   ar
     7     9    10   ar
     8    10     7    1
     9     7     1    1
    10     1     2    1
    11     2     3    1
    12     3     4    1
    13     4    20    1
    14    20    21    1
    15    21    22    1
    16    21    24    1
    17    24    25   ar
    18    25    26   ar
    19    26    27   ar
    20    27    28   ar
    21    28    29   ar
    22    28    30    1
    23    30    31    2
    24    30    32    1
    25    32    33    1
    26    33    34    1
    27     4     5    1
    28     5     6    1
    29    10    11   ar
    30    11    12   ar
    31    12    13   ar
    32    13    14    1
    33    13     8   ar
    34     6     1    1
    35    29    24   ar
    36    34    27    1
    37    22    23    1
@<TRIPOS>MOLECULE
*****
 34 37 0 0 0
SMALL
GASTEIGER

@<TRIPOS>ATOM
      1 C          -0.7251    3.1392   26.3718 C.3     1  UNL1        0.0071
      2 C           0.4339    4.0063   25.9784 C.3     1  UNL1        0.0177
      3 C           1.7375    3.3804   25.5798 C.3     1  UNL1        0.0722
      4 N           1.8821    1.8874   25.5747 N.3     1  UNL1       -0.2704
      5 C           0.7231    1.0203   25.9682 C.3     1  UNL1        0.0722
      6 C          -0.5805    1.6462   26.3667 C.3     1  UNL1        0.0177
      7 C          -2.0287    3.7651   26.7704 C.3     1  UNL1        0.0265
      8 C          -4.0599    3.5157   23.3701 C.ar    1  UNL1        0.1445
      9 C          -2.9332    3.4363   24.3572 C.ar    1  UNL1        0.0331
     10 C          -3.1554    3.8445   25.7834 C.ar    1  UNL1       -0.0191
     11 C          -4.5042    4.3322   26.2225 C.ar    1  UNL1       -0.0036
     12 C          -5.6309    4.4117   25.2354 C.ar    1  UNL1        0.0094
     13 C          -5.4087    4.0034   23.8092 C.ar    1  UNL1        0.0684
     14 BR         -6.5354    4.0829   22.8221 Br      1  UNL1       -0.0458
     15 O          -3.8377    3.1074   21.9440 O.3     1  UNL1       -0.4723
     16 C          -2.7977    3.8043   21.1176 C.3     1  UNL1        0.2373
     17 C          -1.7805    3.0029   20.3606 C.3     1  UNL1        0.1894
     18 C          -0.1240    2.5555   22.3114 C.3     1  UNL1        0.1743
     19 O          -0.8588    2.0751   21.0951 O.3     1  UNL1       -0.3471
     20 C           3.1857    1.2615   25.1761 C.3     1  UNL1        0.1063
     21 C           3.2644   -0.2163   24.9314 C.3     1  UNL1        0.1486
     22 O           3.3436   -1.1653   26.0904 O.3     1  UNL1       -0.3786
     23 H           3.3882   -2.0762   25.7600 H       1  UNL1        0.2108
     24 C           3.2639   -0.7452   23.5277 C.ar    1  UNL1        0.0059
     25 C           2.3810   -0.1177   22.4901 C.ar    1  UNL1        0.0012
     26 C           2.3805   -0.6466   21.0865 C.ar    1  UNL1        0.0367
     27 C           3.2629   -1.8030   20.7204 C.ar    1  UNL1        0.1412
     28 C           4.1458   -2.4305   21.7580 C.ar    1  UNL1        0.0685
     29 C           4.1463   -1.9016   23.1616 C.ar    1  UNL1        0.0040
     30 C           5.0282   -3.5870   21.3920 C.2     1  UNL1        0.1797
     31 O           5.9111   -4.2145   22.4296 O.2     1  UNL1       -0.2911
     32 C           5.0277   -4.1159   19.9884 C.3     1  UNL1        0.1165
     33 C           4.1448   -3.4883   18.9507 C.3     1  UNL1        0.2135
     34 O           3.2624   -2.3319   19.3167 O.3     1  UNL1       -0.4749
@<TRIPOS>BOND
     1    18    19    1
     2    19    17    1
     3    17    16    1
     4    16    15    1
     5    15     8    1
     6     8     9   ar
     7     9    10   ar
     8    10     7    1
     9     7     1    1
    10     1     2    1
    11     2     3    1
    12     3     4    1
    13     4    20    1
    14    20    21    1
    15    21    22    1
    16    21    24    1
    17    24    25   ar
    18    25    26   ar
    19    26    27   ar
    20    27    28   ar
    21    28    29   ar
    22    28    30    1
    23    30    31    2
    24    30    32    1
    25    32    33    1
    26    33    34    1
    27     4     5    1
    28     5     6    1
    29    10    11   ar
    30    11    12   ar
    31    12    13   ar
    32    13    14    1
    33    13     8   ar
    34     6     1    1
    35    29    24   ar
    36    34    27    1
    37    22    23    1
@<TRIPOS>MOLECULE
*****
 34 37 0 0 0
SMALL
GASTEIGER

@<TRIPOS>ATOM
      1 C           7.0076   -2.3163   31.7015 C.3     1  UNL1        0.0071
      2 C           6.6396   -3.7307   32.0389 C.3     1  UNL1        0.0177
      3 C           6.8859   -4.8272   31.0454 C.3     1  UNL1        0.0722
      4 N           7.5004   -4.5091   29.7145 N.3     1  UNL1       -0.2704
      5 C           7.8684   -3.0947   29.3771 C.3     1  UNL1        0.0722
      6 C           7.6220   -1.9983   30.3706 C.3     1  UNL1        0.0177
      7 C           6.7612   -1.2198   32.6951 C.3     1  UNL1        0.0265
      8 C           3.0813   -0.0987   31.7200 C.ar    1  UNL1        0.1445
      9 C           4.3509   -0.8950   31.7813 C.ar    1  UNL1        0.0331
     10 C           5.4916   -0.4235   32.6337 C.ar    1  UNL1       -0.0191
     11 C           5.3625    0.8444   33.4247 C.ar    1  UNL1       -0.0036
     12 C           4.0928    1.6408   33.3634 C.ar    1  UNL1        0.0094
     13 C           2.9522    1.1692   32.5110 C.ar    1  UNL1        0.0684
     14 BR          1.6825    1.9656   32.4497 Br      1  UNL1       -0.0458
     15 O           1.9406   -0.5703   30.8676 O.3     1  UNL1       -0.4723
     16 C           1.9897   -0.3856   29.3799 C.3     1  UNL1        0.2373
     17 C           1.1275    0.6520   28.7240 C.3     1  UNL1        0.1894
     18 C          -1.2238   -0.4495   28.8110 C.3     1  UNL1        0.1743
     19 O          -0.1432    0.2466   28.0379 O.3     1  UNL1       -0.3471
     20 C           7.7467   -5.6056   28.7210 C.3     1  UNL1        0.1063
     21 C           6.7692   -5.8432   27.6084 C.3     1  UNL1        0.1486
     22 O           5.3000   -5.9120   27.9028 O.3     1  UNL1       -0.3786
     23 H           4.8122   -6.0698   27.0793 H       1  UNL1        0.2108
     24 C           7.2608   -6.0120   26.2013 C.ar    1  UNL1        0.0059
     25 C           7.8046   -7.3352   25.7505 C.ar    1  UNL1        0.0012
     26 C           8.2962   -7.5040   24.3434 C.ar    1  UNL1        0.0367
     27 C           8.2440   -6.3495   23.3872 C.ar    1  UNL1        0.1412
     28 C           7.7002   -5.0262   23.8380 C.ar    1  UNL1        0.0685
     29 C           7.2086   -4.8575   25.2450 C.ar    1  UNL1        0.0040
     30 C           7.6479   -3.8717   22.8817 C.2     1  UNL1        0.1797
     31 O           7.1041   -2.5485   23.3325 O.2     1  UNL1       -0.2911
     32 C           8.1395   -4.0405   21.4747 C.3     1  UNL1        0.1165
     33 C           8.6834   -5.3638   21.0238 C.3     1  UNL1        0.2135
     34 O           8.7356   -6.5183   21.9801 O.3     1  UNL1       -0.4749
@<TRIPOS>BOND
     1    18    19    1
     2    19    17    1
     3    17    16    1
     4    16    15    1
     5    15     8    1
     6     8     9   ar
     7     9    10   ar
     8    10     7    1
     9     7     1    1
    10     1     2    1
    11     2     3    1
    12     3     4    1
    13     4    20    1
    14    20    21    1
    15    21    22    1
    16    21    24    1
    17    24    25   ar
    18    25    26   ar
    19    26    27   ar
    20    27    28   ar
    21    28    29   ar
    22    28    30    1
    23    30    31    2
    24    30    32    1
    25    32    33    1
    26    33    34    1
    27     4     5    1
    28     5     6    1
    29    10    11   ar
    30    11    12   ar
    31    12    13   ar
    32    13    14    1
    33    13     8   ar
    34     6     1    1
    35    29    24   ar
    36    34    27    1
    37    22    23    1
@<TRIPOS>MOLECULE
*****
 34 37 0 0 0
SMALL
GASTEIGER

@<TRIPOS>ATOM
      1 C          -0.7397    2.4201   25.3065 C.3     1  UNL1        0.0071
      2 C           0.2385    1.3160   25.0345 C.3     1  UNL1        0.0177
      3 C           0.7924    1.1280   23.6533 C.3     1  UNL1        0.0722
      4 N           0.3681    2.0442   22.5440 N.3     1  UNL1       -0.2704
      5 C          -0.6101    3.1483   22.8159 C.3     1  UNL1        0.0722
      6 C          -1.1640    3.3363   24.1972 C.3     1  UNL1        0.0177
      7 C          -1.2936    2.6081   26.6877 C.3     1  UNL1        0.0265
      8 C           0.9297    1.6691   29.8381 C.ar    1  UNL1        0.1445
      9 C          -0.0003    1.5347   28.6689 C.ar    1  UNL1        0.0331
     10 C          -0.3636    2.7424   27.8569 C.ar    1  UNL1       -0.0191
     11 C           0.2031    4.0845   28.2140 C.ar    1  UNL1       -0.0036
     12 C           1.1331    4.2190   29.3832 C.ar    1  UNL1        0.0094
     13 C           1.4965    3.0113   30.1953 C.ar    1  UNL1        0.0684
     14 BR          2.4265    3.1456   31.3644 Br      1  UNL1       -0.0458
     15 O           1.2930    0.4614   30.6501 O.3     1  UNL1       -0.4723
     16 C           2.2502   -0.5532   30.0984 C.3     1  UNL1        0.2373
     17 C           3.6591   -0.6111   30.6099 C.3     1  UNL1        0.1894
     18 C           3.6858   -0.0794   33.1529 C.3     1  UNL1        0.1743
     19 O           3.9269   -1.0364   32.0232 O.3     1  UNL1       -0.3471
     20 C           0.9220    1.8563   21.1627 C.3     1  UNL1        0.1063
     21 C           0.8127    0.5221   20.4859 C.3     1  UNL1        0.1486
     22 O          -0.4657   -0.2582   20.5685 O.3     1  UNL1       -0.3786
     23 H          -0.3682   -1.0910   20.0807 H       1  UNL1        0.2108
     24 C           1.9818   -0.0318   19.7266 C.ar    1  UNL1        0.0059
     25 C           2.2583    0.4370   18.3288 C.ar    1  UNL1        0.0012
     26 C           3.4274   -0.1169   17.5696 C.ar    1  UNL1        0.0367
     27 C           4.3199   -1.1395   18.2081 C.ar    1  UNL1        0.1412
     28 C           4.0433   -1.6083   19.6058 C.ar    1  UNL1        0.0685
     29 C           2.8743   -1.0544   20.3651 C.ar    1  UNL1        0.0040
     30 C           4.9359   -2.6309   20.2443 C.2     1  UNL1        0.1797
     31 O           4.6593   -3.0996   21.6421 O.2     1  UNL1       -0.2911
     32 C           6.1049   -3.1848   19.4851 C.3     1  UNL1        0.1165
     33 C           6.3815   -2.7160   18.0872 C.3     1  UNL1        0.2135
     34 O           5.4890   -1.6934   17.4487 O.3     1  UNL1       -0.4749
@<TRIPOS>BOND
     1    18    19    1
     2    19    17    1
     3    17    16    1
     4    16    15    1
     5    15     8    1
     6     8     9   ar
     7     9    10   ar
     8    10     7    1
     9     7     1    1
    10     1     2    1
    11     2     3    1
    12     3     4    1
    13     4    20    1
    14    20    21    1
    15    21    22    1
    16    21    24    1
    17    24    25   ar
    18    25    26   ar
    19    26    27   ar
    20    27    28   ar
    21    28    29   ar
    22    28    30    1
    23    30    31    2
    24    30    32    1
    25    32    33    1
    26    33    34    1
    27     4     5    1
    28     5     6    1
    29    10    11   ar
    30    11    12   ar
    31    12    13   ar
    32    13    14    1
    33    13     8   ar
    34     6     1    1
    35    29    24   ar
    36    34    27    1
    37    22    23    1
