@<TRIPOS>MOLECULE
*****
 28 31 0 0 0
SMALL
GASTEIGER

@<TRIPOS>ATOM
      1 C           4.9211    2.3380   39.1470 C.ar    1  UNL1        0.1721
      2 C           6.2187    2.4716   38.4066 C.ar    1  UNL1        0.0356
      3 C           6.4610    1.6639   37.1660 C.ar    1  UNL1       -0.0203
      4 C           5.4057    0.7226   36.6659 C.ar    1  UNL1       -0.0084
      5 C           4.1081    0.5890   37.4063 C.ar    1  UNL1        0.0368
      6 C           3.8658    1.3967   38.6468 C.ar    1  UNL1        0.1721
      7 C           5.6480   -0.0850   35.4253 C.3     1  UNL1        0.0812
      8 C           4.5927   -1.0263   34.9252 C.3     1  UNL1        0.0363
      9 C           4.8350   -1.8340   33.6846 C.3     1  UNL1        0.0579
     10 N           3.7795   -2.7753   33.1845 N.3     1  UNL1       -0.3219
     11 C           6.1326   -1.7004   32.9442 C.3     1  UNL1        0.0525
     12 C           7.1879   -0.7591   33.4444 C.3     1  UNL1        0.0780
     13 N           6.9456    0.0486   34.6849 N.3     1  UNL1       -0.2696
     14 C           8.0011    0.9899   35.1850 C.3     1  UNL1        0.0770
     15 C           7.7588    1.7976   36.4256 C.3     1  UNL1        0.0435
     16 H           2.9703   -2.7392   33.8044 H       1  UNL1        0.1188
     17 H           4.1518   -3.7248   33.1663 H       1  UNL1        0.1188
     18 C           6.3749   -2.5080   31.7037 C.ar    1  UNL1       -0.0202
     19 C           6.0791   -1.9197   30.3560 C.ar    1  UNL1       -0.0042
     20 C           6.3214   -2.7273   29.1154 C.ar    1  UNL1       -0.0006
     21 C           6.8595   -4.1234   29.2226 C.ar    1  UNL1       -0.0043
     22 C           7.1552   -4.7118   30.5702 C.ar    1  UNL1       -0.0222
     23 C           7.6933   -6.1079   30.6774 C.3     1  UNL1        0.0310
     24 C           6.9129   -3.9041   31.8108 C.ar    1  UNL1       -0.0084
     25 C           4.1669    4.5514   40.2792 C.3     1  UNL1        0.2526
     26 O           4.6788    3.1456   40.3875 O.3     1  UNL1       -0.4684
     27 O           2.5680    1.2630   39.3872 O.3     1  UNL1       -0.4684
     28 C           1.4425    2.2136   39.1055 C.3     1  UNL1        0.2526
@<TRIPOS>BOND
     1    25    26    1
     2    26     1    1
     3     1     2   ar
     4     2     3   ar
     5     3     4   ar
     6     4     5   ar
     7     5     6   ar
     8     6    27    1
     9    27    28    1
    10     4     7    1
    11     7     8    1
    12     8     9    1
    13     9    10    1
    14     9    11    1
    15    11    18    1
    16    18    19   ar
    17    19    20   ar
    18    20    21   ar
    19    21    22   ar
    20    22    23    1
    21    22    24   ar
    22    11    12    1
    23    12    13    1
    24    13    14    1
    25    14    15    1
    26     6     1   ar
    27    13     7    1
    28    15     3    1
    29    24    18   ar
    30    10    16    1
    31    10    17    1
@<TRIPOS>MOLECULE
*****
 28 31 0 0 0
SMALL
GASTEIGER

@<TRIPOS>ATOM
      1 C          -1.4156    3.0964   25.8859 C.ar    1  UNL1        0.1721
      2 C          -1.4949    3.3667   24.4126 C.ar    1  UNL1        0.0356
      3 C          -0.5967    2.6282   23.4651 C.ar    1  UNL1       -0.0203
      4 C           0.3810    1.6194   23.9908 C.ar    1  UNL1       -0.0084
      5 C           0.4604    1.3491   25.4641 C.ar    1  UNL1        0.0368
      6 C          -0.4379    2.0876   26.4116 C.ar    1  UNL1        0.1721
      7 C           1.2792    0.8809   23.0433 C.3     1  UNL1        0.0812
      8 C           2.2569   -0.1279   23.5691 C.3     1  UNL1        0.0363
      9 C           3.1552   -0.8663   22.6216 C.3     1  UNL1        0.0579
     10 N           4.1328   -1.8752   23.1474 N.3     1  UNL1       -0.3219
     11 C           3.0758   -0.5960   21.1483 C.3     1  UNL1        0.0525
     12 C           2.0981    0.4128   20.6226 C.3     1  UNL1        0.0780
     13 N           1.1999    1.1513   21.5701 N.3     1  UNL1       -0.2696
     14 C           0.2222    2.1601   21.0442 C.3     1  UNL1        0.0770
     15 C          -0.6761    2.8986   21.9917 C.3     1  UNL1        0.0435
     16 H           4.0513   -1.9306   24.1627 H       1  UNL1        0.1188
     17 H           5.0805   -1.5927   22.8973 H       1  UNL1        0.1188
     18 C           3.9740   -1.3345   20.2008 C.ar    1  UNL1       -0.0202
     19 C           5.0775   -0.6064   19.4922 C.ar    1  UNL1       -0.0042
     20 C           5.9758   -1.3449   18.5447 C.ar    1  UNL1       -0.0006
     21 C           5.7706   -2.8115   18.3058 C.ar    1  UNL1       -0.0043
     22 C           4.6671   -3.5395   19.0145 C.ar    1  UNL1       -0.0222
     23 C           4.4619   -5.0061   18.7756 C.3     1  UNL1        0.0310
     24 C           3.7688   -2.8010   19.9620 C.ar    1  UNL1       -0.0084
     25 C          -3.7880    3.9080   26.5661 C.3     1  UNL1        0.2526
     26 O          -2.3138    3.8349   26.8334 O.3     1  UNL1       -0.4684
     27 O          -0.3585    1.8172   27.8850 O.3     1  UNL1       -0.4684
     28 C          -0.9543    0.5621   28.4504 C.3     1  UNL1        0.2526
@<TRIPOS>BOND
     1    25    26    1
     2    26     1    1
     3     1     2   ar
     4     2     3   ar
     5     3     4   ar
     6     4     5   ar
     7     5     6   ar
     8     6    27    1
     9    27    28    1
    10     4     7    1
    11     7     8    1
    12     8     9    1
    13     9    10    1
    14     9    11    1
    15    11    18    1
    16    18    19   ar
    17    19    20   ar
    18    20    21   ar
    19    21    22   ar
    20    22    23    1
    21    22    24   ar
    22    11    12    1
    23    12    13    1
    24    13    14    1
    25    14    15    1
    26     6     1   ar
    27    13     7    1
    28    15     3    1
    29    24    18   ar
    30    10    16    1
    31    10    17    1
@<TRIPOS>MOLECULE
*****
 28 31 0 0 0
SMALL
GASTEIGER

@<TRIPOS>ATOM
      1 C           7.8238   -7.1088   26.6883 C.ar    1  UNL1        0.1721
      2 C           8.4722   -7.4336   25.3753 C.ar    1  UNL1        0.0356
      3 C           8.2659   -6.5328   24.1938 C.ar    1  UNL1       -0.0203
      4 C           7.4113   -5.3072   24.3253 C.ar    1  UNL1       -0.0084
      5 C           6.7629   -4.9823   25.6383 C.ar    1  UNL1        0.0368
      6 C           6.9692   -5.8832   26.8198 C.ar    1  UNL1        0.1721
      7 C           7.2050   -4.4064   23.1437 C.3     1  UNL1        0.0812
      8 C           6.3504   -3.1807   23.2752 C.3     1  UNL1        0.0363
      9 C           6.1441   -2.2799   22.0937 C.3     1  UNL1        0.0579
     10 N           5.2894   -1.0542   22.2252 N.3     1  UNL1       -0.3219
     11 C           6.7925   -2.6048   20.7807 C.3     1  UNL1        0.0525
     12 C           7.6471   -3.8304   20.6492 C.3     1  UNL1        0.0780
     13 N           7.8534   -4.7312   21.8307 N.3     1  UNL1       -0.2696
     14 C           8.7081   -5.9569   21.6992 C.3     1  UNL1        0.0770
     15 C           8.9144   -6.8577   22.8807 C.3     1  UNL1        0.0435
     16 H           4.9320   -0.9896   23.1784 H       1  UNL1        0.1188
     17 H           4.5079   -1.1130   21.5724 H       1  UNL1        0.1188
     18 C           6.5862   -1.7039   19.5992 C.ar    1  UNL1       -0.0202
     19 C           7.6604   -0.7378   19.1961 C.ar    1  UNL1       -0.0042
     20 C           7.4541    0.1630   18.0145 C.ar    1  UNL1       -0.0006
     21 C           6.1736    0.0977   17.2361 C.ar    1  UNL1       -0.0043
     22 C           5.0994   -0.8685   17.6392 C.ar    1  UNL1       -0.0222
     23 C           3.8188   -0.9339   16.8608 C.3     1  UNL1        0.0310
     24 C           5.3057   -1.7693   18.8207 C.ar    1  UNL1       -0.0084
     25 C           8.4449   -9.4360   27.6621 C.3     1  UNL1        0.2526
     26 O           8.0301   -8.0096   27.8698 O.3     1  UNL1       -0.4684
     27 O           6.3207   -5.5583   28.1329 O.3     1  UNL1       -0.4684
     28 C           7.0858   -4.8066   29.1815 C.3     1  UNL1        0.2526
@<TRIPOS>BOND
     1    25    26    1
     2    26     1    1
     3     1     2   ar
     4     2     3   ar
     5     3     4   ar
     6     4     5   ar
     7     5     6   ar
     8     6    27    1
     9    27    28    1
    10     4     7    1
    11     7     8    1
    12     8     9    1
    13     9    10    1
    14     9    11    1
    15    11    18    1
    16    18    19   ar
    17    19    20   ar
    18    20    21   ar
    19    21    22   ar
    20    22    23    1
    21    22    24   ar
    22    11    12    1
    23    12    13    1
    24    13    14    1
    25    14    15    1
    26     6     1   ar
    27    13     7    1
    28    15     3    1
    29    24    18   ar
    30    10    16    1
    31    10    17    1
@<TRIPOS>MOLECULE
*****
 28 31 0 0 0
SMALL
GASTEIGER

@<TRIPOS>ATOM
      1 C          -2.5442    4.1659   24.3150 C.ar    1  UNL1        0.1721
      2 C          -1.4432    3.4415   25.0311 C.ar    1  UNL1        0.0356
      3 C          -0.4756    2.5952   24.2581 C.ar    1  UNL1       -0.0203
      4 C          -0.6091    2.4733   22.7690 C.ar    1  UNL1       -0.0084
      5 C          -1.7101    3.1978   22.0530 C.ar    1  UNL1        0.0368
      6 C          -2.6777    4.0441   22.8260 C.ar    1  UNL1        0.1721
      7 C           0.3585    1.6270   21.9960 C.3     1  UNL1        0.0812
      8 C           0.2251    1.5052   20.5070 C.3     1  UNL1        0.0363
      9 C           1.1926    0.6589   19.7340 C.3     1  UNL1        0.0579
     10 N           1.0591    0.5370   18.2448 N.3     1  UNL1       -0.3219
     11 C           2.2937   -0.0656   20.4500 C.3     1  UNL1        0.0525
     12 C           2.4272    0.0562   21.9390 C.3     1  UNL1        0.0780
     13 N           1.4596    0.9025   22.7120 N.3     1  UNL1       -0.2696
     14 C           1.5931    1.0244   24.2012 C.3     1  UNL1        0.0770
     15 C           0.6255    1.8707   24.9742 C.3     1  UNL1        0.0435
     16 H           0.2631    1.0909   17.9284 H       1  UNL1        0.1188
     17 H           0.9133   -0.4412   17.9954 H       1  UNL1        0.1188
     18 C           3.2613   -0.9119   19.6770 C.ar    1  UNL1       -0.0202
     19 C           4.3337   -0.2628   18.8533 C.ar    1  UNL1       -0.0042
     20 C           5.3013   -1.1091   18.0803 C.ar    1  UNL1       -0.0006
     21 C           5.1965   -2.6045   18.1310 C.ar    1  UNL1       -0.0043
     22 C           4.1241   -3.2537   18.9546 C.ar    1  UNL1       -0.0222
     23 C           4.0192   -4.7492   19.0053 C.3     1  UNL1        0.0310
     24 C           3.1565   -2.4074   19.7276 C.ar    1  UNL1       -0.0084
     25 C          -4.5547    4.3630   25.9488 C.3     1  UNL1        0.2526
     26 O          -3.5118    5.0122   25.0880 O.3     1  UNL1       -0.4684
     27 O          -3.7788    4.7686   22.1099 O.3     1  UNL1       -0.4684
     28 C          -5.0977    4.0915   21.8818 C.3     1  UNL1        0.2526
@<TRIPOS>BOND
     1    25    26    1
     2    26     1    1
     3     1     2   ar
     4     2     3   ar
     5     3     4   ar
     6     4     5   ar
     7     5     6   ar
     8     6    27    1
     9    27    28    1
    10     4     7    1
    11     7     8    1
    12     8     9    1
    13     9    10    1
    14     9    11    1
    15    11    18    1
    16    18    19   ar
    17    19    20   ar
    18    20    21   ar
    19    21    22   ar
    20    22    23    1
    21    22    24   ar
    22    11    12    1
    23    12    13    1
    24    13    14    1
    25    14    15    1
    26     6     1   ar
    27    13     7    1
    28    15     3    1
    29    24    18   ar
    30    10    16    1
    31    10    17    1
@<TRIPOS>MOLECULE
*****
 28 31 0 0 0
SMALL
GASTEIGER

@<TRIPOS>ATOM
      1 C           5.2966   -3.6326   22.4744 C.ar    1  UNL1        0.1721
      2 C           4.7499   -2.6987   23.5130 C.ar    1  UNL1        0.0356
      3 C           3.7905   -1.6156   23.1172 C.ar    1  UNL1       -0.0203
      4 C           3.3779   -1.4666   21.6829 C.ar    1  UNL1       -0.0084
      5 C           3.9246   -2.4005   20.6443 C.ar    1  UNL1        0.0368
      6 C           4.8840   -3.4836   21.0400 C.ar    1  UNL1        0.1721
      7 C           2.4185   -0.3835   21.2871 C.3     1  UNL1        0.0812
      8 C           2.0059   -0.2345   19.8527 C.3     1  UNL1        0.0363
      9 C           1.0465    0.8486   19.4570 C.3     1  UNL1        0.0579
     10 N           0.6338    0.9976   18.0225 N.3     1  UNL1       -0.3219
     11 C           0.4997    1.7825   20.4955 C.3     1  UNL1        0.0525
     12 C           0.9124    1.6335   21.9299 C.3     1  UNL1        0.0780
     13 N           1.8718    0.5504   22.3257 N.3     1  UNL1       -0.2696
     14 C           2.2844    0.4014   23.7601 C.3     1  UNL1        0.0770
     15 C           3.2438   -0.6816   24.1559 C.3     1  UNL1        0.0435
     16 H           1.0978    0.2848   17.4594 H       1  UNL1        0.1188
     17 H           0.9003    1.9230   17.6864 H       1  UNL1        0.1188
     18 C          -0.4596    2.8656   20.0998 C.ar    1  UNL1       -0.0202
     19 C           0.0401    4.0857   19.3846 C.ar    1  UNL1       -0.0042
     20 C          -0.9192    5.1687   18.9888 C.ar    1  UNL1       -0.0006
     21 C          -2.3784    5.0317   19.3082 C.ar    1  UNL1       -0.0043
     22 C          -2.8781    3.8116   20.0234 C.ar    1  UNL1       -0.0222
     23 C          -4.3373    3.6745   20.3429 C.3     1  UNL1        0.0310
     24 C          -1.9188    2.7285   20.4192 C.ar    1  UNL1       -0.0084
     25 C           7.2878   -4.4542   23.9270 C.3     1  UNL1        0.2526
     26 O           6.2560   -4.7157   22.8702 O.3     1  UNL1       -0.4684
     27 O           5.4307   -4.4176   20.0013 O.3     1  UNL1       -0.4684
     28 C           4.5326   -4.9504   18.9246 C.3     1  UNL1        0.2526
@<TRIPOS>BOND
     1    25    26    1
     2    26     1    1
     3     1     2   ar
     4     2     3   ar
     5     3     4   ar
     6     4     5   ar
     7     5     6   ar
     8     6    27    1
     9    27    28    1
    10     4     7    1
    11     7     8    1
    12     8     9    1
    13     9    10    1
    14     9    11    1
    15    11    18    1
    16    18    19   ar
    17    19    20   ar
    18    20    21   ar
    19    21    22   ar
    20    22    23    1
    21    22    24   ar
    22    11    12    1
    23    12    13    1
    24    13    14    1
    25    14    15    1
    26     6     1   ar
    27    13     7    1
    28    15     3    1
    29    24    18   ar
    30    10    16    1
    31    10    17    1
@<TRIPOS>MOLECULE
*****
 28 31 0 0 0
SMALL
GASTEIGER

@<TRIPOS>ATOM
      1 C           7.3878   -5.6298   25.1154 C.ar    1  UNL1        0.1721
      2 C           7.6507   -6.3709   26.3927 C.ar    1  UNL1        0.0356
      3 C           7.4053   -5.7014   27.7124 C.ar    1  UNL1       -0.0203
      4 C           6.8969   -4.2908   27.7547 C.ar    1  UNL1       -0.0084
      5 C           6.6339   -3.5498   26.4773 C.ar    1  UNL1        0.0368
      6 C           6.8793   -4.2193   25.1577 C.ar    1  UNL1        0.1721
      7 C           6.6514   -3.6213   29.0743 C.3     1  UNL1        0.0812
      8 C           6.1430   -2.2108   29.1167 C.3     1  UNL1        0.0363
      9 C           5.8976   -1.5413   30.4363 C.3     1  UNL1        0.0579
     10 N           5.3891   -0.1306   30.4786 N.3     1  UNL1       -0.3219
     11 C           6.1605   -2.2823   31.7137 C.3     1  UNL1        0.0525
     12 C           6.6689   -3.6928   31.6714 C.3     1  UNL1        0.0780
     13 N           6.9144   -4.3623   30.3517 N.3     1  UNL1       -0.2696
     14 C           7.4229   -5.7730   30.3094 C.3     1  UNL1        0.0770
     15 C           7.6683   -6.4425   28.9898 C.3     1  UNL1        0.0435
     16 H           5.2674    0.2155   29.5269 H       1  UNL1        0.1188
     17 H           6.0606    0.4582   30.9713 H       1  UNL1        0.1188
     18 C           5.9151   -1.6128   33.0333 C.ar    1  UNL1       -0.0202
     19 C           4.5692   -1.7155   33.6876 C.ar    1  UNL1       -0.0042
     20 C           4.3238   -1.0460   35.0073 C.ar    1  UNL1       -0.0006
     21 C           5.4242   -0.2738   35.6727 C.ar    1  UNL1       -0.0043
     22 C           6.7700   -0.1711   35.0184 C.ar    1  UNL1       -0.0222
     23 C           7.8705    0.6012   35.6838 C.3     1  UNL1        0.0310
     24 C           7.0155   -0.8406   33.6987 C.ar    1  UNL1       -0.0084
     25 C           8.7300   -7.3138   23.6618 C.3     1  UNL1        0.2526
     26 O           7.6332   -6.2994   23.7957 O.3     1  UNL1       -0.4684
     27 O           6.6163   -3.4782   23.8803 O.3     1  UNL1       -0.4684
     28 C           5.2280   -3.4275   23.3148 C.3     1  UNL1        0.2526
@<TRIPOS>BOND
     1    25    26    1
     2    26     1    1
     3     1     2   ar
     4     2     3   ar
     5     3     4   ar
     6     4     5   ar
     7     5     6   ar
     8     6    27    1
     9    27    28    1
    10     4     7    1
    11     7     8    1
    12     8     9    1
    13     9    10    1
    14     9    11    1
    15    11    18    1
    16    18    19   ar
    17    19    20   ar
    18    20    21   ar
    19    21    22   ar
    20    22    23    1
    21    22    24   ar
    22    11    12    1
    23    12    13    1
    24    13    14    1
    25    14    15    1
    26     6     1   ar
    27    13     7    1
    28    15     3    1
    29    24    18   ar
    30    10    16    1
    31    10    17    1
@<TRIPOS>MOLECULE
*****
 28 31 0 0 0
SMALL
GASTEIGER

@<TRIPOS>ATOM
      1 C           4.6034   -3.5307   20.5225 C.ar    1  UNL1        0.1721
      2 C           3.6368   -2.6421   19.7972 C.ar    1  UNL1        0.0356
      3 C           2.9115   -1.5592   20.5396 C.ar    1  UNL1       -0.0203
      4 C           3.1527   -1.3649   22.0072 C.ar    1  UNL1       -0.0084
      5 C           4.1192   -2.2535   22.7325 C.ar    1  UNL1        0.0368
      6 C           4.8446   -3.3364   21.9901 C.ar    1  UNL1        0.1721
      7 C           2.4273   -0.2819   22.7496 C.3     1  UNL1        0.0812
      8 C           2.6686   -0.0877   24.2173 C.3     1  UNL1        0.0363
      9 C           1.9432    0.9953   24.9597 C.3     1  UNL1        0.0579
     10 N           2.1845    1.1896   26.4274 N.3     1  UNL1       -0.3219
     11 C           0.9767    1.8839   24.2344 C.3     1  UNL1        0.0525
     12 C           0.7354    1.6896   22.7668 C.3     1  UNL1        0.0780
     13 N           1.4608    0.6067   22.0244 N.3     1  UNL1       -0.2696
     14 C           1.2195    0.4124   20.5567 C.3     1  UNL1        0.0770
     15 C           1.9448   -0.6705   19.8143 C.3     1  UNL1        0.0435
     16 H           2.8654    0.5038   26.7537 H       1  UNL1        0.1188
     17 H           1.3084    1.0669   26.9351 H       1  UNL1        0.1188
     18 C           0.2513    2.9668   24.9768 C.ar    1  UNL1       -0.0202
     19 C           0.9467    4.2594   25.2861 C.ar    1  UNL1       -0.0042
     20 C           0.2213    5.3423   26.0285 C.ar    1  UNL1       -0.0006
     21 C          -1.1994    5.1327   26.4616 C.ar    1  UNL1       -0.0043
     22 C          -1.8947    3.8402   26.1523 C.ar    1  UNL1       -0.0222
     23 C          -3.3155    3.6305   26.5854 C.3     1  UNL1        0.0310
     24 C          -1.1694    2.7572   25.4099 C.ar    1  UNL1       -0.0084
     25 C           4.6305   -5.3742   18.6920 C.3     1  UNL1        0.2526
     26 O           5.3287   -4.6137   19.7801 O.3     1  UNL1       -0.4684
     27 O           5.8112   -4.2251   22.7154 O.3     1  UNL1       -0.4684
     28 C           7.2773   -3.9083   22.7009 C.3     1  UNL1        0.2526
@<TRIPOS>BOND
     1    25    26    1
     2    26     1    1
     3     1     2   ar
     4     2     3   ar
     5     3     4   ar
     6     4     5   ar
     7     5     6   ar
     8     6    27    1
     9    27    28    1
    10     4     7    1
    11     7     8    1
    12     8     9    1
    13     9    10    1
    14     9    11    1
    15    11    18    1
    16    18    19   ar
    17    19    20   ar
    18    20    21   ar
    19    21    22   ar
    20    22    23    1
    21    22    24   ar
    22    11    12    1
    23    12    13    1
    24    13    14    1
    25    14    15    1
    26     6     1   ar
    27    13     7    1
    28    15     3    1
    29    24    18   ar
    30    10    16    1
    31    10    17    1
@<TRIPOS>MOLECULE
*****
 28 31 0 0 0
SMALL
GASTEIGER

@<TRIPOS>ATOM
      1 C           1.2029    0.7547   19.0080 C.ar    1  UNL1        0.1721
      2 C           2.3984    0.1842   18.3043 C.ar    1  UNL1        0.0356
      3 C           3.4320   -0.5780   19.0795 C.ar    1  UNL1       -0.0203
      4 C           3.2700   -0.7697   20.5583 C.ar    1  UNL1       -0.0084
      5 C           2.0744   -0.1991   21.2620 C.ar    1  UNL1        0.0368
      6 C           1.0409    0.5630   20.4868 C.ar    1  UNL1        0.1721
      7 C           4.3035   -1.5318   21.3335 C.3     1  UNL1        0.0812
      8 C           4.1415   -1.7235   22.8123 C.3     1  UNL1        0.0363
      9 C           5.1750   -2.4857   23.5875 C.3     1  UNL1        0.0579
     10 N           5.0130   -2.6773   25.0664 N.3     1  UNL1       -0.3219
     11 C           6.3706   -3.0562   22.8838 C.3     1  UNL1        0.0525
     12 C           6.5326   -2.8645   21.4050 C.3     1  UNL1        0.0780
     13 N           5.4990   -2.1023   20.6298 N.3     1  UNL1       -0.2696
     14 C           5.6611   -1.9107   19.1509 C.3     1  UNL1        0.0770
     15 C           4.6275   -1.1485   18.3757 C.3     1  UNL1        0.0435
     16 H           4.1512   -2.2275   25.3751 H       1  UNL1        0.1188
     17 H           5.8071   -2.2604   25.5523 H       1  UNL1        0.1188
     18 C           7.4041   -3.8183   23.6590 C.ar    1  UNL1       -0.0202
     19 C           8.5021   -3.0833   24.3691 C.ar    1  UNL1       -0.0042
     20 C           9.5356   -3.8455   25.1442 C.ar    1  UNL1       -0.0006
     21 C           9.4712   -5.3427   25.2093 C.ar    1  UNL1       -0.0043
     22 C           8.3732   -6.0777   24.4993 C.ar    1  UNL1       -0.0222
     23 C           8.3088   -7.5749   24.5643 C.3     1  UNL1        0.0310
     24 C           7.3397   -5.3155   23.7241 C.ar    1  UNL1       -0.0084
     25 C           0.1831    3.0168   18.2379 C.3     1  UNL1        0.2526
     26 O           0.1693    1.5169   18.2328 O.3     1  UNL1       -0.4684
     27 O          -0.1547    1.1335   21.1905 O.3     1  UNL1       -0.4684
     28 C          -0.0358    2.4250   21.9442 C.3     1  UNL1        0.2526
@<TRIPOS>BOND
     1    25    26    1
     2    26     1    1
     3     1     2   ar
     4     2     3   ar
     5     3     4   ar
     6     4     5   ar
     7     5     6   ar
     8     6    27    1
     9    27    28    1
    10     4     7    1
    11     7     8    1
    12     8     9    1
    13     9    10    1
    14     9    11    1
    15    11    18    1
    16    18    19   ar
    17    19    20   ar
    18    20    21   ar
    19    21    22   ar
    20    22    23    1
    21    22    24   ar
    22    11    12    1
    23    12    13    1
    24    13    14    1
    25    14    15    1
    26     6     1   ar
    27    13     7    1
    28    15     3    1
    29    24    18   ar
    30    10    16    1
    31    10    17    1
@<TRIPOS>MOLECULE
*****
 28 31 0 0 0
SMALL
GASTEIGER

@<TRIPOS>ATOM
      1 C           6.1317   -2.1889   30.3008 C.ar    1  UNL1        0.1721
      2 C           5.1930   -1.3143   29.5236 C.ar    1  UNL1        0.0356
      3 C           5.0499   -1.4983   28.0418 C.ar    1  UNL1       -0.0203
      4 C           5.8454   -2.5569   27.3372 C.ar    1  UNL1       -0.0084
      5 C           6.7841   -3.4315   28.1144 C.ar    1  UNL1        0.0368
      6 C           6.9272   -3.2475   29.5961 C.ar    1  UNL1        0.1721
      7 C           5.7023   -2.7409   25.8554 C.3     1  UNL1        0.0812
      8 C           6.4978   -3.7995   25.1508 C.3     1  UNL1        0.0363
      9 C           6.3547   -3.9835   23.6690 C.3     1  UNL1        0.0579
     10 N           7.1502   -5.0421   22.9644 N.3     1  UNL1       -0.3219
     11 C           5.4160   -3.1089   22.8919 C.3     1  UNL1        0.0525
     12 C           4.6205   -2.0503   23.5965 C.3     1  UNL1        0.0780
     13 N           4.7636   -1.8663   25.0783 N.3     1  UNL1       -0.2696
     14 C           3.9681   -0.8077   25.7829 C.3     1  UNL1        0.0770
     15 C           4.1112   -0.6237   27.2647 C.3     1  UNL1        0.0435
     16 H           7.7310   -5.5377   23.6409 H       1  UNL1        0.1188
     17 H           7.7454   -4.6073   22.2593 H       1  UNL1        0.1188
     18 C           5.2729   -3.2929   21.4101 C.ar    1  UNL1       -0.0202
     19 C           4.1926   -4.1796   20.8653 C.ar    1  UNL1       -0.0042
     20 C           4.0495   -4.3636   19.3836 C.ar    1  UNL1       -0.0006
     21 C           4.9866   -3.6609   18.4466 C.ar    1  UNL1       -0.0043
     22 C           6.0668   -2.7742   18.9913 C.ar    1  UNL1       -0.0222
     23 C           7.0040   -2.0715   18.0543 C.3     1  UNL1        0.0310
     24 C           6.2100   -2.5902   20.4731 C.ar    1  UNL1       -0.0084
     25 C           5.3195   -2.6841   32.7184 C.3     1  UNL1        0.2526
     26 O           6.2748   -2.0049   31.7825 O.3     1  UNL1       -0.4684
     27 O           7.8659   -4.1221   30.3733 O.3     1  UNL1       -0.4684
     28 C           7.3757   -5.4120   30.9614 C.3     1  UNL1        0.2526
@<TRIPOS>BOND
     1    25    26    1
     2    26     1    1
     3     1     2   ar
     4     2     3   ar
     5     3     4   ar
     6     4     5   ar
     7     5     6   ar
     8     6    27    1
     9    27    28    1
    10     4     7    1
    11     7     8    1
    12     8     9    1
    13     9    10    1
    14     9    11    1
    15    11    18    1
    16    18    19   ar
    17    19    20   ar
    18    20    21   ar
    19    21    22   ar
    20    22    23    1
    21    22    24   ar
    22    11    12    1
    23    12    13    1
    24    13    14    1
    25    14    15    1
    26     6     1   ar
    27    13     7    1
    28    15     3    1
    29    24    18   ar
    30    10    16    1
    31    10    17    1
