@<TRIPOS>MOLECULE
*****
 19 22 0 0 0
SMALL
GASTEIGER

@<TRIPOS>ATOM
      1 C         -13.0772  -17.7724   21.5956 C.ar    1  UNL1       -0.0000
      2 C         -12.4347  -16.5779   20.9549 C.ar    1  UNL1       -0.0000
      3 C         -11.1882  -15.9893   21.5464 C.ar    1  UNL1       -0.0000
      4 C         -10.5843  -16.5952   22.7785 C.ar    1  UNL1       -0.0003
      5 C          -9.3378  -16.0066   23.3700 C.ar    1  UNL1       -0.0042
      6 C          -8.7338  -16.6124   24.6021 C.ar    1  UNL1       -0.0215
      7 C          -9.3763  -17.8069   25.2428 C.ar    1  UNL1       -0.0042
      8 C         -10.6228  -18.3955   24.6514 C.ar    1  UNL1       -0.0003
      9 C         -11.2268  -17.7896   23.4192 C.ar    1  UNL1       -0.0000
     10 C         -12.4733  -18.3782   22.8277 C.ar    1  UNL1       -0.0000
     11 C          -7.4873  -16.0238   25.1936 C.3     1  UNL1        0.0347
     12 C          -8.5491  -16.0211   26.2530 C.3     1  UNL1        0.0054
     13 C          -7.9589  -15.4309   27.4993 C.3     1  UNL1        0.0004
     14 C          -6.5323  -15.0688   27.2100 C.3     1  UNL1        0.0017
     15 C          -6.2409  -15.4352   25.7851 C.3     1  UNL1        0.0208
     16 C          -5.1791  -15.4379   24.7255 C.3     1  UNL1        0.0689
     17 N          -5.7693  -16.0281   23.4792 N.3     1  UNL1       -0.2972
     18 C          -7.1959  -16.3902   23.7685 C.3     1  UNL1        0.0726
     19 H          -5.2479  -16.8627   23.2110 H       1  UNL1        0.1233
@<TRIPOS>BOND
     1     1     2   ar
     2     2     3   ar
     3     3     4   ar
     4     4     5   ar
     5     5     6   ar
     6    11     6    1
     7    11    12    1
     8    12    13    1
     9    13    14    1
    10    15    14    1
    11    15    16    1
    12    16    17    1
    13    17    18    1
    14     6     7   ar
    15     7     8   ar
    16     8     9   ar
    17     9    10   ar
    18    10     1   ar
    19     9     4   ar
    20    15    11    1
    21    18    11    1
    22    17    19    1
@<TRIPOS>MOLECULE
*****
 19 22 0 0 0
SMALL
GASTEIGER

@<TRIPOS>ATOM
      1 C          -6.2468  -15.1734   26.9230 C.ar    1  UNL1       -0.0000
      2 C          -7.3604  -15.9195   27.5960 C.ar    1  UNL1       -0.0000
      3 C          -8.4420  -16.5549   26.7735 C.ar    1  UNL1       -0.0000
      4 C          -8.4099  -16.4441   25.2780 C.ar    1  UNL1       -0.0003
      5 C          -9.4915  -17.0794   24.4554 C.ar    1  UNL1       -0.0042
      6 C          -9.4595  -16.9686   22.9599 C.ar    1  UNL1       -0.0215
      7 C          -8.3458  -16.2223   22.2868 C.ar    1  UNL1       -0.0042
      8 C          -7.2642  -15.5870   23.1093 C.ar    1  UNL1       -0.0003
      9 C          -7.2963  -15.6979   24.6050 C.ar    1  UNL1       -0.0000
     10 C          -6.2147  -15.0625   25.4275 C.ar    1  UNL1       -0.0000
     11 C         -10.5410  -17.6039   22.1374 C.3     1  UNL1        0.0347
     12 C         -11.1235  -16.4023   22.8204 C.3     1  UNL1        0.0054
     13 C         -12.5651  -16.2949   22.4201 C.3     1  UNL1        0.0004
     14 C         -12.8735  -17.4303   21.4896 C.3     1  UNL1        0.0017
     15 C         -11.6226  -18.2393   21.3149 C.3     1  UNL1        0.0208
     16 C         -11.0401  -19.4409   20.6318 C.3     1  UNL1        0.0689
     17 N          -9.5985  -19.5483   21.0321 N.3     1  UNL1       -0.2972
     18 C          -9.2901  -18.4129   21.9626 C.3     1  UNL1        0.0726
     19 H          -9.0042  -19.4893   20.2052 H       1  UNL1        0.1233
@<TRIPOS>BOND
     1     1     2   ar
     2     2     3   ar
     3     3     4   ar
     4     4     5   ar
     5     5     6   ar
     6    11     6    1
     7    11    12    1
     8    12    13    1
     9    13    14    1
    10    15    14    1
    11    15    16    1
    12    16    17    1
    13    17    18    1
    14     6     7   ar
    15     7     8   ar
    16     8     9   ar
    17     9    10   ar
    18    10     1   ar
    19     9     4   ar
    20    15    11    1
    21    18    11    1
    22    17    19    1
@<TRIPOS>MOLECULE
*****
 19 22 0 0 0
SMALL
GASTEIGER

@<TRIPOS>ATOM
      1 C          -2.9275  -19.8594   20.6435 C.ar    1  UNL1       -0.0000
      2 C          -2.8546  -19.1503   21.9633 C.ar    1  UNL1       -0.0000
      3 C          -4.1138  -18.7060   22.6466 C.ar    1  UNL1       -0.0000
      4 C          -5.4460  -18.9707   22.0101 C.ar    1  UNL1       -0.0003
      5 C          -6.7052  -18.5264   22.6933 C.ar    1  UNL1       -0.0042
      6 C          -8.0374  -18.7911   22.0568 C.ar    1  UNL1       -0.0215
      7 C          -8.1104  -19.5003   20.7370 C.ar    1  UNL1       -0.0042
      8 C          -6.8511  -19.9446   20.0537 C.ar    1  UNL1       -0.0003
      9 C          -5.5189  -19.6798   20.6903 C.ar    1  UNL1       -0.0000
     10 C          -4.2597  -20.1242   20.0070 C.ar    1  UNL1       -0.0000
     11 C          -9.2967  -18.3468   22.7401 C.3     1  UNL1        0.0347
     12 C          -9.0279  -19.7668   23.1414 C.3     1  UNL1        0.0054
     13 C         -10.1210  -20.2002   24.0727 C.3     1  UNL1        0.0004
     14 C         -11.0654  -19.0479   24.2469 C.3     1  UNL1        0.0017
     15 C         -10.5559  -17.9025   23.4233 C.3     1  UNL1        0.0208
     16 C         -10.8247  -16.4823   23.0220 C.3     1  UNL1        0.0689
     17 N          -9.7316  -16.0490   22.0907 N.3     1  UNL1       -0.2972
     18 C          -8.7872  -17.2013   21.9165 C.3     1  UNL1        0.0726
     19 H          -9.2349  -15.2513   22.4873 H       1  UNL1        0.1233
@<TRIPOS>BOND
     1     1     2   ar
     2     2     3   ar
     3     3     4   ar
     4     4     5   ar
     5     5     6   ar
     6    11     6    1
     7    11    12    1
     8    12    13    1
     9    13    14    1
    10    15    14    1
    11    15    16    1
    12    16    17    1
    13    17    18    1
    14     6     7   ar
    15     7     8   ar
    16     8     9   ar
    17     9    10   ar
    18    10     1   ar
    19     9     4   ar
    20    15    11    1
    21    18    11    1
    22    17    19    1
@<TRIPOS>MOLECULE
*****
 19 22 0 0 0
SMALL
GASTEIGER

@<TRIPOS>ATOM
      1 C         -10.9883  -18.9379   19.8243 C.ar    1  UNL1       -0.0000
      2 C          -9.6163  -19.5398   19.8969 C.ar    1  UNL1       -0.0000
      3 C          -8.6466  -19.0726   20.9417 C.ar    1  UNL1       -0.0000
      4 C          -9.0490  -18.0035   21.9138 C.ar    1  UNL1       -0.0003
      5 C          -8.0794  -17.5362   22.9586 C.ar    1  UNL1       -0.0042
      6 C          -8.4818  -16.4671   23.9307 C.ar    1  UNL1       -0.0215
      7 C          -9.8538  -15.8652   23.8581 C.ar    1  UNL1       -0.0042
      8 C         -10.8235  -16.3324   22.8133 C.ar    1  UNL1       -0.0003
      9 C         -10.4210  -17.4016   21.8412 C.ar    1  UNL1       -0.0000
     10 C         -11.3906  -17.8688   20.7964 C.ar    1  UNL1       -0.0000
     11 C          -7.5122  -15.9999   24.9755 C.3     1  UNL1        0.0347
     12 C          -8.6762  -16.6367   25.6751 C.3     1  UNL1        0.0054
     13 C          -8.4260  -16.5631   27.1522 C.3     1  UNL1        0.0004
     14 C          -7.1073  -15.8807   27.3655 C.3     1  UNL1        0.0017
     15 C          -6.5425  -15.5327   26.0203 C.3     1  UNL1        0.0208
     16 C          -5.3785  -14.8959   25.3206 C.3     1  UNL1        0.0689
     17 N          -5.6287  -14.9695   23.8435 N.3     1  UNL1       -0.2972
     18 C          -6.9473  -15.6519   23.6302 C.3     1  UNL1        0.0726
     19 H          -4.8857  -15.5036   23.3928 H       1  UNL1        0.1233
@<TRIPOS>BOND
     1     1     2   ar
     2     2     3   ar
     3     3     4   ar
     4     4     5   ar
     5     5     6   ar
     6    11     6    1
     7    11    12    1
     8    12    13    1
     9    13    14    1
    10    15    14    1
    11    15    16    1
    12    16    17    1
    13    17    18    1
    14     6     7   ar
    15     7     8   ar
    16     8     9   ar
    17     9    10   ar
    18    10     1   ar
    19     9     4   ar
    20    15    11    1
    21    18    11    1
    22    17    19    1
@<TRIPOS>MOLECULE
*****
 19 22 0 0 0
SMALL
GASTEIGER

@<TRIPOS>ATOM
      1 C          -3.7537  -17.6263   23.2196 C.ar    1  UNL1       -0.0000
      2 C          -4.2620  -18.7588   22.3777 C.ar    1  UNL1       -0.0000
      3 C          -5.7323  -18.8964   22.1142 C.ar    1  UNL1       -0.0000
      4 C          -6.6942  -17.9014   22.6926 C.ar    1  UNL1       -0.0003
      5 C          -8.1645  -18.0390   22.4291 C.ar    1  UNL1       -0.0042
      6 C          -9.1264  -17.0441   23.0076 C.ar    1  UNL1       -0.0215
      7 C          -8.6181  -15.9114   23.8496 C.ar    1  UNL1       -0.0042
      8 C          -7.1479  -15.7739   24.1131 C.ar    1  UNL1       -0.0003
      9 C          -6.1859  -16.7689   23.5346 C.ar    1  UNL1       -0.0000
     10 C          -4.7157  -16.6313   23.7981 C.ar    1  UNL1       -0.0000
     11 C         -10.5967  -17.1816   22.7440 C.3     1  UNL1        0.0347
     12 C         -10.2722  -17.9651   23.9813 C.3     1  UNL1        0.0054
     13 C         -11.5419  -18.5869   24.4824 C.3     1  UNL1        0.0004
     14 C         -12.6511  -18.1877   23.5549 C.3     1  UNL1        0.0017
     15 C         -12.0669  -17.3192   22.4805 C.3     1  UNL1        0.0208
     16 C         -12.3913  -16.5357   21.2432 C.3     1  UNL1        0.0689
     17 N         -11.1216  -15.9139   20.7420 N.3     1  UNL1       -0.2972
     18 C         -10.0125  -16.3131   21.6696 C.3     1  UNL1        0.0726
     19 H         -11.2146  -14.8982   20.7306 H       1  UNL1        0.1233
@<TRIPOS>BOND
     1     1     2   ar
     2     2     3   ar
     3     3     4   ar
     4     4     5   ar
     5     5     6   ar
     6    11     6    1
     7    11    12    1
     8    12    13    1
     9    13    14    1
    10    15    14    1
    11    15    16    1
    12    16    17    1
    13    17    18    1
    14     6     7   ar
    15     7     8   ar
    16     8     9   ar
    17     9    10   ar
    18    10     1   ar
    19     9     4   ar
    20    15    11    1
    21    18    11    1
    22    17    19    1
@<TRIPOS>MOLECULE
*****
 19 22 0 0 0
SMALL
GASTEIGER

@<TRIPOS>ATOM
      1 C         -12.5871  -17.2804   22.7364 C.ar    1  UNL1       -0.0000
      2 C         -11.8689  -16.1848   22.0059 C.ar    1  UNL1       -0.0000
      3 C         -10.4158  -16.3371   21.6661 C.ar    1  UNL1       -0.0000
      4 C          -9.6810  -17.5850   22.0567 C.ar    1  UNL1       -0.0003
      5 C          -8.2280  -17.7373   21.7169 C.ar    1  UNL1       -0.0042
      6 C          -7.4932  -18.9853   22.1076 C.ar    1  UNL1       -0.0215
      7 C          -8.2114  -20.0810   22.8381 C.ar    1  UNL1       -0.0042
      8 C          -9.6645  -19.9287   23.1779 C.ar    1  UNL1       -0.0003
      9 C         -10.3993  -18.6807   22.7872 C.ar    1  UNL1       -0.0000
     10 C         -11.8523  -18.5284   23.1270 C.ar    1  UNL1       -0.0000
     11 C          -6.0402  -19.1376   21.7678 C.3     1  UNL1        0.0347
     12 C          -6.8068  -20.1732   20.9999 C.3     1  UNL1        0.0054
     13 C          -5.8276  -20.9656   20.1855 C.3     1  UNL1        0.0004
     14 C          -4.4557  -20.4196   20.4501 C.3     1  UNL1        0.0017
     15 C          -4.5871  -19.2899   21.4280 C.3     1  UNL1        0.0208
     16 C          -3.8205  -18.2542   22.1959 C.3     1  UNL1        0.0689
     17 N          -4.7997  -17.4618   23.0103 N.3     1  UNL1       -0.2972
     18 C          -6.1715  -18.0078   22.7457 C.3     1  UNL1        0.0726
     19 H          -4.7600  -16.4792   22.7395 H       1  UNL1        0.1233
@<TRIPOS>BOND
     1     1     2   ar
     2     2     3   ar
     3     3     4   ar
     4     4     5   ar
     5     5     6   ar
     6    11     6    1
     7    11    12    1
     8    12    13    1
     9    13    14    1
    10    15    14    1
    11    15    16    1
    12    16    17    1
    13    17    18    1
    14     6     7   ar
    15     7     8   ar
    16     8     9   ar
    17     9    10   ar
    18    10     1   ar
    19     9     4   ar
    20    15    11    1
    21    18    11    1
    22    17    19    1
@<TRIPOS>MOLECULE
*****
 19 22 0 0 0
SMALL
GASTEIGER

@<TRIPOS>ATOM
      1 C         -13.4974  -17.8308   23.1036 C.ar    1  UNL1       -0.0000
      2 C         -12.9173  -18.5577   24.2805 C.ar    1  UNL1       -0.0000
      3 C         -11.4478  -18.4676   24.5676 C.ar    1  UNL1       -0.0000
      4 C         -10.5584  -17.6506   23.6779 C.ar    1  UNL1       -0.0003
      5 C          -9.0889  -17.5605   23.9651 C.ar    1  UNL1       -0.0042
      6 C          -8.1996  -16.7436   23.0754 C.ar    1  UNL1       -0.0215
      7 C          -8.7797  -16.0167   21.8985 C.ar    1  UNL1       -0.0042
      8 C         -10.2492  -16.1068   21.6113 C.ar    1  UNL1       -0.0003
      9 C         -11.1386  -16.9238   22.5011 C.ar    1  UNL1       -0.0000
     10 C         -12.6081  -17.0139   22.2139 C.ar    1  UNL1       -0.0000
     11 C          -6.7301  -16.6535   23.3626 C.3     1  UNL1        0.0347
     12 C          -6.9694  -17.8950   22.5557 C.3     1  UNL1        0.0054
     13 C          -5.6478  -18.5723   22.3441 C.3     1  UNL1        0.0004
     14 C          -4.5918  -17.7492   23.0203 C.3     1  UNL1        0.0017
     15 C          -5.2606  -16.5634   23.6498 C.3     1  UNL1        0.0208
     16 C          -5.0213  -15.3218   24.4567 C.3     1  UNL1        0.0689
     17 N          -6.3429  -14.6445   24.6682 N.3     1  UNL1       -0.2972
     18 C          -7.3989  -15.4675   23.9920 C.3     1  UNL1        0.0726
     19 H          -6.3210  -13.7087   24.2630 H       1  UNL1        0.1233
@<TRIPOS>BOND
     1     1     2   ar
     2     2     3   ar
     3     3     4   ar
     4     4     5   ar
     5     5     6   ar
     6    11     6    1
     7    11    12    1
     8    12    13    1
     9    13    14    1
    10    15    14    1
    11    15    16    1
    12    16    17    1
    13    17    18    1
    14     6     7   ar
    15     7     8   ar
    16     8     9   ar
    17     9    10   ar
    18    10     1   ar
    19     9     4   ar
    20    15    11    1
    21    18    11    1
    22    17    19    1
@<TRIPOS>MOLECULE
*****
 19 22 0 0 0
SMALL
GASTEIGER

@<TRIPOS>ATOM
      1 C          -3.6736  -17.4852   23.0229 C.ar    1  UNL1       -0.0000
      2 C          -4.2035  -18.6588   22.2537 C.ar    1  UNL1       -0.0000
      3 C          -5.6837  -18.8692   22.1320 C.ar    1  UNL1       -0.0000
      4 C          -6.6339  -17.9060   22.7794 C.ar    1  UNL1       -0.0003
      5 C          -8.1141  -18.1164   22.6577 C.ar    1  UNL1       -0.0042
      6 C          -9.0643  -17.1532   23.3052 C.ar    1  UNL1       -0.0215
      7 C          -8.5344  -15.9795   24.0744 C.ar    1  UNL1       -0.0042
      8 C          -7.0542  -15.7691   24.1961 C.ar    1  UNL1       -0.0003
      9 C          -6.1040  -16.7324   23.5486 C.ar    1  UNL1       -0.0000
     10 C          -4.6238  -16.5220   23.6704 C.ar    1  UNL1       -0.0000
     11 C         -10.5445  -17.3636   23.1834 C.3     1  UNL1        0.0347
     12 C         -10.1172  -16.4317   22.0885 C.3     1  UNL1        0.0054
     13 C         -11.3333  -16.0661   21.2901 C.3     1  UNL1        0.0004
     14 C         -12.5121  -16.7722   21.8916 C.3     1  UNL1        0.0017
     15 C         -12.0247  -17.5740   23.0617 C.3     1  UNL1        0.0208
     16 C         -12.4520  -18.5060   24.1566 C.3     1  UNL1        0.0689
     17 N         -11.2359  -18.8716   24.9551 N.3     1  UNL1       -0.2972
     18 C         -10.0570  -18.1655   24.3536 C.3     1  UNL1        0.0726
     19 H         -11.0897  -19.8804   24.9207 H       1  UNL1        0.1233
@<TRIPOS>BOND
     1     1     2   ar
     2     2     3   ar
     3     3     4   ar
     4     4     5   ar
     5     5     6   ar
     6    11     6    1
     7    11    12    1
     8    12    13    1
     9    13    14    1
    10    15    14    1
    11    15    16    1
    12    16    17    1
    13    17    18    1
    14     6     7   ar
    15     7     8   ar
    16     8     9   ar
    17     9    10   ar
    18    10     1   ar
    19     9     4   ar
    20    15    11    1
    21    18    11    1
    22    17    19    1
@<TRIPOS>MOLECULE
*****
 19 22 0 0 0
SMALL
GASTEIGER

@<TRIPOS>ATOM
      1 C          -6.6041  -15.4436   27.2466 C.ar    1  UNL1       -0.0000
      2 C          -5.8967  -14.9394   26.0238 C.ar    1  UNL1       -0.0000
      3 C          -6.4249  -15.2739   24.6603 C.ar    1  UNL1       -0.0000
      4 C          -7.6606  -16.1125   24.5197 C.ar    1  UNL1       -0.0003
      5 C          -8.1888  -16.4470   23.1562 C.ar    1  UNL1       -0.0042
      6 C          -9.4245  -17.2855   23.0155 C.ar    1  UNL1       -0.0215
      7 C         -10.1320  -17.7897   24.2383 C.ar    1  UNL1       -0.0042
      8 C          -9.6038  -17.4552   25.6018 C.ar    1  UNL1       -0.0003
      9 C          -8.3680  -16.6166   25.7425 C.ar    1  UNL1       -0.0000
     10 C          -7.8398  -16.2821   27.1060 C.ar    1  UNL1       -0.0000
     11 C          -9.9527  -17.6200   21.6520 C.3     1  UNL1        0.0347
     12 C          -8.8168  -18.5529   21.9507 C.3     1  UNL1        0.0054
     13 C          -8.6430  -19.4640   20.7718 C.3     1  UNL1        0.0004
     14 C          -9.6715  -19.0941   19.7446 C.3     1  UNL1        0.0017
     15 C         -10.4809  -17.9545   20.2885 C.3     1  UNL1        0.0208
     16 C         -11.6169  -17.0215   19.9898 C.3     1  UNL1        0.0689
     17 N         -11.7907  -16.1104   21.1687 N.3     1  UNL1       -0.2972
     18 C         -10.7622  -16.4803   22.1959 C.3     1  UNL1        0.0726
     19 H         -12.7262  -16.2240   21.5589 H       1  UNL1        0.1233
@<TRIPOS>BOND
     1     1     2   ar
     2     2     3   ar
     3     3     4   ar
     4     4     5   ar
     5     5     6   ar
     6    11     6    1
     7    11    12    1
     8    12    13    1
     9    13    14    1
    10    15    14    1
    11    15    16    1
    12    16    17    1
    13    17    18    1
    14     6     7   ar
    15     7     8   ar
    16     8     9   ar
    17     9    10   ar
    18    10     1   ar
    19     9     4   ar
    20    15    11    1
    21    18    11    1
    22    17    19    1
