@<TRIPOS>MOLECULE
*****
 40 43 0 0 0
SMALL
GASTEIGER

@<TRIPOS>ATOM
      1 C           3.1812   -1.5052   20.4147 C.ar    1  UNL1        0.0203
      2 C           3.5997   -2.4310   19.3112 C.ar    1  UNL1        0.0310
      3 C           4.3851   -3.6690   19.6282 C.ar    1  UNL1        0.1414
      4 F           4.8037   -4.5948   18.5247 F       1  UNL1       -0.2041
      5 C           4.7519   -3.9813   21.0488 C.ar    1  UNL1        0.0440
      6 C           4.3333   -3.0555   22.1523 C.ar    1  UNL1        0.0488
      7 C           3.5479   -1.8174   21.8352 C.ar    1  UNL1       -0.0067
      8 C           3.1293   -0.8917   22.9387 C.3     1  UNL1        0.0324
      9 C           3.0828    0.9238   19.4979 C.ar    1  UNL1        0.1870
     10 C           2.2974    2.1617   19.1808 C.ar    1  UNL1        0.1629
     11 N           2.9844    3.3527   18.5811 N.pl3   1  UNL1       -0.3401
     12 N           0.8251    2.2088   19.4634 N.ar    1  UNL1       -0.2063
     13 C           0.1380    1.0179   20.0631 C.ar    1  UNL1        0.2002
     14 N           0.9234   -0.2201   20.3802 N.ar    1  UNL1       -0.2208
     15 C           2.3958   -0.2672   20.0976 C.ar    1  UNL1        0.1194
     16 H           3.9508    3.3219   18.3956 H       1  UNL1        0.1438
     17 H           2.4690    4.1653   18.3730 H       1  UNL1        0.1438
     18 O           4.5552    0.8767   19.2152 O.3     1  UNL1       -0.4693
     19 C           5.0433    0.6180   17.8207 C.3     1  UNL1        0.2270
     20 C           6.5144    0.6241   17.5278 C.3     1  UNL1        0.1410
     21 C           7.5756   -1.6053   18.3361 C.2     1  UNL1        0.2493
     22 O           6.7428   -2.3615   17.3438 O.2     1  UNL1       -0.2699
     23 N           7.4615   -0.1126   18.4281 N.am    1  UNL1       -0.2705
     24 C           8.2943    0.6436   19.4203 C.3     1  UNL1        0.1153
     25 C           8.0101   -3.0134   20.4759 C.2     1  UNL1        0.0048
     26 C           8.5227   -2.3420   19.2364 C.2     1  UNL1        0.0580
     27 N           4.7000   -3.3677   23.5728 N.am    1  UNL1       -0.2805
     28 C           5.8843   -2.6994   24.2058 C.2     1  UNL1        0.2517
     29 O           6.7019   -1.7189   23.4183 O.2     1  UNL1       -0.2697
     30 H           4.1634   -4.0113   24.0897 H       1  UNL1        0.1552
     31 C           6.2511   -3.0116   25.6265 C.ar    1  UNL1        0.0810
     32 C           5.9852   -2.0068   26.7079 C.ar    1  UNL1        0.0065
     33 C           6.3520   -2.3190   28.1284 C.ar    1  UNL1       -0.0040
     34 C           6.9848   -3.6361   28.4675 C.ar    1  UNL1       -0.0203
     35 C           7.2507   -4.6409   27.3861 C.ar    1  UNL1        0.0255
     36 C           6.8839   -4.3287   25.9656 C.ar    1  UNL1        0.1441
     37 F           7.1498   -5.3336   24.8840 F       1  UNL1       -0.2040
     38 C           7.3516   -3.9483   29.8881 C.3     1  UNL1        0.0224
     39 C           8.3451   -4.4524   30.8924 C.3     1  UNL1        0.0047
     40 C           6.9934   -3.9848   31.3443 C.3     1  UNL1        0.0047
@<TRIPOS>BOND
     1    25    26    2
     2    26    21    1
     3    21    22    2
     4    21    23   am
     5    23    24    1
     6    23    20    1
     7    20    19    1
     8    19    18    1
     9    18     9    1
    10     9    10   ar
    11    10    11    1
    12    10    12   ar
    13    12    13   ar
    14    13    14   ar
    15    14    15   ar
    16    15     1    1
    17     1     2   ar
    18     2     3   ar
    19     3     4    1
    20     3     5   ar
    21     5     6   ar
    22     6    27    1
    23    27    28   am
    24    28    29    2
    25    28    31    1
    26    31    32   ar
    27    32    33   ar
    28    33    34   ar
    29    34    38    1
    30    38    39    1
    31    39    40    1
    32    34    35   ar
    33    35    36   ar
    34    36    37    1
    35     6     7   ar
    36     7     8    1
    37    15     9   ar
    38     7     1   ar
    39    36    31   ar
    40    40    38    1
    41    11    16    1
    42    11    17    1
    43    27    30    1
@<TRIPOS>MOLECULE
*****
 40 43 0 0 0
SMALL
GASTEIGER

@<TRIPOS>ATOM
      1 C           1.3203    3.7901   27.0395 C.ar    1  UNL1        0.0203
      2 C          -0.1429    3.7760   27.3698 C.ar    1  UNL1        0.0310
      3 C          -1.0308    2.7115   26.7968 C.ar    1  UNL1        0.1414
      4 F          -2.4939    2.6974   27.1271 F       1  UNL1       -0.2041
      5 C          -0.4557    1.6611   25.8934 C.ar    1  UNL1        0.0440
      6 C           1.0074    1.6753   25.5631 C.ar    1  UNL1        0.0488
      7 C           1.8954    2.7398   26.1362 C.ar    1  UNL1       -0.0067
      8 C           3.3585    2.7540   25.8059 C.3     1  UNL1        0.0324
      9 C           2.8689    4.6444   28.9426 C.ar    1  UNL1        0.1870
     10 C           3.7568    5.7089   29.5156 C.ar    1  UNL1        0.1629
     11 N           4.4175    5.4987   30.8458 N.pl3   1  UNL1       -0.3401
     12 N           3.9841    6.9837   28.7584 N.ar    1  UNL1       -0.2063
     13 C           3.3234    7.1940   27.4283 C.ar    1  UNL1        0.2002
     14 N           2.4355    6.1295   26.8553 N.ar    1  UNL1       -0.2208
     15 C           2.2082    4.8547   27.6125 C.ar    1  UNL1        0.1194
     16 H           4.2684    4.6620   31.3427 H       1  UNL1        0.1438
     17 H           5.0003    6.1974   31.2219 H       1  UNL1        0.1438
     18 O           2.6416    3.3696   29.6998 O.3     1  UNL1       -0.4693
     19 C           3.6802    2.2877   29.6757 C.3     1  UNL1        0.2270
     20 C           3.2977    0.8735   29.9979 C.3     1  UNL1        0.1410
     21 C           0.7837    0.3756   29.5713 C.2     1  UNL1        0.2493
     22 O           0.4134    1.2505   30.7321 O.2     1  UNL1       -0.2699
     23 N           2.2258    0.1871   29.2042 N.am    1  UNL1       -0.2705
     24 C           2.5961   -0.6879   28.0435 C.3     1  UNL1        0.1153
     25 C          -1.7308   -0.1140   29.1381 C.2     1  UNL1        0.0048
     26 C          -0.2882   -0.3109   28.7776 C.2     1  UNL1        0.0580
     27 N           1.5826    0.6249   24.6598 N.am    1  UNL1       -0.2805
     28 C           1.7477    0.9039   23.1953 C.2     1  UNL1        0.2517
     29 O           1.3376    2.2331   22.6341 O.2     1  UNL1       -0.2697
     30 H           1.8517   -0.2475   25.0282 H       1  UNL1        0.1552
     31 C           2.3228   -0.1465   22.2919 C.ar    1  UNL1        0.0810
     32 C           3.4881   -0.9729   22.7493 C.ar    1  UNL1        0.0065
     33 C           4.0632   -2.0231   21.8459 C.ar    1  UNL1       -0.0040
     34 C           3.4730   -2.2470   20.4852 C.ar    1  UNL1       -0.0203
     35 C           2.3078   -1.4207   20.0278 C.ar    1  UNL1        0.0255
     36 C           1.7327   -0.3704   20.9312 C.ar    1  UNL1        0.1441
     37 F           0.5673    0.4561   20.4738 F       1  UNL1       -0.2040
     38 C           4.0482   -3.2974   19.5818 C.3     1  UNL1        0.0224
     39 C           4.0400   -4.7001   19.0505 C.3     1  UNL1        0.0047
     40 C           5.0526   -3.7139   18.5485 C.3     1  UNL1        0.0047
@<TRIPOS>BOND
     1    25    26    2
     2    26    21    1
     3    21    22    2
     4    21    23   am
     5    23    24    1
     6    23    20    1
     7    20    19    1
     8    19    18    1
     9    18     9    1
    10     9    10   ar
    11    10    11    1
    12    10    12   ar
    13    12    13   ar
    14    13    14   ar
    15    14    15   ar
    16    15     1    1
    17     1     2   ar
    18     2     3   ar
    19     3     4    1
    20     3     5   ar
    21     5     6   ar
    22     6    27    1
    23    27    28   am
    24    28    29    2
    25    28    31    1
    26    31    32   ar
    27    32    33   ar
    28    33    34   ar
    29    34    38    1
    30    38    39    1
    31    39    40    1
    32    34    35   ar
    33    35    36   ar
    34    36    37    1
    35     6     7   ar
    36     7     8    1
    37    15     9   ar
    38     7     1   ar
    39    36    31   ar
    40    40    38    1
    41    11    16    1
    42    11    17    1
    43    27    30    1
@<TRIPOS>MOLECULE
*****
 40 43 0 0 0
SMALL
GASTEIGER

@<TRIPOS>ATOM
      1 C           4.8441   -1.7843   22.1508 C.ar    1  UNL1        0.0203
      2 C           5.8775   -2.0988   23.1916 C.ar    1  UNL1        0.0310
      3 C           5.6118   -1.7789   24.6328 C.ar    1  UNL1        0.1414
      4 F           6.6451   -2.0934   25.6737 F       1  UNL1       -0.2041
      5 C           4.3127   -1.1446   25.0332 C.ar    1  UNL1        0.0440
      6 C           3.2794   -0.8302   23.9923 C.ar    1  UNL1        0.0488
      7 C           3.5452   -1.1501   22.5511 C.ar    1  UNL1       -0.0067
      8 C           2.5119   -0.8356   21.5102 C.3     1  UNL1        0.0324
      9 C           5.8456   -1.1223   19.8466 C.ar    1  UNL1        0.1870
     10 C           6.1113   -1.4422   18.4055 C.ar    1  UNL1        0.1629
     11 N           6.8471   -0.4603   17.5425 N.pl3   1  UNL1       -0.3401
     12 N           5.6413   -2.7440   17.8272 N.ar    1  UNL1       -0.2063
     13 C           4.9055   -3.7259   18.6900 C.ar    1  UNL1        0.2002
     14 N           4.6399   -3.4060   20.1312 N.ar    1  UNL1       -0.2208
     15 C           5.1099   -2.1042   20.7095 C.ar    1  UNL1        0.1194
     16 H           7.1556    0.3941   17.9221 H       1  UNL1        0.1438
     17 H           7.0214   -0.6703   16.5966 H       1  UNL1        0.1438
     18 O           6.3156    0.1794   20.4249 O.3     1  UNL1       -0.4693
     19 C           5.3896    1.3586   20.4686 C.3     1  UNL1        0.2270
     20 C           4.7493    1.8566   19.2069 C.3     1  UNL1        0.1410
     21 C           2.2218    2.3580   19.5391 C.2     1  UNL1        0.2493
     22 O           2.5678    3.4993   20.4490 O.2     1  UNL1       -0.2699
     23 N           3.3125    1.5367   18.9181 N.am    1  UNL1       -0.2705
     24 C           2.9665    0.3954   18.0083 C.3     1  UNL1        0.1153
     25 C          -0.1267    1.6118   20.3626 C.2     1  UNL1        0.0048
     26 C           0.7850    2.0381   19.2504 C.2     1  UNL1        0.0580
     27 N           1.9805   -0.1959   24.3926 N.am    1  UNL1       -0.2805
     28 C           1.8661    1.2980   24.4647 C.2     1  UNL1        0.2517
     29 O           3.0507    2.1576   24.1364 O.2     1  UNL1       -0.2697
     30 H           1.2030   -0.7601   24.6081 H       1  UNL1        0.1552
     31 C           0.5671    1.9323   24.8650 C.ar    1  UNL1        0.0810
     32 C          -0.1871    2.7803   23.8842 C.ar    1  UNL1        0.0065
     33 C          -1.4861    3.4146   24.2846 C.ar    1  UNL1       -0.0040
     34 C          -2.0308    3.2009   25.6657 C.ar    1  UNL1       -0.0203
     35 C          -1.2766    2.3529   26.6465 C.ar    1  UNL1        0.0255
     36 C           0.0224    1.7186   26.2462 C.ar    1  UNL1        0.1441
     37 F           0.7766    0.8706   27.2270 F       1  UNL1       -0.2040
     38 C          -3.3299    3.8353   26.0661 C.3     1  UNL1        0.0224
     39 C          -4.1102    4.7312   26.9817 C.3     1  UNL1        0.0047
     40 C          -4.7994    4.0381   25.8439 C.3     1  UNL1        0.0047
@<TRIPOS>BOND
     1    25    26    2
     2    26    21    1
     3    21    22    2
     4    21    23   am
     5    23    24    1
     6    23    20    1
     7    20    19    1
     8    19    18    1
     9    18     9    1
    10     9    10   ar
    11    10    11    1
    12    10    12   ar
    13    12    13   ar
    14    13    14   ar
    15    14    15   ar
    16    15     1    1
    17     1     2   ar
    18     2     3   ar
    19     3     4    1
    20     3     5   ar
    21     5     6   ar
    22     6    27    1
    23    27    28   am
    24    28    29    2
    25    28    31    1
    26    31    32   ar
    27    32    33   ar
    28    33    34   ar
    29    34    38    1
    30    38    39    1
    31    39    40    1
    32    34    35   ar
    33    35    36   ar
    34    36    37    1
    35     6     7   ar
    36     7     8    1
    37    15     9   ar
    38     7     1   ar
    39    36    31   ar
    40    40    38    1
    41    11    16    1
    42    11    17    1
    43    27    30    1
@<TRIPOS>MOLECULE
*****
 40 43 0 0 0
SMALL
GASTEIGER

@<TRIPOS>ATOM
      1 C           1.5257    2.7597   27.9733 C.ar    1  UNL1        0.0203
      2 C           0.0864    3.1819   27.9615 C.ar    1  UNL1        0.0310
      3 C          -0.8536    2.6134   26.9402 C.ar    1  UNL1        0.1414
      4 F          -2.2929    3.0356   26.9283 F       1  UNL1       -0.2041
      5 C          -0.3543    1.6226   25.9306 C.ar    1  UNL1        0.0440
      6 C           1.0850    1.2004   25.9424 C.ar    1  UNL1        0.0488
      7 C           2.0250    1.7690   26.9638 C.ar    1  UNL1       -0.0067
      8 C           3.4643    1.3467   26.9757 C.3     1  UNL1        0.0324
      9 C           2.6609    2.6276   30.3066 C.ar    1  UNL1        0.1870
     10 C           3.6009    3.1961   31.3279 C.ar    1  UNL1        0.1629
     11 N           3.7961    2.4955   32.6398 N.pl3   1  UNL1       -0.3401
     12 N           4.3457    4.4654   31.0374 N.ar    1  UNL1       -0.2063
     13 C           4.1505    5.1660   29.7255 C.ar    1  UNL1        0.2002
     14 N           3.2105    4.5974   28.7042 N.ar    1  UNL1       -0.2208
     15 C           2.4657    3.3282   28.9947 C.ar    1  UNL1        0.1194
     16 H           3.3073    1.6625   32.8305 H       1  UNL1        0.1438
     17 H           4.4131    2.8687   33.3101 H       1  UNL1        0.1438
     18 O           1.9161    1.3584   30.5971 O.3     1  UNL1       -0.4693
     19 C           2.5353    0.0329   30.2660 C.3     1  UNL1        0.2270
     20 C           3.0071   -0.8704   31.3667 C.3     1  UNL1        0.1410
     21 C           4.9021   -2.2565   32.4793 C.2     1  UNL1        0.2493
     22 O           3.9151   -2.8201   33.4582 O.2     1  UNL1       -0.2699
     23 N           4.4481   -1.2817   31.4336 N.am    1  UNL1       -0.2705
     24 C           5.4351   -0.7182   30.4546 C.3     1  UNL1        0.1153
     25 C           6.7822   -3.9643   31.9326 C.2     1  UNL1        0.0048
     26 C           6.3431   -2.6679   32.5461 C.2     1  UNL1        0.0580
     27 N           1.5843    0.2097   24.9329 N.am    1  UNL1       -0.2805
     28 C           2.1247    0.6869   23.6176 C.2     1  UNL1        0.2517
     29 O           2.1659    2.1548   23.3118 O.2     1  UNL1       -0.2697
     30 H           1.5573   -0.7538   25.1337 H       1  UNL1        0.1552
     31 C           2.6240   -0.3039   22.6080 C.ar    1  UNL1        0.0810
     32 C           2.0658   -0.3021   21.2158 C.ar    1  UNL1        0.0065
     33 C           2.5651   -1.2928   20.2063 C.ar    1  UNL1       -0.0040
     34 C           3.6227   -2.2853   20.5890 C.ar    1  UNL1       -0.0203
     35 C           4.1810   -2.2870   21.9812 C.ar    1  UNL1        0.0255
     36 C           3.6817   -1.2963   22.9907 C.ar    1  UNL1        0.1441
     37 F           4.2399   -1.2981   24.3830 F       1  UNL1       -0.2040
     38 C           4.1220   -3.2760   19.5795 C.3     1  UNL1        0.0224
     39 C           4.0608   -4.6394   18.9570 C.3     1  UNL1        0.0047
     40 C           5.0481   -3.6286   18.4533 C.3     1  UNL1        0.0047
@<TRIPOS>BOND
     1    25    26    2
     2    26    21    1
     3    21    22    2
     4    21    23   am
     5    23    24    1
     6    23    20    1
     7    20    19    1
     8    19    18    1
     9    18     9    1
    10     9    10   ar
    11    10    11    1
    12    10    12   ar
    13    12    13   ar
    14    13    14   ar
    15    14    15   ar
    16    15     1    1
    17     1     2   ar
    18     2     3   ar
    19     3     4    1
    20     3     5   ar
    21     5     6   ar
    22     6    27    1
    23    27    28   am
    24    28    29    2
    25    28    31    1
    26    31    32   ar
    27    32    33   ar
    28    33    34   ar
    29    34    38    1
    30    38    39    1
    31    39    40    1
    32    34    35   ar
    33    35    36   ar
    34    36    37    1
    35     6     7   ar
    36     7     8    1
    37    15     9   ar
    38     7     1   ar
    39    36    31   ar
    40    40    38    1
    41    11    16    1
    42    11    17    1
    43    27    30    1
@<TRIPOS>MOLECULE
*****
 40 43 0 0 0
SMALL
GASTEIGER

@<TRIPOS>ATOM
      1 C          -3.2953    5.2255   22.4889 C.ar    1  UNL1        0.0203
      2 C          -2.6408    6.1903   23.4327 C.ar    1  UNL1        0.0310
      3 C          -1.1762    6.0693   23.7328 C.ar    1  UNL1        0.1414
      4 F          -0.5217    7.0341   24.6766 F       1  UNL1       -0.2041
      5 C          -0.3659    4.9834   23.0890 C.ar    1  UNL1        0.0440
      6 C          -1.0203    4.0186   22.1451 C.ar    1  UNL1        0.0488
      7 C          -2.4851    4.1397   21.8451 C.ar    1  UNL1       -0.0067
      8 C          -3.1395    3.1748   20.9012 C.3     1  UNL1        0.0324
      9 C          -5.7616    4.6176   23.0346 C.ar    1  UNL1        0.1870
     10 C          -7.2262    4.7387   22.7345 C.ar    1  UNL1        0.1629
     11 N          -8.2279    4.0097   23.5804 N.pl3   1  UNL1       -0.3401
     12 N          -7.6893    5.5887   21.5887 N.ar    1  UNL1       -0.2063
     13 C          -6.6877    6.3177   20.7429 C.ar    1  UNL1        0.2002
     14 N          -5.2231    6.1966   21.0429 N.ar    1  UNL1       -0.2208
     15 C          -4.7600    5.3465   22.1888 C.ar    1  UNL1        0.1194
     16 H          -7.9240    3.4518   24.3324 H       1  UNL1        0.1438
     17 H          -9.1892    4.0892   23.3834 H       1  UNL1        0.1438
     18 O          -5.2985    3.7676   24.1805 O.3     1  UNL1       -0.4693
     19 C          -5.1928    4.3561   25.5561 C.3     1  UNL1        0.2270
     20 C          -4.1456    3.8570   26.5070 C.3     1  UNL1        0.1410
     21 C          -1.5908    4.1213   26.8985 C.2     1  UNL1        0.2493
     22 O          -1.3968    2.6604   26.6186 O.2     1  UNL1       -0.2699
     23 N          -2.9651    4.7195   26.8428 N.am    1  UNL1       -0.2705
     24 C          -3.1592    6.1804   27.1227 C.3     1  UNL1        0.1153
     25 C           0.9792    4.4301   27.1222 C.2     1  UNL1        0.0048
     26 C          -0.4104    4.9838   27.2343 C.2     1  UNL1        0.0580
     27 N          -0.2101    2.9328   21.5014 N.am    1  UNL1       -0.2805
     28 C           0.3306    1.8074   22.3327 C.2     1  UNL1        0.2517
     29 O           0.0611    1.7678   23.8077 O.2     1  UNL1       -0.2697
     30 H          -0.0332    2.9587   20.5332 H       1  UNL1        0.1552
     31 C           1.1409    0.7215   21.6889 C.ar    1  UNL1        0.0810
     32 C           0.6493    0.0624   20.4344 C.ar    1  UNL1        0.0065
     33 C           1.4595   -1.0235   19.7907 C.ar    1  UNL1       -0.0040
     34 C           2.7614   -1.4502   20.4015 C.ar    1  UNL1       -0.0203
     35 C           3.2530   -0.7911   21.6560 C.ar    1  UNL1        0.0255
     36 C           2.4427    0.2947   22.2997 C.ar    1  UNL1        0.1441
     37 F           2.9343    0.9539   23.5543 F       1  UNL1       -0.2040
     38 C           3.5716   -2.5361   19.7577 C.3     1  UNL1        0.0224
     39 C           4.8225   -2.9848   19.0621 C.3     1  UNL1        0.0047
     40 C           3.7241   -3.9682   19.3383 C.3     1  UNL1        0.0047
@<TRIPOS>BOND
     1    25    26    2
     2    26    21    1
     3    21    22    2
     4    21    23   am
     5    23    24    1
     6    23    20    1
     7    20    19    1
     8    19    18    1
     9    18     9    1
    10     9    10   ar
    11    10    11    1
    12    10    12   ar
    13    12    13   ar
    14    13    14   ar
    15    14    15   ar
    16    15     1    1
    17     1     2   ar
    18     2     3   ar
    19     3     4    1
    20     3     5   ar
    21     5     6   ar
    22     6    27    1
    23    27    28   am
    24    28    29    2
    25    28    31    1
    26    31    32   ar
    27    32    33   ar
    28    33    34   ar
    29    34    38    1
    30    38    39    1
    31    39    40    1
    32    34    35   ar
    33    35    36   ar
    34    36    37    1
    35     6     7   ar
    36     7     8    1
    37    15     9   ar
    38     7     1   ar
    39    36    31   ar
    40    40    38    1
    41    11    16    1
    42    11    17    1
    43    27    30    1
@<TRIPOS>MOLECULE
*****
 40 43 0 0 0
SMALL
GASTEIGER

@<TRIPOS>ATOM
      1 C          -9.7423  -19.4732   21.1648 C.ar    1  UNL1        0.0203
      2 C         -10.3628  -20.0242   19.9152 C.ar    1  UNL1        0.0310
      3 C          -9.5617  -20.0967   18.6491 C.ar    1  UNL1        0.1414
      4 F         -10.1822  -20.6477   17.3995 F       1  UNL1       -0.2041
      5 C          -8.1402  -19.6182   18.6326 C.ar    1  UNL1        0.0440
      6 C          -7.5197  -19.0673   19.8821 C.ar    1  UNL1        0.0488
      7 C          -8.3208  -18.9948   21.1483 C.ar    1  UNL1       -0.0067
      8 C          -7.7004  -18.4438   22.3978 C.3     1  UNL1        0.0324
      9 C         -11.7716  -18.5419   22.4932 C.ar    1  UNL1        0.1870
     10 C         -12.5727  -18.4694   23.7593 C.ar    1  UNL1        0.1629
     11 N         -13.8009  -17.6106   23.8216 N.pl3   1  UNL1       -0.3401
     12 N         -12.1456  -19.2558   24.9631 N.ar    1  UNL1       -0.2063
     13 C         -10.9174  -20.1147   24.9008 C.ar    1  UNL1        0.2002
     14 N         -10.1163  -20.1872   23.6347 N.ar    1  UNL1       -0.2208
     15 C         -10.5435  -19.4008   22.4309 C.ar    1  UNL1        0.1194
     16 H         -14.0813  -17.0944   23.0315 H       1  UNL1        0.1438
     17 H         -14.3267  -17.5630   24.6526 H       1  UNL1        0.1438
     18 O         -12.1987  -17.7555   21.2894 O.3     1  UNL1       -0.4693
     19 C         -11.8443  -16.3022   21.1784 C.3     1  UNL1        0.2270
     20 C         -10.4051  -15.8839   21.1161 C.3     1  UNL1        0.1410
     21 C          -8.2561  -15.0805   22.3353 C.2     1  UNL1        0.2493
     22 O          -7.6709  -14.6528   21.0220 O.2     1  UNL1       -0.2699
     23 N          -9.6231  -15.6961   22.3823 N.am    1  UNL1       -0.2705
     24 C         -10.2083  -16.1238   23.6956 C.3     1  UNL1        0.1153
     25 C          -6.0715  -15.4148   23.7013 C.2     1  UNL1        0.0048
     26 C          -7.4741  -14.8927   23.6015 C.2     1  UNL1        0.0580
     27 N          -6.0982  -18.5888   19.8656 N.am    1  UNL1       -0.2805
     28 C          -4.9980  -19.4898   20.3428 C.2     1  UNL1        0.2517
     29 O          -5.3193  -20.8693   20.8364 O.2     1  UNL1       -0.2697
     30 H          -5.8873  -17.6834   19.5416 H       1  UNL1        0.1552
     31 C          -3.5764  -19.0113   20.3263 C.ar    1  UNL1        0.0810
     32 C          -2.9210  -18.6523   19.0257 C.ar    1  UNL1        0.0065
     33 C          -1.4994  -18.1738   19.0093 C.ar    1  UNL1       -0.0040
     34 C          -0.7334  -18.0545   20.2934 C.ar    1  UNL1       -0.0203
     35 C          -1.3888  -18.4135   21.5939 C.ar    1  UNL1        0.0255
     36 C          -2.8103  -18.8920   21.6104 C.ar    1  UNL1        0.1441
     37 F          -3.4658  -19.2511   22.9109 F       1  UNL1       -0.2040
     38 C           0.6882  -17.5760   20.2769 C.3     1  UNL1        0.0224
     39 C           1.7506  -16.6792   19.7137 C.3     1  UNL1        0.0047
     40 C           2.0881  -17.6441   20.8115 C.3     1  UNL1        0.0047
@<TRIPOS>BOND
     1    25    26    2
     2    26    21    1
     3    21    22    2
     4    21    23   am
     5    23    24    1
     6    23    20    1
     7    20    19    1
     8    19    18    1
     9    18     9    1
    10     9    10   ar
    11    10    11    1
    12    10    12   ar
    13    12    13   ar
    14    13    14   ar
    15    14    15   ar
    16    15     1    1
    17     1     2   ar
    18     2     3   ar
    19     3     4    1
    20     3     5   ar
    21     5     6   ar
    22     6    27    1
    23    27    28   am
    24    28    29    2
    25    28    31    1
    26    31    32   ar
    27    32    33   ar
    28    33    34   ar
    29    34    38    1
    30    38    39    1
    31    39    40    1
    32    34    35   ar
    33    35    36   ar
    34    36    37    1
    35     6     7   ar
    36     7     8    1
    37    15     9   ar
    38     7     1   ar
    39    36    31   ar
    40    40    38    1
    41    11    16    1
    42    11    17    1
    43    27    30    1
@<TRIPOS>MOLECULE
*****
 40 43 0 0 0
SMALL
GASTEIGER

@<TRIPOS>ATOM
      1 C           6.9466   -2.2653   30.6698 C.ar    1  UNL1        0.0203
      2 C           7.3158   -3.5486   31.3531 C.ar    1  UNL1        0.0310
      3 C           7.1623   -4.8541   30.6307 C.ar    1  UNL1        0.1414
      4 F           7.5316   -6.1373   31.3140 F       1  UNL1       -0.2041
      5 C           6.6395   -4.8764   29.2249 C.ar    1  UNL1        0.0440
      6 C           6.2703   -3.5932   28.5416 C.ar    1  UNL1        0.0488
      7 C           6.4238   -2.2876   29.2641 C.ar    1  UNL1       -0.0067
      8 C           6.0545   -1.0043   28.5808 C.3     1  UNL1        0.0324
      9 C           6.0257   -0.4891   32.3272 C.ar    1  UNL1        0.1870
     10 C           6.1793    0.8165   33.0497 C.ar    1  UNL1        0.1629
     11 N           5.1048    1.2872   33.9847 N.pl3   1  UNL1       -0.3401
     12 N           7.4072    1.6513   32.8373 N.ar    1  UNL1       -0.2063
     13 C           8.4816    1.1806   31.9024 C.ar    1  UNL1        0.2002
     14 N           8.3281   -0.1249   31.1799 N.ar    1  UNL1       -0.2208
     15 C           7.1001   -0.9597   31.3923 C.ar    1  UNL1        0.1194
     16 H           4.2989    0.7393   34.1241 H       1  UNL1        0.1438
     17 H           5.2056    2.1441   34.4589 H       1  UNL1        0.1438
     18 O           4.7977   -1.3239   32.5397 O.3     1  UNL1       -0.4693
     19 C           3.5739   -1.0834   31.7065 C.3     1  UNL1        0.2270
     20 C           3.4735    0.1510   30.8601 C.3     1  UNL1        0.1410
     21 C           1.6266   -0.0676   29.0459 C.2     1  UNL1        0.2493
     22 O           2.4333   -1.1249   28.3521 O.2     1  UNL1       -0.2699
     23 N           2.1467    0.5703   30.2999 N.am    1  UNL1       -0.2705
     24 C           1.3400    1.6276   30.9937 C.3     1  UNL1        0.1153
     25 C          -0.9334   -0.4401   28.8053 C.2     1  UNL1        0.0048
     26 C           0.2998    0.3517   28.4857 C.2     1  UNL1        0.0580
     27 N           5.7475   -3.6155   27.1358 N.am    1  UNL1       -0.2805
     28 C           6.6577   -3.2799   25.9918 C.2     1  UNL1        0.2517
     29 O           8.0907   -2.9220   26.2535 O.2     1  UNL1       -0.2697
     30 H           4.8070   -3.8503   26.9640 H       1  UNL1        0.1552
     31 C           6.1349   -3.3021   24.5859 C.ar    1  UNL1        0.0810
     32 C           6.8592   -4.0816   23.5287 C.ar    1  UNL1        0.0065
     33 C           6.3364   -4.1039   22.1230 C.ar    1  UNL1       -0.0040
     34 C           5.0894   -3.3466   21.7745 C.ar    1  UNL1       -0.0203
     35 C           4.3651   -2.5671   22.8317 C.ar    1  UNL1        0.0255
     36 C           4.8879   -2.5449   24.2374 C.ar    1  UNL1        0.1441
     37 F           4.1636   -1.7653   25.2947 F       1  UNL1       -0.2040
     38 C           4.5666   -3.3689   20.3686 C.3     1  UNL1        0.0224
     39 C           4.6902   -3.8209   18.9437 C.3     1  UNL1        0.0047
     40 C           3.5376   -2.9554   19.3586 C.3     1  UNL1        0.0047
@<TRIPOS>BOND
     1    25    26    2
     2    26    21    1
     3    21    22    2
     4    21    23   am
     5    23    24    1
     6    23    20    1
     7    20    19    1
     8    19    18    1
     9    18     9    1
    10     9    10   ar
    11    10    11    1
    12    10    12   ar
    13    12    13   ar
    14    13    14   ar
    15    14    15   ar
    16    15     1    1
    17     1     2   ar
    18     2     3   ar
    19     3     4    1
    20     3     5   ar
    21     5     6   ar
    22     6    27    1
    23    27    28   am
    24    28    29    2
    25    28    31    1
    26    31    32   ar
    27    32    33   ar
    28    33    34   ar
    29    34    38    1
    30    38    39    1
    31    39    40    1
    32    34    35   ar
    33    35    36   ar
    34    36    37    1
    35     6     7   ar
    36     7     8    1
    37    15     9   ar
    38     7     1   ar
    39    36    31   ar
    40    40    38    1
    41    11    16    1
    42    11    17    1
    43    27    30    1
@<TRIPOS>MOLECULE
*****
 40 43 0 0 0
SMALL
GASTEIGER

@<TRIPOS>ATOM
      1 C           4.2373   -1.4172   19.7300 C.ar    1  UNL1        0.0203
      2 C           4.2468   -2.5515   18.7486 C.ar    1  UNL1        0.0310
      3 C           4.4295   -3.9598   19.2318 C.ar    1  UNL1        0.1414
      4 F           4.4390   -5.0941   18.2504 F       1  UNL1       -0.2041
      5 C           4.6027   -4.2337   20.6964 C.ar    1  UNL1        0.0440
      6 C           4.5932   -3.0993   21.6778 C.ar    1  UNL1        0.0488
      7 C           4.4105   -1.6910   21.1945 C.ar    1  UNL1       -0.0067
      8 C           4.4011   -0.5567   22.1759 C.3     1  UNL1        0.0324
      9 C           2.6744    0.5346   19.0243 C.ar    1  UNL1        0.1870
     10 C           2.4918    1.9428   18.5411 C.ar    1  UNL1        0.1629
     11 N           1.1115    2.4864   18.3187 N.pl3   1  UNL1       -0.3401
     12 N           3.6894    2.8075   18.2803 N.ar    1  UNL1       -0.2063
     13 C           5.0697    2.2640   18.5027 C.ar    1  UNL1        0.2002
     14 N           5.2523    0.8558   18.9859 N.ar    1  UNL1       -0.2208
     15 C           4.0547   -0.0089   19.2467 C.ar    1  UNL1        0.1194
     16 H           0.3255    1.9189   18.4899 H       1  UNL1        0.1438
     17 H           0.9917    3.4107   18.0015 H       1  UNL1        0.1438
     18 O           1.4768   -0.3301   19.2852 O.3     1  UNL1       -0.4693
     19 C           0.6120   -0.0719   20.4832 C.3     1  UNL1        0.2270
     20 C           1.1886    0.6008   21.6935 C.3     1  UNL1        0.1410
     21 C           0.4931    1.7779   23.9028 C.2     1  UNL1        0.2493
     22 O           1.3714    0.8413   24.6783 O.2     1  UNL1       -0.2699
     23 N           0.4017    1.6577   22.4105 N.am    1  UNL1       -0.2705
     24 C          -0.4766    2.5943   21.6350 C.3     1  UNL1        0.1153
     25 C          -1.2157    2.4531   25.7397 C.2     1  UNL1        0.0048
     26 C          -0.2938    2.8348   24.6197 C.2     1  UNL1        0.0580
     27 N           4.7664   -3.3732   23.1423 N.am    1  UNL1       -0.2805
     28 C           6.1432   -3.4967   23.7245 C.2     1  UNL1        0.2517
     29 O           7.3469   -3.3465   22.8421 O.2     1  UNL1       -0.2697
     30 H           3.9764   -3.4718   23.7215 H       1  UNL1        0.1552
     31 C           6.3165   -3.7706   25.1891 C.ar    1  UNL1        0.0810
     32 C           6.7585   -5.1274   25.6513 C.ar    1  UNL1        0.0065
     33 C           6.9318   -5.4012   27.1158 C.ar    1  UNL1       -0.0040
     34 C           6.6629   -4.3182   28.1182 C.ar    1  UNL1       -0.0203
     35 C           6.2209   -2.9614   27.6561 C.ar    1  UNL1        0.0255
     36 C           6.0477   -2.6876   26.1915 C.ar    1  UNL1        0.1441
     37 F           5.6056   -1.3307   25.7293 F       1  UNL1       -0.2040
     38 C           6.8362   -4.5921   29.5829 C.3     1  UNL1        0.0224
     39 C           7.1958   -5.5322   30.6950 C.3     1  UNL1        0.0047
     40 C           6.7766   -4.1263   31.0075 C.3     1  UNL1        0.0047
@<TRIPOS>BOND
     1    25    26    2
     2    26    21    1
     3    21    22    2
     4    21    23   am
     5    23    24    1
     6    23    20    1
     7    20    19    1
     8    19    18    1
     9    18     9    1
    10     9    10   ar
    11    10    11    1
    12    10    12   ar
    13    12    13   ar
    14    13    14   ar
    15    14    15   ar
    16    15     1    1
    17     1     2   ar
    18     2     3   ar
    19     3     4    1
    20     3     5   ar
    21     5     6   ar
    22     6    27    1
    23    27    28   am
    24    28    29    2
    25    28    31    1
    26    31    32   ar
    27    32    33   ar
    28    33    34   ar
    29    34    38    1
    30    38    39    1
    31    39    40    1
    32    34    35   ar
    33    35    36   ar
    34    36    37    1
    35     6     7   ar
    36     7     8    1
    37    15     9   ar
    38     7     1   ar
    39    36    31   ar
    40    40    38    1
    41    11    16    1
    42    11    17    1
    43    27    30    1
@<TRIPOS>MOLECULE
*****
 40 43 0 0 0
SMALL
GASTEIGER

@<TRIPOS>ATOM
      1 C           3.3557   -0.3956   19.3067 C.ar    1  UNL1        0.0203
      2 C           4.3255    0.5590   18.6759 C.ar    1  UNL1        0.0310
      3 C           3.8868    1.9489   18.3212 C.ar    1  UNL1        0.1414
      4 F           4.8567    2.9035   17.6904 F       1  UNL1       -0.2041
      5 C           2.4781    2.3841   18.5973 C.ar    1  UNL1        0.0440
      6 C           1.5082    1.4294   19.2281 C.ar    1  UNL1        0.0488
      7 C           1.9470    0.0395   19.5828 C.ar    1  UNL1       -0.0067
      8 C           0.9771   -0.9152   20.2136 C.3     1  UNL1        0.0324
      9 C           4.2623   -2.0921   21.0531 C.ar    1  UNL1        0.1870
     10 C           4.7011   -3.4820   21.4077 C.ar    1  UNL1        0.1629
     11 N           5.1689   -3.7886   22.7995 N.pl3   1  UNL1       -0.3401
     12 N           4.6721   -4.5652   20.3705 N.ar    1  UNL1       -0.2063
     13 C           4.2043   -4.2586   18.9787 C.ar    1  UNL1        0.2002
     14 N           3.7655   -2.8688   18.6241 N.ar    1  UNL1       -0.2208
     15 C           3.7945   -1.7855   19.6613 C.ar    1  UNL1        0.1194
     16 H           5.1879   -3.0777   23.4803 H       1  UNL1        0.1438
     17 H           5.4569   -4.7009   23.0323 H       1  UNL1        0.1438
     18 O           4.2913   -1.0089   22.0903 O.3     1  UNL1       -0.4693
     19 C           3.1907   -0.9123   23.1049 C.3     1  UNL1        0.2270
     20 C           2.7608    0.4294   23.6196 C.3     1  UNL1        0.1410
     21 C           1.1320    1.2338   25.4771 C.2     1  UNL1        0.2493
     22 O           0.1598    1.6868   24.4284 O.2     1  UNL1       -0.2699
     23 N           2.4325    0.6051   25.0727 N.am    1  UNL1       -0.2705
     24 C           3.4047    0.1522   26.1214 C.3     1  UNL1        0.1153
     25 C          -0.5792    1.1107   27.4281 C.2     1  UNL1        0.0048
     26 C           0.8037    1.4096   26.9302 C.2     1  UNL1        0.0580
     27 N           0.0995    1.8645   19.5043 N.am    1  UNL1       -0.2805
     28 C          -0.1911    2.7756   20.6599 C.2     1  UNL1        0.2517
     29 O           0.9270    3.2514   21.5394 O.2     1  UNL1       -0.2697
     30 H          -0.6343    1.5522   18.9271 H       1  UNL1        0.1552
     31 C          -1.5998    3.2108   20.9361 C.ar    1  UNL1        0.0810
     32 C          -2.1145    3.2357   22.3448 C.ar    1  UNL1        0.0065
     33 C          -3.5232    3.6709   22.6209 C.ar    1  UNL1       -0.0040
     34 C          -4.4171    4.0811   21.4884 C.ar    1  UNL1       -0.0203
     35 C          -3.9023    4.0562   20.0798 C.ar    1  UNL1        0.0255
     36 C          -2.4937    3.6210   19.8036 C.ar    1  UNL1        0.1441
     37 F          -1.9789    3.5961   18.3949 F       1  UNL1       -0.2040
     38 C          -5.8258    4.5163   21.7646 C.3     1  UNL1        0.0224
     39 C          -6.9913    5.4115   21.4644 C.3     1  UNL1        0.0047
     40 C          -7.1001    4.3750   22.5432 C.3     1  UNL1        0.0047
@<TRIPOS>BOND
     1    25    26    2
     2    26    21    1
     3    21    22    2
     4    21    23   am
     5    23    24    1
     6    23    20    1
     7    20    19    1
     8    19    18    1
     9    18     9    1
    10     9    10   ar
    11    10    11    1
    12    10    12   ar
    13    12    13   ar
    14    13    14   ar
    15    14    15   ar
    16    15     1    1
    17     1     2   ar
    18     2     3   ar
    19     3     4    1
    20     3     5   ar
    21     5     6   ar
    22     6    27    1
    23    27    28   am
    24    28    29    2
    25    28    31    1
    26    31    32   ar
    27    32    33   ar
    28    33    34   ar
    29    34    38    1
    30    38    39    1
    31    39    40    1
    32    34    35   ar
    33    35    36   ar
    34    36    37    1
    35     6     7   ar
    36     7     8    1
    37    15     9   ar
    38     7     1   ar
    39    36    31   ar
    40    40    38    1
    41    11    16    1
    42    11    17    1
    43    27    30    1
