@<TRIPOS>MOLECULE
*****
 28 30 0 0 0
SMALL
GASTEIGER

@<TRIPOS>ATOM
      1 C          -8.3649  -18.4609   21.0450 C.ar    1  UNL1        0.0857
      2 C          -9.2102  -19.6103   20.5825 C.ar    1  UNL1        0.0089
      3 C         -10.7060  -19.5053   20.6227 C.ar    1  UNL1        0.0194
      4 C         -11.3564  -18.2506   21.1255 C.ar    1  UNL1        0.0857
      5 C         -12.7961  -17.8593   21.2807 C.ar    1  UNL1        0.1181
      6 N         -12.8405  -16.4678   21.8392 N.ar    1  UNL1       -0.2220
      7 C         -11.4283  -15.9993   22.0292 C.ar    1  UNL1        0.1837
      8 N         -10.5110  -17.1011   21.5881 N.ar    1  UNL1       -0.2759
      9 C          -9.0153  -17.2062   21.5479 C.ar    1  UNL1        0.1224
     10 O          -6.0856  -18.6086   22.2831 O.2     1  UNL1       -0.2680
     11 C          -6.8690  -18.5660   21.0048 C.2     1  UNL1        0.2706
     12 N          -6.1568  -18.6284   19.6862 N.am    1  UNL1       -0.1896
     13 H          -6.6711  -18.6004   18.8472 H       1  UNL1        0.1828
     14 O          -4.6611  -18.7334   19.6459 O.3     1  UNL1       -0.2635
     15 C          -3.9830  -19.9776   20.1386 C.3     1  UNL1        0.2026
     16 C          -3.1530  -19.9349   21.3872 C.3     1  UNL1        0.1719
     17 O          -1.6820  -20.2213   21.3201 O.3     1  UNL1       -0.3794
     18 H          -1.5442  -21.1469   21.0650 H       1  UNL1        0.2105
     19 N          -8.1699  -16.0567   22.0105 N.pl3   1  UNL1       -0.2971
     20 H          -7.8131  -15.4135   21.3561 H       1  UNL1        0.1536
     21 C          -7.8682  -15.8873   23.4701 C.ar    1  UNL1        0.0772
     22 C          -8.9032  -16.2427   24.4959 C.ar    1  UNL1        0.0174
     23 C          -8.6015  -16.0732   25.9556 C.ar    1  UNL1        0.0072
     24 C          -7.2649  -15.5484   26.3891 C.ar    1  UNL1        0.0324
     25 I          -6.9632  -15.3790   27.8487 I       1  UNL1       -0.0424
     26 C          -6.2299  -15.1931   25.3632 C.ar    1  UNL1        0.0367
     27 C          -6.5316  -15.3625   23.9037 C.ar    1  UNL1        0.1539
     28 F          -5.4966  -15.0071   22.8777 F       1  UNL1       -0.2028
@<TRIPOS>BOND
     1    10    11    2
     2    11    12   am
     3    12    14    1
     4    14    15    1
     5    15    16    1
     6    16    17    1
     7    11     1    1
     8     1     2   ar
     9     2     3   ar
    10     3     4   ar
    11     4     5   ar
    12     5     6   ar
    13     6     7   ar
    14     7     8   ar
    15     8     9   ar
    16     9    19    1
    17    19    21    1
    18    21    22   ar
    19    22    23   ar
    20    23    24   ar
    21    24    25    1
    22    24    26   ar
    23    26    27   ar
    24    27    28    1
    25     9     1   ar
    26    27    21   ar
    27     8     4   ar
    28    12    13    1
    29    17    18    1
    30    19    20    1
@<TRIPOS>MOLECULE
*****
 28 30 0 0 0
SMALL
GASTEIGER

@<TRIPOS>ATOM
      1 C          -3.3929  -17.2324   22.8757 C.ar    1  UNL1        0.0857
      2 C          -2.3345  -16.2539   22.4610 C.ar    1  UNL1        0.0089
      3 C          -1.7012  -16.3635   21.1056 C.ar    1  UNL1        0.0194
      4 C          -2.1264  -17.4519   20.1650 C.ar    1  UNL1        0.0857
      5 C          -1.6850  -17.8073   18.7762 C.ar    1  UNL1        0.1181
      6 N          -2.4707  -19.0056   18.3326 N.ar    1  UNL1       -0.2220
      7 C          -3.3976  -19.3907   19.4472 C.ar    1  UNL1        0.1837
      8 N          -3.1848  -18.4305   20.5798 N.ar    1  UNL1       -0.2759
      9 C          -3.8181  -18.3207   21.9351 C.ar    1  UNL1        0.1224
     10 O          -3.6753  -18.1092   25.3050 O.2     1  UNL1       -0.2680
     11 C          -4.0263  -17.1227   24.2310 C.2     1  UNL1        0.2706
     12 N          -5.0106  -16.0264   24.5123 N.am    1  UNL1       -0.1896
     13 H          -5.2410  -15.3789   23.8074 H       1  UNL1        0.1828
     14 O          -5.6440  -15.9167   25.8676 O.3     1  UNL1       -0.2635
     15 C          -7.0790  -15.4980   25.9932 C.3     1  UNL1        0.2026
     16 C          -7.9025  -15.2641   24.7614 C.3     1  UNL1        0.1719
     17 O          -7.7001  -14.0193   23.9493 O.3     1  UNL1       -0.3794
     18 H          -7.9654  -13.2460   24.4712 H       1  UNL1        0.2105
     19 N          -4.8766  -19.2993   22.3498 N.pl3   1  UNL1       -0.2971
     20 H          -4.6491  -20.0454   22.9506 H       1  UNL1        0.1536
     21 C          -6.2818  -19.1412   21.8492 C.ar    1  UNL1        0.0772
     22 C          -7.1685  -18.0781   22.4267 C.ar    1  UNL1        0.0174
     23 C          -8.5737  -17.9200   21.9260 C.ar    1  UNL1        0.0072
     24 C          -9.0920  -18.8250   20.8480 C.ar    1  UNL1        0.0324
     25 I         -10.4972  -18.6670   20.3474 I       1  UNL1       -0.0424
     26 C          -8.2053  -19.8882   20.2706 C.ar    1  UNL1        0.0367
     27 C          -6.8002  -20.0462   20.7712 C.ar    1  UNL1        0.1539
     28 F          -5.9135  -21.1094   20.1937 F       1  UNL1       -0.2028
@<TRIPOS>BOND
     1    10    11    2
     2    11    12   am
     3    12    14    1
     4    14    15    1
     5    15    16    1
     6    16    17    1
     7    11     1    1
     8     1     2   ar
     9     2     3   ar
    10     3     4   ar
    11     4     5   ar
    12     5     6   ar
    13     6     7   ar
    14     7     8   ar
    15     8     9   ar
    16     9    19    1
    17    19    21    1
    18    21    22   ar
    19    22    23   ar
    20    23    24   ar
    21    24    25    1
    22    24    26   ar
    23    26    27   ar
    24    27    28    1
    25     9     1   ar
    26    27    21   ar
    27     8     4   ar
    28    12    13    1
    29    17    18    1
    30    19    20    1
@<TRIPOS>MOLECULE
*****
 28 30 0 0 0
SMALL
GASTEIGER

@<TRIPOS>ATOM
      1 C          -9.2684  -17.4245   24.9551 C.ar    1  UNL1        0.0857
      2 C          -9.3741  -17.3829   26.4507 C.ar    1  UNL1        0.0089
      3 C          -8.3595  -16.6238   27.2536 C.ar    1  UNL1        0.0194
      4 C          -7.2393  -15.9063   26.5606 C.ar    1  UNL1        0.0857
      5 C          -6.0998  -15.0826   27.0831 C.ar    1  UNL1        0.1181
      6 N          -5.2898  -14.6151   25.9103 N.ar    1  UNL1       -0.2220
      7 C          -5.9288  -15.1498   24.6630 C.ar    1  UNL1        0.1837
      8 N          -7.1336  -15.9478   25.0649 N.ar    1  UNL1       -0.2759
      9 C          -8.1482  -16.7069   24.2622 C.ar    1  UNL1        0.1224
     10 O         -10.0842  -19.6455   23.8821 O.2     1  UNL1       -0.2680
     11 C         -10.2830  -18.1836   24.1523 C.2     1  UNL1        0.2706
     12 N         -11.4963  -17.4806   23.6197 N.am    1  UNL1       -0.1896
     13 H         -11.6268  -16.5211   23.7971 H       1  UNL1        0.1828
     14 O         -12.5109  -18.2397   22.8169 O.3     1  UNL1       -0.2635
     15 C         -12.7248  -17.9058   21.3702 C.3     1  UNL1        0.2026
     16 C         -12.2161  -16.6077   20.8170 C.3     1  UNL1        0.1719
     17 O         -10.8410  -16.1272   21.1756 O.3     1  UNL1       -0.3794
     18 H         -10.8063  -15.9245   22.1236 H       1  UNL1        0.2105
     19 N          -8.0425  -16.7485   22.7665 N.pl3   1  UNL1       -0.2971
     20 H          -8.5740  -16.1272   22.2180 H       1  UNL1        0.1536
     21 C          -7.1272  -17.7368   22.1064 C.ar    1  UNL1        0.0772
     22 C          -5.6941  -17.8361   22.5383 C.ar    1  UNL1        0.0174
     23 C          -4.7787  -18.8243   21.8782 C.ar    1  UNL1        0.0072
     24 C          -5.2965  -19.7131   20.7864 C.ar    1  UNL1        0.0324
     25 I          -4.3812  -20.7013   20.1264 I       1  UNL1       -0.0424
     26 C          -6.7295  -19.6137   20.3547 C.ar    1  UNL1        0.0367
     27 C          -7.6449  -18.6255   21.0147 C.ar    1  UNL1        0.1539
     28 F          -9.0780  -18.5262   20.5829 F       1  UNL1       -0.2028
@<TRIPOS>BOND
     1    10    11    2
     2    11    12   am
     3    12    14    1
     4    14    15    1
     5    15    16    1
     6    16    17    1
     7    11     1    1
     8     1     2   ar
     9     2     3   ar
    10     3     4   ar
    11     4     5   ar
    12     5     6   ar
    13     6     7   ar
    14     7     8   ar
    15     8     9   ar
    16     9    19    1
    17    19    21    1
    18    21    22   ar
    19    22    23   ar
    20    23    24   ar
    21    24    25    1
    22    24    26   ar
    23    26    27   ar
    24    27    28    1
    25     9     1   ar
    26    27    21   ar
    27     8     4   ar
    28    12    13    1
    29    17    18    1
    30    19    20    1
@<TRIPOS>MOLECULE
*****
 28 30 0 0 0
SMALL
GASTEIGER

@<TRIPOS>ATOM
      1 C          -6.8193  -17.9177   22.3456 C.ar    1  UNL1        0.0857
      2 C          -5.7030  -18.9185   22.2996 C.ar    1  UNL1        0.0089
      3 C          -5.7402  -20.0383   21.3020 C.ar    1  UNL1        0.0194
      4 C          -6.8937  -20.1570   20.3506 C.ar    1  UNL1        0.0857
      5 C          -7.2025  -21.1463   19.2662 C.ar    1  UNL1        0.1181
      6 N          -8.5097  -20.7568   18.6420 N.ar    1  UNL1       -0.2220
      7 C          -9.0088  -19.5268   19.3407 C.ar    1  UNL1        0.1837
      8 N          -8.0100  -19.1561   20.3966 N.ar    1  UNL1       -0.2759
      9 C          -7.9728  -18.0364   21.3941 C.ar    1  UNL1        0.1224
     10 O          -7.9994  -16.4803   24.1597 O.2     1  UNL1       -0.2680
     11 C          -6.7821  -16.7980   23.3431 C.2     1  UNL1        0.2706
     12 N          -5.5275  -15.9960   23.5238 N.am    1  UNL1       -0.1896
     13 H          -4.7284  -16.2045   22.9878 H       1  UNL1        0.1828
     14 O          -5.4902  -14.8763   24.5213 O.3     1  UNL1       -0.2635
     15 C          -5.2369  -15.1707   25.9702 C.3     1  UNL1        0.2026
     16 C          -6.3861  -15.4704   26.8866 C.3     1  UNL1        0.1719
     17 O          -7.7485  -14.9194   26.5858 O.3     1  UNL1       -0.3794
     18 H          -7.7297  -13.9524   26.6598 H       1  UNL1        0.2105
     19 N          -9.0890  -17.0355   21.4401 N.pl3   1  UNL1       -0.2971
     20 H          -8.9984  -16.1751   20.9703 H       1  UNL1        0.1536
     21 C         -10.3435  -17.3456   22.2020 C.ar    1  UNL1        0.0772
     22 C         -11.5157  -16.4126   22.1281 C.ar    1  UNL1        0.0174
     23 C         -12.7702  -16.7227   22.8899 C.ar    1  UNL1        0.0072
     24 C         -12.8523  -17.9656   23.7256 C.ar    1  UNL1        0.0324
     25 I         -14.1066  -18.2757   24.4874 I       1  UNL1       -0.0424
     26 C         -11.6800  -18.8985   23.7995 C.ar    1  UNL1        0.0367
     27 C         -10.4256  -18.5885   23.0376 C.ar    1  UNL1        0.1539
     28 F          -9.2533  -19.5214   23.1115 F       1  UNL1       -0.2028
@<TRIPOS>BOND
     1    10    11    2
     2    11    12   am
     3    12    14    1
     4    14    15    1
     5    15    16    1
     6    16    17    1
     7    11     1    1
     8     1     2   ar
     9     2     3   ar
    10     3     4   ar
    11     4     5   ar
    12     5     6   ar
    13     6     7   ar
    14     7     8   ar
    15     8     9   ar
    16     9    19    1
    17    19    21    1
    18    21    22   ar
    19    22    23   ar
    20    23    24   ar
    21    24    25    1
    22    24    26   ar
    23    26    27   ar
    24    27    28    1
    25     9     1   ar
    26    27    21   ar
    27     8     4   ar
    28    12    13    1
    29    17    18    1
    30    19    20    1
@<TRIPOS>MOLECULE
*****
 28 30 0 0 0
SMALL
GASTEIGER

@<TRIPOS>ATOM
      1 C         -13.2797   -7.4823   17.7029 C.ar    1  UNL1        0.0857
      2 C         -12.4226   -7.8365   16.5241 C.ar    1  UNL1        0.0089
      3 C         -11.1451   -7.0908   16.2745 C.ar    1  UNL1        0.0194
      4 C         -10.7250   -5.9909   17.2038 C.ar    1  UNL1        0.0857
      5 C          -9.5280   -5.0870   17.2126 C.ar    1  UNL1        0.1181
      6 N          -9.6454   -4.1740   18.3970 N.ar    1  UNL1       -0.2220
      7 C         -10.9149   -4.5138   19.1201 C.ar    1  UNL1        0.1837
      8 N         -11.5822   -5.6367   18.3826 N.ar    1  UNL1       -0.2759
      9 C         -12.8595   -6.3823   18.6322 C.ar    1  UNL1        0.1224
     10 O         -15.8067   -7.8418   17.2184 O.2     1  UNL1       -0.2680
     11 C         -14.5571   -8.2280   17.9526 C.2     1  UNL1        0.2706
     12 N         -14.5847   -9.3598   18.9365 N.am    1  UNL1       -0.1896
     13 H         -13.7645   -9.6133   19.4184 H       1  UNL1        0.1828
     14 O         -15.8620  -10.1055   19.1862 O.3     1  UNL1       -0.2635
     15 C         -16.9143   -9.5137   20.0766 C.3     1  UNL1        0.2026
     16 C         -18.2835   -9.2304   19.5335 C.3     1  UNL1        0.1719
     17 O         -18.4540   -8.8424   18.0945 O.3     1  UNL1       -0.3794
     18 H         -18.0367   -7.9804   17.9405 H       1  UNL1        0.2105
     19 N         -13.7167   -6.0281   19.8111 N.pl3   1  UNL1       -0.2971
     20 H         -13.6964   -6.5882   20.6205 H       1  UNL1        0.1536
     21 C         -14.6049   -4.8205   19.7567 C.ar    1  UNL1        0.0772
     22 C         -14.0025   -3.4469   19.7345 C.ar    1  UNL1        0.0174
     23 C         -14.8907   -2.2393   19.6801 C.ar    1  UNL1        0.0072
     24 C         -16.3811   -2.4053   19.6480 C.ar    1  UNL1        0.0324
     25 I         -17.2693   -1.1978   19.5936 I       1  UNL1       -0.0424
     26 C         -16.9834   -3.7789   19.6702 C.ar    1  UNL1        0.0367
     27 C         -16.0953   -4.9865   19.7246 C.ar    1  UNL1        0.1539
     28 F         -16.6976   -6.3601   19.7468 F       1  UNL1       -0.2028
@<TRIPOS>BOND
     1    10    11    2
     2    11    12   am
     3    12    14    1
     4    14    15    1
     5    15    16    1
     6    16    17    1
     7    11     1    1
     8     1     2   ar
     9     2     3   ar
    10     3     4   ar
    11     4     5   ar
    12     5     6   ar
    13     6     7   ar
    14     7     8   ar
    15     8     9   ar
    16     9    19    1
    17    19    21    1
    18    21    22   ar
    19    22    23   ar
    20    23    24   ar
    21    24    25    1
    22    24    26   ar
    23    26    27   ar
    24    27    28    1
    25     9     1   ar
    26    27    21   ar
    27     8     4   ar
    28    12    13    1
    29    17    18    1
    30    19    20    1
@<TRIPOS>MOLECULE
*****
 28 30 0 0 0
SMALL
GASTEIGER

@<TRIPOS>ATOM
      1 C         -12.6318   -6.5272   18.3236 C.ar    1  UNL1        0.0857
      2 C         -11.2561   -7.0013   18.6873 C.ar    1  UNL1        0.0089
      3 C         -10.0514   -6.2497   18.2036 C.ar    1  UNL1        0.0194
      4 C         -10.2226   -5.0239   17.3563 C.ar    1  UNL1        0.0857
      5 C          -9.2300   -4.0846   16.7379 C.ar    1  UNL1        0.1181
      6 N          -9.9924   -3.0299   15.9920 N.ar    1  UNL1       -0.2220
      7 C         -11.4561   -3.3173   16.1494 C.ar    1  UNL1        0.1837
      8 N         -11.5984   -4.5497   16.9926 N.ar    1  UNL1       -0.2759
      9 C         -12.8030   -5.3013   17.4762 C.ar    1  UNL1        0.1224
     10 O         -14.9488   -6.5479   19.4989 O.2     1  UNL1       -0.2680
     11 C         -13.8365   -7.2788   18.8072 C.2     1  UNL1        0.2706
     12 N         -13.9288   -8.7614   18.5990 N.am    1  UNL1       -0.1896
     13 H         -13.1988   -9.2411   18.1450 H       1  UNL1        0.1828
     14 O         -15.1335   -9.5131   19.0826 O.3     1  UNL1       -0.2635
     15 C         -16.3562   -9.6062   18.2186 C.3     1  UNL1        0.2026
     16 C         -17.3447  -10.7134   18.4349 C.3     1  UNL1        0.1719
     17 O         -16.9108  -11.9874   19.0974 O.3     1  UNL1       -0.3794
     18 H         -16.2740  -12.4472   18.5282 H       1  UNL1        0.2105
     19 N         -14.1789   -4.8272   17.1125 N.pl3   1  UNL1       -0.2971
     20 H         -14.6908   -5.2926   16.4121 H       1  UNL1        0.1536
     21 C         -14.7747   -3.6438   17.8160 C.ar    1  UNL1        0.0772
     22 C         -14.1305   -3.1086   19.0604 C.ar    1  UNL1        0.0174
     23 C         -14.7264   -1.9252   19.7639 C.ar    1  UNL1        0.0072
     24 C         -15.9663   -1.2773   19.2229 C.ar    1  UNL1        0.0324
     25 I         -16.5621   -0.0940   19.9263 I       1  UNL1       -0.0424
     26 C         -16.6104   -1.8125   17.9785 C.ar    1  UNL1        0.0367
     27 C         -16.0146   -2.9958   17.2751 C.ar    1  UNL1        0.1539
     28 F         -16.6588   -3.5311   16.0306 F       1  UNL1       -0.2028
@<TRIPOS>BOND
     1    10    11    2
     2    11    12   am
     3    12    14    1
     4    14    15    1
     5    15    16    1
     6    16    17    1
     7    11     1    1
     8     1     2   ar
     9     2     3   ar
    10     3     4   ar
    11     4     5   ar
    12     5     6   ar
    13     6     7   ar
    14     7     8   ar
    15     8     9   ar
    16     9    19    1
    17    19    21    1
    18    21    22   ar
    19    22    23   ar
    20    23    24   ar
    21    24    25    1
    22    24    26   ar
    23    26    27   ar
    24    27    28    1
    25     9     1   ar
    26    27    21   ar
    27     8     4   ar
    28    12    13    1
    29    17    18    1
    30    19    20    1
@<TRIPOS>MOLECULE
*****
 28 30 0 0 0
SMALL
GASTEIGER

@<TRIPOS>ATOM
      1 C           7.8914   -7.6456   26.0655 C.ar    1  UNL1        0.0857
      2 C           8.6210   -7.8403   24.7695 C.ar    1  UNL1        0.0089
      3 C           8.5985   -6.7622   23.7267 C.ar    1  UNL1        0.0194
      4 C           7.8463   -5.4894   23.9801 C.ar    1  UNL1        0.0857
      5 C           7.6464   -4.2587   23.1462 C.ar    1  UNL1        0.1181
      6 N           6.7932   -3.3034   23.9268 N.ar    1  UNL1       -0.2220
      7 C           6.4658   -3.9436   25.2432 C.ar    1  UNL1        0.1837
      8 N           7.1167   -5.2947   25.2762 N.ar    1  UNL1       -0.2759
      9 C           7.1392   -6.3728   26.3188 C.ar    1  UNL1        0.1224
     10 O           9.0557   -8.8060   28.0773 O.2     1  UNL1       -0.2680
     11 C           7.9139   -8.7237   27.1082 C.2     1  UNL1        0.2706
     12 N           6.7944   -9.7194   27.1817 N.am    1  UNL1       -0.1896
     13 H           6.0449   -9.6653   26.5456 H       1  UNL1        0.1828
     14 O           6.8168  -10.7974   28.2244 O.3     1  UNL1       -0.2635
     15 C           5.8240  -11.9203   28.1638 C.3     1  UNL1        0.2026
     16 C           4.3629  -11.6215   28.0026 C.3     1  UNL1        0.1719
     17 O           3.9178  -10.5408   27.0623 O.3     1  UNL1       -0.3794
     18 H           4.2242   -9.6808   27.3898 H       1  UNL1        0.2105
     19 N           6.4096   -6.1781   27.6149 N.pl3   1  UNL1       -0.2971
     20 H           5.5222   -6.5838   27.7460 H       1  UNL1        0.1536
     21 C           7.0320   -5.3651   28.7112 C.ar    1  UNL1        0.0772
     22 C           8.1017   -5.9650   29.5748 C.ar    1  UNL1        0.0174
     23 C           8.7241   -5.1520   30.6711 C.ar    1  UNL1        0.0072
     24 C           8.2767   -3.7393   30.9037 C.ar    1  UNL1        0.0324
     25 I           8.8991   -2.9263   31.9999 I       1  UNL1       -0.0424
     26 C           7.2070   -3.1395   30.0400 C.ar    1  UNL1        0.0367
     27 C           6.5846   -3.9525   28.9438 C.ar    1  UNL1        0.1539
     28 F           5.5148   -3.3526   28.0801 F       1  UNL1       -0.2028
@<TRIPOS>BOND
     1    10    11    2
     2    11    12   am
     3    12    14    1
     4    14    15    1
     5    15    16    1
     6    16    17    1
     7    11     1    1
     8     1     2   ar
     9     2     3   ar
    10     3     4   ar
    11     4     5   ar
    12     5     6   ar
    13     6     7   ar
    14     7     8   ar
    15     8     9   ar
    16     9    19    1
    17    19    21    1
    18    21    22   ar
    19    22    23   ar
    20    23    24   ar
    21    24    25    1
    22    24    26   ar
    23    26    27   ar
    24    27    28    1
    25     9     1   ar
    26    27    21   ar
    27     8     4   ar
    28    12    13    1
    29    17    18    1
    30    19    20    1
@<TRIPOS>MOLECULE
*****
 28 30 0 0 0
SMALL
GASTEIGER

@<TRIPOS>ATOM
      1 C         -10.5922  -18.5328   20.9867 C.ar    1  UNL1        0.0857
      2 C         -10.2069  -18.6445   19.5414 C.ar    1  UNL1        0.0089
      3 C          -8.8770  -19.2256   19.1624 C.ar    1  UNL1        0.0194
      4 C          -7.9324  -19.6951   20.2288 C.ar    1  UNL1        0.0857
      5 C          -6.5644  -20.3065   20.1596 C.ar    1  UNL1        0.1181
      6 N          -6.1042  -20.5726   21.5623 N.ar    1  UNL1       -0.2220
      7 C          -7.1878  -20.1258   22.4983 C.ar    1  UNL1        0.1837
      8 N          -8.3177  -19.5834   21.6742 N.ar    1  UNL1       -0.2759
      9 C          -9.6476  -19.0023   22.0531 C.ar    1  UNL1        0.1224
     10 O         -12.6540  -17.0634   20.4039 O.2     1  UNL1       -0.2680
     11 C         -11.9222  -17.9517   21.3657 C.2     1  UNL1        0.2706
     12 N         -12.5202  -18.2590   22.7066 N.am    1  UNL1       -0.1896
     13 H         -12.0398  -18.8420   23.3378 H       1  UNL1        0.1828
     14 O         -13.8500  -17.6779   23.0856 O.3     1  UNL1       -0.2635
     15 C         -14.6198  -18.2544   24.2368 C.3     1  UNL1        0.2026
     16 C         -13.9231  -18.5494   25.5321 C.3     1  UNL1        0.1719
     17 O         -14.7239  -18.7652   26.7821 O.3     1  UNL1       -0.3794
     18 H         -15.1743  -17.9409   27.0239 H       1  UNL1        0.2105
     19 N         -10.0329  -18.8906   23.4985 N.pl3   1  UNL1       -0.2971
     20 H         -10.7613  -19.4467   23.8581 H       1  UNL1        0.1536
     21 C          -9.3084  -17.9315   24.3959 C.ar    1  UNL1        0.0772
     22 C          -9.3922  -18.0888   25.8853 C.ar    1  UNL1        0.0174
     23 C          -8.6677  -17.1297   26.7827 C.ar    1  UNL1        0.0072
     24 C          -7.8594  -16.0134   26.1907 C.ar    1  UNL1        0.0324
     25 I          -7.1349  -15.0543   27.0880 I       1  UNL1       -0.0424
     26 C          -7.7756  -15.8561   24.7013 C.ar    1  UNL1        0.0367
     27 C          -8.5001  -16.8152   23.8039 C.ar    1  UNL1        0.1539
     28 F          -8.4163  -16.6579   22.3145 F       1  UNL1       -0.2028
@<TRIPOS>BOND
     1    10    11    2
     2    11    12   am
     3    12    14    1
     4    14    15    1
     5    15    16    1
     6    16    17    1
     7    11     1    1
     8     1     2   ar
     9     2     3   ar
    10     3     4   ar
    11     4     5   ar
    12     5     6   ar
    13     6     7   ar
    14     7     8   ar
    15     8     9   ar
    16     9    19    1
    17    19    21    1
    18    21    22   ar
    19    22    23   ar
    20    23    24   ar
    21    24    25    1
    22    24    26   ar
    23    26    27   ar
    24    27    28    1
    25     9     1   ar
    26    27    21   ar
    27     8     4   ar
    28    12    13    1
    29    17    18    1
    30    19    20    1
@<TRIPOS>MOLECULE
*****
 28 30 0 0 0
SMALL
GASTEIGER

@<TRIPOS>ATOM
      1 C         -13.5851   -3.7449   19.1357 C.ar    1  UNL1        0.0857
      2 C         -13.7163   -2.5232   19.9958 C.ar    1  UNL1        0.0089
      3 C         -14.8783   -1.5936   19.8064 C.ar    1  UNL1        0.0194
      4 C         -15.9091   -1.8860   18.7567 C.ar    1  UNL1        0.0857
      5 C         -17.1537   -1.1586   18.3421 C.ar    1  UNL1        0.1181
      6 N         -17.7917   -1.9309   17.2256 N.ar    1  UNL1       -0.2220
      7 C         -16.9415   -3.1356   16.9502 C.ar    1  UNL1        0.1837
      8 N         -15.7779   -3.1079   17.8964 N.ar    1  UNL1       -0.2759
      9 C         -14.6159   -4.0373   18.0860 C.ar    1  UNL1        0.1224
     10 O         -12.6607   -6.0999   19.7266 O.2     1  UNL1       -0.2680
     11 C         -12.4231   -4.6744   19.3252 C.2     1  UNL1        0.2706
     12 N         -11.0235   -4.1782   19.1131 N.am    1  UNL1       -0.1896
     13 H         -10.8676   -3.2425   18.8496 H       1  UNL1        0.1828
     14 O          -9.8615   -5.1076   19.3026 O.3     1  UNL1       -0.2635
     15 C          -9.6413   -6.2386   18.3420 C.3     1  UNL1        0.2026
     16 C          -9.5958   -7.6512   18.8445 C.3     1  UNL1        0.1719
     17 O          -9.7224   -8.7942   17.8813 O.3     1  UNL1       -0.3794
     18 H         -10.6096   -8.7898   17.4892 H       1  UNL1        0.2105
     19 N         -14.4848   -5.2591   17.2258 N.pl3   1  UNL1       -0.2971
     20 H         -13.9504   -5.2244   16.3996 H       1  UNL1        0.1536
     21 C         -15.1678   -6.5338   17.6243 C.ar    1  UNL1        0.0772
     22 C         -16.2881   -6.5043   18.6213 C.ar    1  UNL1        0.0174
     23 C         -16.9711   -7.7790   19.0199 C.ar    1  UNL1        0.0072
     24 C         -16.5337   -9.0831   18.4214 C.ar    1  UNL1        0.0324
     25 I         -17.2166  -10.3577   18.8199 I       1  UNL1       -0.0424
     26 C         -15.4134   -9.1125   17.4244 C.ar    1  UNL1        0.0367
     27 C         -14.7304   -7.8378   17.0259 C.ar    1  UNL1        0.1539
     28 F         -13.6101   -7.8673   16.0288 F       1  UNL1       -0.2028
@<TRIPOS>BOND
     1    10    11    2
     2    11    12   am
     3    12    14    1
     4    14    15    1
     5    15    16    1
     6    16    17    1
     7    11     1    1
     8     1     2   ar
     9     2     3   ar
    10     3     4   ar
    11     4     5   ar
    12     5     6   ar
    13     6     7   ar
    14     7     8   ar
    15     8     9   ar
    16     9    19    1
    17    19    21    1
    18    21    22   ar
    19    22    23   ar
    20    23    24   ar
    21    24    25    1
    22    24    26   ar
    23    26    27   ar
    24    27    28    1
    25     9     1   ar
    26    27    21   ar
    27     8     4   ar
    28    12    13    1
    29    17    18    1
    30    19    20    1
