@<TRIPOS>MOLECULE
*****
 22 23 0 0 0
SMALL
GASTEIGER

@<TRIPOS>ATOM
      1 C          -8.2643  -17.7463   22.5057 C.3     1  UNL1        0.1895
      2 C          -9.7480  -17.5736   22.6433 C.ar    1  UNL1        0.0172
      3 C         -10.4293  -16.4013   22.0017 C.ar    1  UNL1       -0.0008
      4 C         -11.9129  -16.2286   22.1392 C.ar    1  UNL1       -0.0002
      5 C         -12.7153  -17.2281   22.9184 C.ar    1  UNL1       -0.0000
      6 C         -12.0340  -18.4003   23.5600 C.ar    1  UNL1       -0.0002
      7 C         -10.5504  -18.5731   23.4225 C.ar    1  UNL1       -0.0008
      8 C          -7.6933  -19.0941   22.1782 C.3     1  UNL1        0.0653
      9 C          -6.2144  -19.2557   21.9863 C.3     1  UNL1        0.0727
     10 C          -4.5134  -19.2353   20.0226 C.3     1  UNL1        0.0859
     11 N          -5.5172  -18.5221   20.8791 N.3     1  UNL1       -0.2962
     12 H          -6.2437  -18.1739   20.2535 H       1  UNL1        0.1233
     13 O          -7.3517  -16.5712   22.6957 O.3     1  UNL1       -0.4740
     14 C          -6.9620  -16.1401   24.0786 C.ar    1  UNL1        0.1492
     15 C          -8.0215  -15.8300   25.0941 C.ar    1  UNL1        0.0490
     16 C          -7.6318  -15.3989   26.4769 C.ar    1  UNL1        0.0607
     17 CL         -8.6914  -15.0888   27.4924 Cl      1  UNL1       -0.0821
     18 C          -6.1825  -15.2779   26.8443 C.ar    1  UNL1        0.0123
     19 C          -5.1230  -15.5879   25.8288 C.ar    1  UNL1        0.0142
     20 C          -5.5127  -16.0190   24.4460 C.ar    1  UNL1        0.1023
     21 C          -4.4531  -16.3291   23.4305 C.1     1  UNL1        0.1035
     22 N          -3.3936  -16.6392   22.4150 N.1     1  UNL1       -0.1907
@<TRIPOS>BOND
     1    10    11    1
     2    11     9    1
     3     9     8    1
     4     1     8    1
     5     1    13    1
     6    13    14    1
     7    14    15   ar
     8    15    16   ar
     9    16    17    1
    10    16    18   ar
    11    18    19   ar
    12    19    20   ar
    13    20    21    1
    14    21    22    3
    15     1     2    1
    16     2     3   ar
    17     3     4   ar
    18     4     5   ar
    19     5     6   ar
    20     6     7   ar
    21    20    14   ar
    22     7     2   ar
    23    11    12    1
@<TRIPOS>MOLECULE
*****
 22 23 0 0 0
SMALL
GASTEIGER

@<TRIPOS>ATOM
      1 C          -7.8211  -16.8712   22.9251 C.3     1  UNL1        0.1895
      2 C          -7.3350  -16.2758   24.2133 C.ar    1  UNL1        0.0172
      3 C          -5.9038  -15.8476   24.3486 C.ar    1  UNL1       -0.0008
      4 C          -5.4178  -15.2522   25.6367 C.ar    1  UNL1       -0.0002
      5 C          -6.3629  -15.0849   26.7894 C.ar    1  UNL1       -0.0000
      6 C          -7.7941  -15.5131   26.6540 C.ar    1  UNL1       -0.0002
      7 C          -8.2802  -16.1085   25.3659 C.ar    1  UNL1       -0.0008
      8 C          -7.1801  -18.1151   22.3848 C.3     1  UNL1        0.0653
      9 C          -7.4828  -18.5686   20.9875 C.3     1  UNL1        0.0727
     10 C          -5.1370  -19.3031   20.1461 C.3     1  UNL1        0.0859
     11 N          -6.4099  -18.5368   19.9396 N.3     1  UNL1       -0.2962
     12 H          -6.8288  -18.8882   19.0785 H       1  UNL1        0.1233
     13 O          -8.9482  -16.2228   22.1773 O.3     1  UNL1       -0.4740
     14 C         -10.3439  -16.7549   22.3150 C.ar    1  UNL1        0.1492
     15 C         -10.7253  -17.5557   23.5246 C.ar    1  UNL1        0.0490
     16 C         -12.1209  -18.0878   23.6623 C.ar    1  UNL1        0.0607
     17 CL        -12.5024  -18.8886   24.8720 Cl      1  UNL1       -0.0821
     18 C         -13.1352  -17.8191   22.5903 C.ar    1  UNL1        0.0123
     19 C         -12.7538  -17.0184   21.3807 C.ar    1  UNL1        0.0142
     20 C         -11.3581  -16.4863   21.2430 C.ar    1  UNL1        0.1023
     21 C         -10.9766  -15.6855   20.0333 C.1     1  UNL1        0.1035
     22 N         -10.5952  -14.8847   18.8237 N.1     1  UNL1       -0.1907
@<TRIPOS>BOND
     1    10    11    1
     2    11     9    1
     3     9     8    1
     4     1     8    1
     5     1    13    1
     6    13    14    1
     7    14    15   ar
     8    15    16   ar
     9    16    17    1
    10    16    18   ar
    11    18    19   ar
    12    19    20   ar
    13    20    21    1
    14    21    22    3
    15     1     2    1
    16     2     3   ar
    17     3     4   ar
    18     4     5   ar
    19     5     6   ar
    20     6     7   ar
    21    20    14   ar
    22     7     2   ar
    23    11    12    1
@<TRIPOS>MOLECULE
*****
 22 23 0 0 0
SMALL
GASTEIGER

@<TRIPOS>ATOM
      1 C          -7.1004  -18.5550   21.5985 C.3     1  UNL1        0.1895
      2 C          -5.6965  -19.0364   21.3811 C.ar    1  UNL1        0.0172
      3 C          -5.3396  -19.7621   20.1177 C.ar    1  UNL1       -0.0008
      4 C          -3.9358  -20.2435   19.9003 C.ar    1  UNL1       -0.0002
      5 C          -2.8887  -19.9993   20.9462 C.ar    1  UNL1       -0.0000
      6 C          -3.2456  -19.2736   22.2096 C.ar    1  UNL1       -0.0002
      7 C          -4.6494  -18.7922   22.4270 C.ar    1  UNL1       -0.0008
      8 C          -8.2278  -19.5412   21.6772 C.3     1  UNL1        0.0653
      9 C          -8.6428  -20.1015   23.0053 C.3     1  UNL1        0.0727
     10 C         -10.4615  -19.7662   24.8302 C.3     1  UNL1        0.0859
     11 N         -10.0866  -20.0773   23.4115 N.3     1  UNL1       -0.2962
     12 H         -10.5455  -19.3796   22.8258 H       1  UNL1        0.1233
     13 O          -7.3769  -17.0872   21.7371 O.3     1  UNL1       -0.4740
     14 C          -7.5343  -16.4790   23.0993 C.ar    1  UNL1        0.1492
     15 C          -6.3225  -16.0646   23.8802 C.ar    1  UNL1        0.0490
     16 C          -6.4798  -15.4565   25.2423 C.ar    1  UNL1        0.0607
     17 CL         -5.2680  -15.0421   26.0232 Cl      1  UNL1       -0.0821
     18 C          -7.8490  -15.2628   25.8236 C.ar    1  UNL1        0.0123
     19 C          -9.0608  -15.6772   25.0427 C.ar    1  UNL1        0.0142
     20 C          -8.9034  -16.2853   23.6806 C.ar    1  UNL1        0.1023
     21 C         -10.1153  -16.6998   22.8997 C.1     1  UNL1        0.1035
     22 N         -11.3270  -17.1142   22.1187 N.1     1  UNL1       -0.1907
@<TRIPOS>BOND
     1    10    11    1
     2    11     9    1
     3     9     8    1
     4     1     8    1
     5     1    13    1
     6    13    14    1
     7    14    15   ar
     8    15    16   ar
     9    16    17    1
    10    16    18   ar
    11    18    19   ar
    12    19    20   ar
    13    20    21    1
    14    21    22    3
    15     1     2    1
    16     2     3   ar
    17     3     4   ar
    18     4     5   ar
    19     5     6   ar
    20     6     7   ar
    21    20    14   ar
    22     7     2   ar
    23    11    12    1
@<TRIPOS>MOLECULE
*****
 22 23 0 0 0
SMALL
GASTEIGER

@<TRIPOS>ATOM
      1 C          -7.4071  -18.6390   22.0972 C.3     1  UNL1        0.1895
      2 C          -6.0412  -19.1019   21.6844 C.ar    1  UNL1        0.0172
      3 C          -4.8338  -18.6568   22.4551 C.ar    1  UNL1       -0.0008
      4 C          -3.4680  -19.1196   22.0423 C.ar    1  UNL1       -0.0002
      5 C          -3.3097  -20.0275   20.8588 C.ar    1  UNL1       -0.0000
      6 C          -4.5171  -20.4725   20.0881 C.ar    1  UNL1       -0.0002
      7 C          -5.8829  -20.0097   20.5009 C.ar    1  UNL1       -0.0008
      8 C          -7.5529  -17.5280   23.0943 C.3     1  UNL1        0.0653
      9 C          -7.6943  -16.1110   22.6231 C.3     1  UNL1        0.0727
     10 C          -6.3353  -15.0744   24.5798 C.3     1  UNL1        0.0859
     11 N          -6.7691  -15.0514   23.1441 N.3     1  UNL1       -0.2962
     12 H          -5.9209  -15.0976   22.5794 H       1  UNL1        0.1233
     13 O          -8.6270  -19.2872   21.5128 O.3     1  UNL1       -0.4740
     14 C          -9.9789  -18.6744   21.7301 C.ar    1  UNL1        0.1492
     15 C         -10.5283  -17.6972   20.7336 C.ar    1  UNL1        0.0490
     16 C         -11.8801  -17.0845   20.9510 C.ar    1  UNL1        0.0607
     17 CL        -12.4296  -16.1072   19.9544 Cl      1  UNL1       -0.0821
     18 C         -12.6824  -17.4490   22.1648 C.ar    1  UNL1        0.0123
     19 C         -12.1329  -18.4263   23.1613 C.ar    1  UNL1        0.0142
     20 C         -10.7812  -19.0390   22.9440 C.ar    1  UNL1        0.1023
     21 C         -10.2316  -20.0163   23.9405 C.1     1  UNL1        0.1035
     22 N          -9.6821  -20.9935   24.9369 N.1     1  UNL1       -0.1907
@<TRIPOS>BOND
     1    10    11    1
     2    11     9    1
     3     9     8    1
     4     1     8    1
     5     1    13    1
     6    13    14    1
     7    14    15   ar
     8    15    16   ar
     9    16    17    1
    10    16    18   ar
    11    18    19   ar
    12    19    20   ar
    13    20    21    1
    14    21    22    3
    15     1     2    1
    16     2     3   ar
    17     3     4   ar
    18     4     5   ar
    19     5     6   ar
    20     6     7   ar
    21    20    14   ar
    22     7     2   ar
    23    11    12    1
@<TRIPOS>MOLECULE
*****
 22 23 0 0 0
SMALL
GASTEIGER

@<TRIPOS>ATOM
      1 C          -7.8617  -16.7961   23.2171 C.3     1  UNL1        0.1895
      2 C          -7.4764  -16.2421   24.5568 C.ar    1  UNL1        0.0172
      3 C          -6.0913  -15.7109   24.7784 C.ar    1  UNL1       -0.0008
      4 C          -5.7059  -15.1569   26.1180 C.ar    1  UNL1       -0.0002
      5 C          -6.7057  -15.1342   27.2360 C.ar    1  UNL1       -0.0000
      6 C          -8.0908  -15.6655   27.0143 C.ar    1  UNL1       -0.0002
      7 C          -8.4762  -16.2194   25.6747 C.ar    1  UNL1       -0.0008
      8 C          -8.5224  -15.9117   22.2016 C.3     1  UNL1        0.0653
      9 C          -9.8602  -16.2875   21.6368 C.3     1  UNL1        0.0727
     10 C         -11.9293  -17.8538   21.7621 C.3     1  UNL1        0.0859
     11 N         -10.4593  -17.6256   21.9544 N.3     1  UNL1       -0.2962
     12 H          -9.9765  -18.3100   21.3723 H       1  UNL1        0.1233
     13 O          -7.5863  -18.2345   22.8929 O.3     1  UNL1       -0.4740
     14 C          -6.3910  -18.6010   22.0641 C.ar    1  UNL1        0.1492
     15 C          -5.0091  -18.4101   22.6153 C.ar    1  UNL1        0.0490
     16 C          -3.8138  -18.7766   21.7865 C.ar    1  UNL1        0.0607
     17 CL         -2.4318  -18.5857   22.3376 Cl      1  UNL1       -0.0821
     18 C          -4.0005  -19.3339   20.4064 C.ar    1  UNL1        0.0123
     19 C          -5.3824  -19.5248   19.8552 C.ar    1  UNL1        0.0142
     20 C          -6.5776  -19.1584   20.6840 C.ar    1  UNL1        0.1023
     21 C          -7.9596  -19.3493   20.1328 C.1     1  UNL1        0.1035
     22 N          -9.3415  -19.5401   19.5817 N.1     1  UNL1       -0.1907
@<TRIPOS>BOND
     1    10    11    1
     2    11     9    1
     3     9     8    1
     4     1     8    1
     5     1    13    1
     6    13    14    1
     7    14    15   ar
     8    15    16   ar
     9    16    17    1
    10    16    18   ar
    11    18    19   ar
    12    19    20   ar
    13    20    21    1
    14    21    22    3
    15     1     2    1
    16     2     3   ar
    17     3     4   ar
    18     4     5   ar
    19     5     6   ar
    20     6     7   ar
    21    20    14   ar
    22     7     2   ar
    23    11    12    1
@<TRIPOS>MOLECULE
*****
 22 23 0 0 0
SMALL
GASTEIGER

@<TRIPOS>ATOM
      1 C          -7.4449  -18.4399   22.3516 C.3     1  UNL1        0.1895
      2 C          -6.1099  -18.9567   21.9037 C.ar    1  UNL1        0.0172
      3 C          -4.8618  -18.5270   22.6163 C.ar    1  UNL1       -0.0008
      4 C          -3.5268  -19.0438   22.1684 C.ar    1  UNL1       -0.0002
      5 C          -3.4398  -19.9902   21.0079 C.ar    1  UNL1       -0.0000
      6 C          -4.6879  -20.4198   20.2954 C.ar    1  UNL1       -0.0002
      7 C          -6.0229  -19.9031   20.7433 C.ar    1  UNL1       -0.0008
      8 C          -7.6566  -16.9659   22.5319 C.3     1  UNL1        0.0653
      9 C          -7.4314  -16.3344   23.8737 C.3     1  UNL1        0.0727
     10 C          -8.3805  -15.5156   26.1494 C.3     1  UNL1        0.0859
     11 N          -8.5390  -16.3068   24.8849 N.3     1  UNL1       -0.2962
     12 H          -9.3631  -15.9395   24.4091 H       1  UNL1        0.1233
     13 O          -8.5683  -19.3971   22.6194 O.3     1  UNL1       -0.4740
     14 C          -9.9858  -18.9820   22.3577 C.ar    1  UNL1        0.1492
     15 C         -10.9184  -18.7329   23.5058 C.ar    1  UNL1        0.0490
     16 C         -12.3359  -18.3178   23.2442 C.ar    1  UNL1        0.0607
     17 CL        -13.2686  -18.0687   24.3923 Cl      1  UNL1       -0.0821
     18 C         -12.8207  -18.1518   21.8344 C.ar    1  UNL1        0.0123
     19 C         -11.8881  -18.4009   20.6863 C.ar    1  UNL1        0.0142
     20 C         -10.4707  -18.8160   20.9480 C.ar    1  UNL1        0.1023
     21 C          -9.5380  -19.0651   19.7999 C.1     1  UNL1        0.1035
     22 N          -8.6053  -19.3142   18.6518 N.1     1  UNL1       -0.1907
@<TRIPOS>BOND
     1    10    11    1
     2    11     9    1
     3     9     8    1
     4     1     8    1
     5     1    13    1
     6    13    14    1
     7    14    15   ar
     8    15    16   ar
     9    16    17    1
    10    16    18   ar
    11    18    19   ar
    12    19    20   ar
    13    20    21    1
    14    21    22    3
    15     1     2    1
    16     2     3   ar
    17     3     4   ar
    18     4     5   ar
    19     5     6   ar
    20     6     7   ar
    21    20    14   ar
    22     7     2   ar
    23    11    12    1
@<TRIPOS>MOLECULE
*****
 22 23 0 0 0
SMALL
GASTEIGER

@<TRIPOS>ATOM
      1 C          -7.7205  -16.5562   23.1132 C.3     1  UNL1        0.1895
      2 C          -7.3331  -16.0650   24.4765 C.ar    1  UNL1        0.0172
      3 C          -5.8986  -15.7487   24.7802 C.ar    1  UNL1       -0.0008
      4 C          -5.5113  -15.2575   26.1435 C.ar    1  UNL1       -0.0002
      5 C          -6.5584  -15.0826   27.2031 C.ar    1  UNL1       -0.0000
      6 C          -7.9929  -15.3989   26.8995 C.ar    1  UNL1       -0.0002
      7 C          -8.3802  -15.8901   25.5362 C.ar    1  UNL1       -0.0008
      8 C          -8.2977  -15.6034   22.1087 C.3     1  UNL1        0.0653
      9 C          -9.7714  -15.6103   21.8290 C.3     1  UNL1        0.0727
     10 C         -11.5213  -16.5215   20.1386 C.3     1  UNL1        0.0859
     11 N         -10.2667  -15.7489   20.4199 N.3     1  UNL1       -0.2962
     12 H         -10.4172  -14.8041   20.0664 H       1  UNL1        0.1233
     13 O          -7.5306  -18.0002   22.7543 O.3     1  UNL1       -0.4740
     14 C          -8.6332  -18.7548   22.0725 C.ar    1  UNL1        0.1492
     15 C          -8.5826  -18.9805   20.5904 C.ar    1  UNL1        0.0490
     16 C          -9.6852  -19.7351   19.9086 C.ar    1  UNL1        0.0607
     17 CL         -9.6346  -19.9608   18.4265 Cl      1  UNL1       -0.0821
     18 C         -10.8384  -20.2640   20.7089 C.ar    1  UNL1        0.0123
     19 C         -10.8889  -20.0384   22.1909 C.ar    1  UNL1        0.0142
     20 C          -9.7864  -19.2838   22.8727 C.ar    1  UNL1        0.1023
     21 C          -9.8369  -19.0581   24.3548 C.1     1  UNL1        0.1035
     22 N          -9.8875  -18.8325   25.8369 N.1     1  UNL1       -0.1907
@<TRIPOS>BOND
     1    10    11    1
     2    11     9    1
     3     9     8    1
     4     1     8    1
     5     1    13    1
     6    13    14    1
     7    14    15   ar
     8    15    16   ar
     9    16    17    1
    10    16    18   ar
    11    18    19   ar
    12    19    20   ar
    13    20    21    1
    14    21    22    3
    15     1     2    1
    16     2     3   ar
    17     3     4   ar
    18     4     5   ar
    19     5     6   ar
    20     6     7   ar
    21    20    14   ar
    22     7     2   ar
    23    11    12    1
@<TRIPOS>MOLECULE
*****
 22 23 0 0 0
SMALL
GASTEIGER

@<TRIPOS>ATOM
      1 C          -9.7170  -18.6247   23.3528 C.3     1  UNL1        0.1895
      2 C          -8.9914  -17.3609   23.7087 C.ar    1  UNL1        0.0172
      3 C          -8.3649  -16.5269   22.6309 C.ar    1  UNL1       -0.0008
      4 C          -7.6394  -15.2632   22.9868 C.ar    1  UNL1       -0.0002
      5 C          -7.5404  -14.8336   24.4205 C.ar    1  UNL1       -0.0000
      6 C          -8.1670  -15.6677   25.4984 C.ar    1  UNL1       -0.0002
      7 C          -8.8925  -16.9313   25.1425 C.ar    1  UNL1       -0.0008
      8 C         -11.2093  -18.6956   23.4859 C.3     1  UNL1        0.0653
      9 C         -12.0777  -18.5673   22.2696 C.3     1  UNL1        0.0727
     10 C         -12.1538  -15.9706   22.3088 C.3     1  UNL1        0.0859
     11 N         -12.1586  -17.2589   21.5404 N.3     1  UNL1       -0.2962
     12 H         -11.3611  -17.2259   20.9053 H       1  UNL1        0.1233
     13 O          -8.9500  -19.8174   22.8637 O.3     1  UNL1       -0.4740
     14 C          -7.7504  -19.6283   21.9833 C.ar    1  UNL1        0.1492
     15 C          -6.3720  -19.6783   22.5728 C.ar    1  UNL1        0.0490
     16 C          -5.1725  -19.4891   21.6924 C.ar    1  UNL1        0.0607
     17 CL         -3.7940  -19.5392   22.2819 Cl      1  UNL1       -0.0821
     18 C          -5.3513  -19.2500   20.2224 C.ar    1  UNL1        0.0123
     19 C          -6.7296  -19.1999   19.6329 C.ar    1  UNL1        0.0142
     20 C          -7.9292  -19.3891   20.5133 C.ar    1  UNL1        0.1023
     21 C          -9.3076  -19.3391   19.9238 C.1     1  UNL1        0.1035
     22 N         -10.6860  -19.2891   19.3344 N.1     1  UNL1       -0.1907
@<TRIPOS>BOND
     1    10    11    1
     2    11     9    1
     3     9     8    1
     4     1     8    1
     5     1    13    1
     6    13    14    1
     7    14    15   ar
     8    15    16   ar
     9    16    17    1
    10    16    18   ar
    11    18    19   ar
    12    19    20   ar
    13    20    21    1
    14    21    22    3
    15     1     2    1
    16     2     3   ar
    17     3     4   ar
    18     4     5   ar
    19     5     6   ar
    20     6     7   ar
    21    20    14   ar
    22     7     2   ar
    23    11    12    1
@<TRIPOS>MOLECULE
*****
 22 23 0 0 0
SMALL
GASTEIGER

@<TRIPOS>ATOM
      1 C         -13.9690   -7.1199   18.6293 C.3     1  UNL1        0.1895
      2 C         -15.0617   -8.1359   18.7846 C.ar    1  UNL1        0.0172
      3 C         -15.0060   -9.4210   18.0130 C.ar    1  UNL1       -0.0008
      4 C         -16.0985  -10.4370   18.1683 C.ar    1  UNL1       -0.0002
      5 C         -17.2467  -10.1678   19.0951 C.ar    1  UNL1       -0.0000
      6 C         -17.3024   -8.8827   19.8667 C.ar    1  UNL1       -0.0002
      7 C         -16.2099   -7.8668   19.7115 C.ar    1  UNL1       -0.0008
      8 C         -13.1632   -7.0724   17.3651 C.3     1  UNL1        0.0653
      9 C         -11.7096   -7.4421   17.3879 C.3     1  UNL1        0.0727
     10 C          -9.5118   -7.8312   18.7176 C.3     1  UNL1        0.0859
     11 N         -10.9888   -7.5703   18.6971 N.3     1  UNL1       -0.2962
     12 H         -11.1408   -6.6981   19.2036 H       1  UNL1        0.1233
     13 O         -13.6823   -6.1514   19.7383 O.3     1  UNL1       -0.4740
     14 C         -14.0981   -4.7162   19.6068 C.ar    1  UNL1        0.1492
     15 C         -15.5371   -4.3328   19.7858 C.ar    1  UNL1        0.0490
     16 C         -15.9528   -2.8975   19.6543 C.ar    1  UNL1        0.0607
     17 CL        -17.3919   -2.5141   19.8333 Cl      1  UNL1       -0.0821
     18 C         -14.9294   -1.8457   19.3439 C.ar    1  UNL1        0.0123
     19 C         -13.4903   -2.2292   19.1649 C.ar    1  UNL1        0.0142
     20 C         -13.0747   -3.6644   19.2964 C.ar    1  UNL1        0.1023
     21 C         -11.6356   -4.0479   19.1174 C.1     1  UNL1        0.1035
     22 N         -10.1965   -4.4313   18.9384 N.1     1  UNL1       -0.1907
@<TRIPOS>BOND
     1    10    11    1
     2    11     9    1
     3     9     8    1
     4     1     8    1
     5     1    13    1
     6    13    14    1
     7    14    15   ar
     8    15    16   ar
     9    16    17    1
    10    16    18   ar
    11    18    19   ar
    12    19    20   ar
    13    20    21    1
    14    21    22    3
    15     1     2    1
    16     2     3   ar
    17     3     4   ar
    18     4     5   ar
    19     5     6   ar
    20     6     7   ar
    21    20    14   ar
    22     7     2   ar
    23    11    12    1
