@<TRIPOS>MOLECULE
*****
 28 32 0 0 0
SMALL
GASTEIGER

@<TRIPOS>ATOM
      1 C          -0.1119  -18.4808   20.7825 C.3     1  UNL1        0.0902
      2 N          -1.5837  -18.5709   21.0575 N.3     1  UNL1       -0.2612
      3 C          -2.1329  -17.5456   22.0046 C.3     1  UNL1        0.1010
      4 C          -3.5457  -17.3706   22.4772 C.ar    1  UNL1        0.0109
      5 C          -3.6669  -16.2158   23.4267 C.ar    1  UNL1        0.0099
      6 C          -5.0006  -15.8681   24.0184 C.ar    1  UNL1        0.0575
      7 CL         -5.1219  -14.7132   24.9680 Cl      1  UNL1       -0.0823
      8 C          -6.2133  -16.6752   23.6605 C.ar    1  UNL1        0.0129
      9 C          -6.0921  -17.8301   22.7110 C.ar    1  UNL1        0.0182
     10 C          -4.7583  -18.1777   22.1193 C.ar    1  UNL1        0.0636
     11 N          -4.8575  -19.3592   21.2004 N.ar    1  UNL1       -0.2799
     12 C          -3.7688  -20.0254   20.4125 C.ar    1  UNL1        0.1632
     13 N          -4.3789  -21.1631   19.6490 N.ar    1  UNL1       -0.1319
     14 N          -5.8447  -21.2002   19.9649 N.ar    1  UNL1       -0.1333
     15 C          -6.1406  -20.0853   20.9238 C.ar    1  UNL1        0.1465
     16 C          -2.3118  -19.6745   20.3489 C.3     1  UNL1        0.1396
     17 C          -7.4836  -19.7546   21.5041 C.3     1  UNL1        0.0625
     18 C          -8.4282  -18.8660   20.7503 C.3     1  UNL1        0.0291
     19 C          -9.7712  -18.5353   21.3306 C.3     1  UNL1        0.0926
     20 N         -10.1698  -19.0932   22.6647 N.pl3   1  UNL1       -0.2932
     21 C          -9.2254  -19.9819   23.4185 C.3     1  UNL1        0.0926
     22 C          -7.8823  -20.3126   22.8382 C.3     1  UNL1        0.0291
     23 C         -11.5130  -18.7625   23.2450 C.ar    1  UNL1        0.1317
     24 C         -12.5540  -18.0968   22.3948 C.ar    1  UNL1        0.0343
     25 C         -13.8971  -17.7660   22.9751 C.ar    1  UNL1        0.0045
     26 C         -14.1991  -18.1011   24.4057 C.ar    1  UNL1        0.0208
     27 C         -13.1580  -18.7668   25.2560 C.ar    1  UNL1        0.1003
     28 N         -11.8149  -19.0975   24.6756 N.ar    1  UNL1       -0.2292
@<TRIPOS>BOND
     1     1     2    1
     2     2     3    1
     3     3     4    1
     4     4     5   ar
     5     5     6   ar
     6     6     7    1
     7     6     8   ar
     8     8     9   ar
     9     9    10   ar
    10    10    11    1
    11    11    12   ar
    12    12    13   ar
    13    13    14   ar
    14    14    15   ar
    15    15    17    1
    16    17    18    1
    17    18    19    1
    18    19    20    1
    19    20    23    1
    20    23    24   ar
    21    24    25   ar
    22    25    26   ar
    23    26    27   ar
    24    27    28   ar
    25    20    21    1
    26    21    22    1
    27    12    16    1
    28    16     2    1
    29    10     4   ar
    30    15    11   ar
    31    22    17    1
    32    28    23   ar
@<TRIPOS>MOLECULE
*****
 28 32 0 0 0
SMALL
GASTEIGER

@<TRIPOS>ATOM
      1 C           0.9855    5.2698   36.6880 C.3     1  UNL1        0.0902
      2 N           1.7168    4.1248   36.0526 N.3     1  UNL1       -0.2612
      3 C           1.4343    3.8996   34.5967 C.3     1  UNL1        0.1010
      4 C           1.9992    2.8503   33.6857 C.ar    1  UNL1        0.0109
      5 C           1.4497    2.9779   32.2958 C.ar    1  UNL1        0.0099
      6 C           1.8873    2.0221   31.2258 C.ar    1  UNL1        0.0575
      7 CL          1.3379    2.1497   29.8358 Cl      1  UNL1       -0.0823
      8 C           2.8743    0.9388   31.5456 C.ar    1  UNL1        0.0129
      9 C           3.4237    0.8112   32.9355 C.ar    1  UNL1        0.0182
     10 C           2.9861    1.7670   34.0055 C.ar    1  UNL1        0.0636
     11 N           3.6519    1.4654   35.3154 N.ar    1  UNL1       -0.2799
     12 C           3.4953    2.1726   36.6289 C.ar    1  UNL1        0.1632
     13 N           4.3757    1.4879   37.6319 N.ar    1  UNL1       -0.1319
     14 N           5.0764    0.3575   36.9383 N.ar    1  UNL1       -0.1333
     15 C           4.6292    0.3436   35.5066 C.ar    1  UNL1        0.1465
     16 C           2.6341    3.3562   36.9570 C.3     1  UNL1        0.1396
     17 C           5.0799   -0.6225   34.4515 C.3     1  UNL1        0.0625
     18 C           4.2471   -1.8291   34.1341 C.3     1  UNL1        0.0291
     19 C           4.6978   -2.7951   33.0790 C.3     1  UNL1        0.0926
     20 N           5.9815   -2.5548   32.3411 N.pl3   1  UNL1       -0.2932
     21 C           6.8143   -1.3483   32.6584 C.3     1  UNL1        0.0926
     22 C           6.3636   -0.3821   33.7136 C.3     1  UNL1        0.0291
     23 C           6.4323   -3.5209   31.2859 C.ar    1  UNL1        0.1317
     24 C           6.8536   -4.9083   31.6700 C.ar    1  UNL1        0.0343
     25 C           7.3044   -5.8744   30.6148 C.ar    1  UNL1        0.0045
     26 C           7.3339   -5.4531   29.1755 C.ar    1  UNL1        0.0208
     27 C           6.9125   -4.0657   28.7914 C.ar    1  UNL1        0.1003
     28 N           6.4617   -3.0996   29.8466 N.ar    1  UNL1       -0.2292
@<TRIPOS>BOND
     1     1     2    1
     2     2     3    1
     3     3     4    1
     4     4     5   ar
     5     5     6   ar
     6     6     7    1
     7     6     8   ar
     8     8     9   ar
     9     9    10   ar
    10    10    11    1
    11    11    12   ar
    12    12    13   ar
    13    13    14   ar
    14    14    15   ar
    15    15    17    1
    16    17    18    1
    17    18    19    1
    18    19    20    1
    19    20    23    1
    20    23    24   ar
    21    24    25   ar
    22    25    26   ar
    23    26    27   ar
    24    27    28   ar
    25    20    21    1
    26    21    22    1
    27    12    16    1
    28    16     2    1
    29    10     4   ar
    30    15    11   ar
    31    22    17    1
    32    28    23   ar
@<TRIPOS>MOLECULE
*****
 28 32 0 0 0
SMALL
GASTEIGER

@<TRIPOS>ATOM
      1 C           8.3193   -5.0360   21.1970 C.3     1  UNL1        0.0902
      2 N           7.1719   -4.0721   21.1336 N.3     1  UNL1       -0.2612
      3 C           6.6138   -3.6366   22.4561 C.3     1  UNL1        0.1010
      4 C           5.4802   -2.6926   22.7277 C.ar    1  UNL1        0.0109
      5 C           5.2431   -2.5301   24.1999 C.ar    1  UNL1        0.0099
      6 C           4.1506   -1.6258   24.6882 C.ar    1  UNL1        0.0575
      7 CL          3.9134   -1.4632   26.1605 Cl      1  UNL1       -0.0823
      8 C           3.2951   -0.8840   23.7044 C.ar    1  UNL1        0.0129
      9 C           3.5321   -1.0465   22.2322 C.ar    1  UNL1        0.0182
     10 C           4.6247   -1.9508   21.7439 C.ar    1  UNL1        0.0636
     11 N           4.6916   -1.9699   20.2455 N.ar    1  UNL1       -0.2799
     12 C           5.6303   -2.7354   19.3608 C.ar    1  UNL1        0.1632
     13 N           5.2897   -2.4145   17.9357 N.ar    1  UNL1       -0.1319
     14 N           4.1404   -1.4507   17.9396 N.ar    1  UNL1       -0.1333
     15 C           3.7707   -1.1758   19.3671 C.ar    1  UNL1        0.1465
     16 C           6.7342   -3.6710   19.7561 C.3     1  UNL1        0.1396
     17 C           2.6729   -0.2666   19.8342 C.3     1  UNL1        0.0625
     18 C           1.2907   -0.8084   20.0490 C.3     1  UNL1        0.0291
     19 C           0.1930    0.1008   20.5161 C.3     1  UNL1        0.0926
     20 N           0.4773    1.5518   20.7684 N.pl3   1  UNL1       -0.2932
     21 C           1.8595    2.0936   20.5537 C.3     1  UNL1        0.0926
     22 C           2.9573    1.1844   20.0866 C.3     1  UNL1        0.0291
     23 C          -0.6205    2.4611   21.2356 C.ar    1  UNL1        0.1317
     24 C          -0.4226    3.3100   22.4563 C.ar    1  UNL1        0.0343
     25 C          -1.5204    4.2193   22.9234 C.ar    1  UNL1        0.0045
     26 C          -2.8160    4.2795   22.1698 C.ar    1  UNL1        0.0208
     27 C          -3.0138    3.4306   20.9491 C.ar    1  UNL1        0.1003
     28 N          -1.9160    2.5213   20.4820 N.ar    1  UNL1       -0.2292
@<TRIPOS>BOND
     1     1     2    1
     2     2     3    1
     3     3     4    1
     4     4     5   ar
     5     5     6   ar
     6     6     7    1
     7     6     8   ar
     8     8     9   ar
     9     9    10   ar
    10    10    11    1
    11    11    12   ar
    12    12    13   ar
    13    13    14   ar
    14    14    15   ar
    15    15    17    1
    16    17    18    1
    17    18    19    1
    18    19    20    1
    19    20    23    1
    20    23    24   ar
    21    24    25   ar
    22    25    26   ar
    23    26    27   ar
    24    27    28   ar
    25    20    21    1
    26    21    22    1
    27    12    16    1
    28    16     2    1
    29    10     4   ar
    30    15    11   ar
    31    22    17    1
    32    28    23   ar
@<TRIPOS>MOLECULE
*****
 28 32 0 0 0
SMALL
GASTEIGER

@<TRIPOS>ATOM
      1 C         -17.3682    4.4608   18.6105 C.3     1  UNL1        0.0902
      2 N         -16.4910    3.2499   18.4913 N.3     1  UNL1       -0.2612
      3 C         -17.0975    1.9586   18.9543 C.3     1  UNL1        0.1010
      4 C         -16.4861    0.5889   18.9653 C.ar    1  UNL1        0.0109
      5 C         -17.4389   -0.4322   19.5125 C.ar    1  UNL1        0.0099
      6 C         -17.0226   -1.8699   19.6103 C.ar    1  UNL1        0.0575
      7 CL        -17.9755   -2.8911   20.1576 Cl      1  UNL1       -0.0823
      8 C         -15.6535   -2.2866   19.1609 C.ar    1  UNL1        0.0129
      9 C         -14.7008   -1.2655   18.6136 C.ar    1  UNL1        0.0182
     10 C         -15.1170    0.1722   18.5158 C.ar    1  UNL1        0.0636
     11 N         -14.0213    1.0224   17.9444 N.ar    1  UNL1       -0.2799
     12 C         -14.0239    2.4992   17.6813 C.ar    1  UNL1        0.1632
     13 N         -12.6898    2.8696   17.1045 N.ar    1  UNL1       -0.1319
     14 N         -11.8626    1.6218   17.0111 N.ar    1  UNL1       -0.1333
     15 C         -12.6854    0.4802   17.5302 C.ar    1  UNL1        0.1465
     16 C         -15.1230    3.4905   17.9247 C.3     1  UNL1        0.1396
     17 C         -12.2492   -0.9521   17.6193 C.3     1  UNL1        0.0625
     18 C         -11.6094   -1.4646   18.8756 C.3     1  UNL1        0.0291
     19 C         -11.1732   -2.8969   18.9648 C.3     1  UNL1        0.0926
     20 N         -11.3766   -3.8169   17.7977 N.pl3   1  UNL1       -0.2932
     21 C         -12.0163   -3.3046   16.5414 C.3     1  UNL1        0.0926
     22 C         -12.4526   -1.8722   16.4522 C.3     1  UNL1        0.0291
     23 C         -10.9403   -5.2494   17.8868 C.ar    1  UNL1        0.1317
     24 C          -9.8785   -5.6503   18.8675 C.ar    1  UNL1        0.0343
     25 C          -9.4422   -7.0827   18.9567 C.ar    1  UNL1        0.0045
     26 C         -10.0677   -8.1141   18.0651 C.ar    1  UNL1        0.0208
     27 C         -11.1296   -7.7132   17.0845 C.ar    1  UNL1        0.1003
     28 N         -11.5659   -6.2807   16.9953 N.ar    1  UNL1       -0.2292
@<TRIPOS>BOND
     1     1     2    1
     2     2     3    1
     3     3     4    1
     4     4     5   ar
     5     5     6   ar
     6     6     7    1
     7     6     8   ar
     8     8     9   ar
     9     9    10   ar
    10    10    11    1
    11    11    12   ar
    12    12    13   ar
    13    13    14   ar
    14    14    15   ar
    15    15    17    1
    16    17    18    1
    17    18    19    1
    18    19    20    1
    19    20    23    1
    20    23    24   ar
    21    24    25   ar
    22    25    26   ar
    23    26    27   ar
    24    27    28   ar
    25    20    21    1
    26    21    22    1
    27    12    16    1
    28    16     2    1
    29    10     4   ar
    30    15    11   ar
    31    22    17    1
    32    28    23   ar
@<TRIPOS>MOLECULE
*****
 28 32 0 0 0
SMALL
GASTEIGER

@<TRIPOS>ATOM
      1 C          -0.3330    5.5004   33.6160 C.3     1  UNL1        0.0902
      2 N           0.5753    4.3371   33.3487 N.3     1  UNL1       -0.2612
      3 C           0.2822    3.5554   32.1025 C.3     1  UNL1        0.1010
      4 C           0.9980    2.3528   31.5626 C.ar    1  UNL1        0.0109
      5 C           0.3790    1.8755   30.2824 C.ar    1  UNL1        0.0099
      6 C           0.9459    0.6803   29.5752 C.ar    1  UNL1        0.0575
      7 CL          0.3269    0.2029   28.2950 Cl      1  UNL1       -0.0823
      8 C           2.1318   -0.0376   30.1483 C.ar    1  UNL1        0.0129
      9 C           2.7508    0.4397   31.4285 C.ar    1  UNL1        0.0182
     10 C           2.1839    1.6349   32.1357 C.ar    1  UNL1        0.0636
     11 N           2.9467    1.9423   33.3901 N.ar    1  UNL1       -0.2799
     12 C           2.7123    3.0435   34.3813 C.ar    1  UNL1        0.1632
     13 N           3.7456    2.9225   35.4617 N.ar    1  UNL1       -0.1319
     14 N           4.6189    1.7466   35.1383 N.ar    1  UNL1       -0.1333
     15 C           4.1252    1.1408   33.8579 C.ar    1  UNL1        0.1465
     16 C           1.6568    4.1093   34.3628 C.3     1  UNL1        0.1396
     17 C           4.7075   -0.0563   33.1669 C.3     1  UNL1        0.0625
     18 C           5.7119    0.1269   32.0678 C.3     1  UNL1        0.0291
     19 C           6.2942   -1.0702   31.3767 C.3     1  UNL1        0.0926
     20 N           5.8724   -2.4506   31.7846 N.pl3   1  UNL1       -0.2932
     21 C           4.8681   -2.6340   32.8836 C.3     1  UNL1        0.0926
     22 C           4.2857   -1.4368   33.5748 C.3     1  UNL1        0.0291
     23 C           6.4548   -3.6479   31.0935 C.ar    1  UNL1        0.1317
     24 C           6.9735   -4.8010   31.9004 C.ar    1  UNL1        0.0343
     25 C           7.5559   -5.9982   31.2093 C.ar    1  UNL1        0.0045
     26 C           7.6195   -6.0422   29.7114 C.ar    1  UNL1        0.0208
     27 C           7.1008   -4.8890   28.9044 C.ar    1  UNL1        0.1003
     28 N           6.5184   -3.6918   29.5955 N.ar    1  UNL1       -0.2292
@<TRIPOS>BOND
     1     1     2    1
     2     2     3    1
     3     3     4    1
     4     4     5   ar
     5     5     6   ar
     6     6     7    1
     7     6     8   ar
     8     8     9   ar
     9     9    10   ar
    10    10    11    1
    11    11    12   ar
    12    12    13   ar
    13    13    14   ar
    14    14    15   ar
    15    15    17    1
    16    17    18    1
    17    18    19    1
    18    19    20    1
    19    20    23    1
    20    23    24   ar
    21    24    25   ar
    22    25    26   ar
    23    26    27   ar
    24    27    28   ar
    25    20    21    1
    26    21    22    1
    27    12    16    1
    28    16     2    1
    29    10     4   ar
    30    15    11   ar
    31    22    17    1
    32    28    23   ar
@<TRIPOS>MOLECULE
*****
 28 32 0 0 0
SMALL
GASTEIGER

@<TRIPOS>ATOM
      1 C          -1.9965    3.5875   21.6019 C.3     1  UNL1        0.0902
      2 N          -0.8337    2.6460   21.4954 N.3     1  UNL1       -0.2612
      3 C          -0.1960    2.2498   22.7940 C.3     1  UNL1        0.1010
      4 C           0.9705    1.3349   23.0224 C.ar    1  UNL1        0.0109
      5 C           1.2899    1.2080   24.4824 C.ar    1  UNL1        0.0099
      6 C           2.4263    0.3366   24.9286 C.ar    1  UNL1        0.0575
      7 CL          2.7458    0.2097   26.3887 Cl      1  UNL1       -0.0823
      8 C           3.2434   -0.4080   23.9147 C.ar    1  UNL1        0.0129
      9 C           2.9240   -0.2812   22.4546 C.ar    1  UNL1        0.0182
     10 C           1.7875    0.5902   22.0084 C.ar    1  UNL1        0.0636
     11 N           1.6397    0.5766   20.5158 N.ar    1  UNL1       -0.2799
     12 C           0.6385    1.3042   19.6683 C.ar    1  UNL1        0.1632
     13 N           0.9088    0.9606   18.2335 N.ar    1  UNL1       -0.1319
     14 N           2.0770    0.0206   18.1941 N.ar    1  UNL1       -0.1333
     15 C           2.5288   -0.2167   19.6046 C.ar    1  UNL1        0.1465
     16 C          -0.4623    2.2252   20.1044 C.3     1  UNL1        0.1396
     17 C           3.6694   -1.0934   20.0294 C.3     1  UNL1        0.0625
     18 C           3.4631   -2.5713   20.1817 C.3     1  UNL1        0.0291
     19 C           4.6037   -3.4480   20.6064 C.3     1  UNL1        0.0926
     20 N           5.9506   -2.8468   20.8789 N.pl3   1  UNL1       -0.2932
     21 C           6.1570   -1.3689   20.7266 C.3     1  UNL1        0.0926
     22 C           5.0164   -0.4921   20.3019 C.3     1  UNL1        0.0291
     23 C           7.0913   -3.7235   21.3037 C.ar    1  UNL1        0.1317
     24 C           8.3410   -3.7817   20.4761 C.ar    1  UNL1        0.0343
     25 C           9.4816   -4.6584   20.9009 C.ar    1  UNL1        0.0045
     26 C           9.3725   -5.4768   22.1532 C.ar    1  UNL1        0.0208
     27 C           8.1228   -5.4186   22.9808 C.ar    1  UNL1        0.1003
     28 N           6.9821   -4.5419   22.5560 N.ar    1  UNL1       -0.2292
@<TRIPOS>BOND
     1     1     2    1
     2     2     3    1
     3     3     4    1
     4     4     5   ar
     5     5     6   ar
     6     6     7    1
     7     6     8   ar
     8     8     9   ar
     9     9    10   ar
    10    10    11    1
    11    11    12   ar
    12    12    13   ar
    13    13    14   ar
    14    14    15   ar
    15    15    17    1
    16    17    18    1
    17    18    19    1
    18    19    20    1
    19    20    23    1
    20    23    24   ar
    21    24    25   ar
    22    25    26   ar
    23    26    27   ar
    24    27    28   ar
    25    20    21    1
    26    21    22    1
    27    12    16    1
    28    16     2    1
    29    10     4   ar
    30    15    11   ar
    31    22    17    1
    32    28    23   ar
@<TRIPOS>MOLECULE
*****
 28 32 0 0 0
SMALL
GASTEIGER

@<TRIPOS>ATOM
      1 C           7.1616   -5.2295   25.3377 C.3     1  UNL1        0.0902
      2 N           6.9101   -4.5648   26.6586 N.3     1  UNL1       -0.2612
      3 C           6.4706   -3.1322   26.5931 C.3     1  UNL1        0.1010
      4 C           6.1437   -2.2014   27.7231 C.ar    1  UNL1        0.0109
      5 C           5.7436   -0.8466   27.2190 C.ar    1  UNL1        0.0099
      6 C           5.3755    0.2361   28.1896 C.ar    1  UNL1        0.0575
      7 CL          4.9753    1.5911   27.6855 Cl      1  UNL1       -0.0823
      8 C           5.4075   -0.0360   29.6644 C.ar    1  UNL1        0.0129
      9 C           5.8076   -1.3909   30.1685 C.ar    1  UNL1        0.0182
     10 C           6.1757   -2.4736   29.1979 C.ar    1  UNL1        0.0636
     11 N           6.5425   -3.7436   29.9067 N.ar    1  UNL1       -0.2799
     12 C           6.9678   -5.0552   29.3161 C.ar    1  UNL1        0.1632
     13 N           7.2227   -6.0106   30.4439 N.ar    1  UNL1       -0.1319
     14 N           6.9550   -5.2896   31.7317 N.ar    1  UNL1       -0.1333
     15 C           6.5346   -3.8885   31.3998 C.ar    1  UNL1        0.1465
     16 C           7.1314   -5.4206   27.8705 C.3     1  UNL1        0.1396
     17 C           6.1702   -2.8200   32.3873 C.3     1  UNL1        0.0625
     18 C           7.2073   -1.8386   32.8473 C.3     1  UNL1        0.0291
     19 C           6.8429   -0.7701   33.8349 C.3     1  UNL1        0.0926
     20 N           5.4415   -0.6828   34.3626 N.pl3   1  UNL1       -0.2932
     21 C           4.4045   -1.6641   33.9026 C.3     1  UNL1        0.0926
     22 C           4.7688   -2.7327   32.9150 C.3     1  UNL1        0.0291
     23 C           5.0772    0.3858   35.3502 C.ar    1  UNL1        0.1317
     24 C           4.6231    0.0091   36.7293 C.ar    1  UNL1        0.0343
     25 C           4.2587    1.0778   37.7170 C.ar    1  UNL1        0.0045
     26 C           4.3484    2.5229   37.3254 C.ar    1  UNL1        0.0208
     27 C           4.8024    2.8996   35.9463 C.ar    1  UNL1        0.1003
     28 N           5.1668    1.8310   34.9587 N.ar    1  UNL1       -0.2292
@<TRIPOS>BOND
     1     1     2    1
     2     2     3    1
     3     3     4    1
     4     4     5   ar
     5     5     6   ar
     6     6     7    1
     7     6     8   ar
     8     8     9   ar
     9     9    10   ar
    10    10    11    1
    11    11    12   ar
    12    12    13   ar
    13    13    14   ar
    14    14    15   ar
    15    15    17    1
    16    17    18    1
    17    18    19    1
    18    19    20    1
    19    20    23    1
    20    23    24   ar
    21    24    25   ar
    22    25    26   ar
    23    26    27   ar
    24    27    28   ar
    25    20    21    1
    26    21    22    1
    27    12    16    1
    28    16     2    1
    29    10     4   ar
    30    15    11   ar
    31    22    17    1
    32    28    23   ar
@<TRIPOS>MOLECULE
*****
 28 32 0 0 0
SMALL
GASTEIGER

@<TRIPOS>ATOM
      1 C          -0.5805    3.3578   18.8024 C.3     1  UNL1        0.0902
      2 N           0.3810    2.3510   19.3606 N.3     1  UNL1       -0.2612
      3 C           0.4054    2.2336   20.8558 C.3     1  UNL1        0.1010
      4 C           1.2458    1.3309   21.7096 C.ar    1  UNL1        0.0109
      5 C           0.9578    1.5315   23.1679 C.ar    1  UNL1        0.0099
      6 C           1.6936    0.7238   24.1956 C.ar    1  UNL1        0.0575
      7 CL          1.4057    0.9244   25.6541 Cl      1  UNL1       -0.0823
      8 C           2.7173   -0.2845   23.7650 C.ar    1  UNL1        0.0129
      9 C           3.0052   -0.4850   22.3067 C.ar    1  UNL1        0.0182
     10 C           2.2695    0.3226   21.2790 C.ar    1  UNL1        0.0636
     11 N           2.7056   -0.0319   19.8882 N.ar    1  UNL1       -0.2799
     12 C           2.2258    0.5341   18.5846 C.ar    1  UNL1        0.1632
     13 N           2.9719   -0.1516   17.4788 N.ar    1  UNL1       -0.1319
     14 N           3.9129   -1.1415   18.0989 N.ar    1  UNL1       -0.1333
     15 C           3.7484   -1.0676   19.5880 C.ar    1  UNL1        0.1465
     16 C           1.1912    1.5947   18.3499 C.3     1  UNL1        0.1396
     17 C           4.4953   -1.8856   20.5993 C.3     1  UNL1        0.0625
     18 C           3.8786   -3.1336   21.1579 C.3     1  UNL1        0.0291
     19 C           4.6255   -3.9516   22.1692 C.3     1  UNL1        0.0926
     20 N           5.9894   -3.5217   22.6220 N.pl3   1  UNL1       -0.2932
     21 C           6.6062   -2.2736   22.0635 C.3     1  UNL1        0.0926
     22 C           5.8592   -1.4556   21.0521 C.3     1  UNL1        0.0291
     23 C           6.7364   -4.3397   23.6333 C.ar    1  UNL1        0.1317
     24 C           6.6113   -4.0231   25.0942 C.ar    1  UNL1        0.0343
     25 C           7.3584   -4.8411   26.1056 C.ar    1  UNL1        0.0045
     26 C           8.2305   -5.9757   25.6560 C.ar    1  UNL1        0.0208
     27 C           8.3556   -6.2923   24.1951 C.ar    1  UNL1        0.1003
     28 N           7.6085   -5.4743   23.1838 N.ar    1  UNL1       -0.2292
@<TRIPOS>BOND
     1     1     2    1
     2     2     3    1
     3     3     4    1
     4     4     5   ar
     5     5     6   ar
     6     6     7    1
     7     6     8   ar
     8     8     9   ar
     9     9    10   ar
    10    10    11    1
    11    11    12   ar
    12    12    13   ar
    13    13    14   ar
    14    14    15   ar
    15    15    17    1
    16    17    18    1
    17    18    19    1
    18    19    20    1
    19    20    23    1
    20    23    24   ar
    21    24    25   ar
    22    25    26   ar
    23    26    27   ar
    24    27    28   ar
    25    20    21    1
    26    21    22    1
    27    12    16    1
    28    16     2    1
    29    10     4   ar
    30    15    11   ar
    31    22    17    1
    32    28    23   ar
@<TRIPOS>MOLECULE
*****
 28 32 0 0 0
SMALL
GASTEIGER

@<TRIPOS>ATOM
      1 C          -3.4729    4.9446   26.1416 C.3     1  UNL1        0.0902
      2 N          -2.5792    4.2008   25.1941 N.3     1  UNL1       -0.2612
      3 C          -1.4805    3.4004   25.8284 C.3     1  UNL1        0.1010
      4 C          -0.4336    2.5571   25.1629 C.ar    1  UNL1        0.0109
      5 C           0.4798    1.9221   26.1691 C.ar    1  UNL1        0.0099
      6 C           1.6000    1.0360   25.7110 C.ar    1  UNL1        0.0575
      7 CL          2.5134    0.4009   26.7173 Cl      1  UNL1       -0.0823
      8 C           1.8069    0.7849   24.2467 C.ar    1  UNL1        0.0129
      9 C           0.8935    1.4200   23.2405 C.ar    1  UNL1        0.0182
     10 C          -0.2267    2.3061   23.6986 C.ar    1  UNL1        0.0636
     11 N          -1.0157    2.8362   22.5382 N.ar    1  UNL1       -0.2799
     12 C          -2.2064    3.7484   22.5555 C.ar    1  UNL1        0.1632
     13 N          -2.6309    3.9833   21.1362 N.ar    1  UNL1       -0.1319
     14 N          -1.7026    3.2164   20.2417 N.ar    1  UNL1       -0.1333
     15 C          -0.7043    2.5074   21.1082 C.ar    1  UNL1        0.1465
     16 C          -2.9022    4.3556   23.7375 C.3     1  UNL1        0.1396
     17 C           0.4096    1.6248   20.6288 C.3     1  UNL1        0.0625
     18 C           1.7466    2.2180   20.2962 C.3     1  UNL1        0.0291
     19 C           2.8605    1.3354   19.8168 C.3     1  UNL1        0.0926
     20 N           2.6377   -0.1407   19.6701 N.pl3   1  UNL1       -0.2932
     21 C           1.3008   -0.7340   20.0027 C.3     1  UNL1        0.0926
     22 C           0.1868    0.1486   20.4821 C.3     1  UNL1        0.0291
     23 C           3.7517   -1.0234   19.1907 C.ar    1  UNL1        0.1317
     24 C           3.6651   -2.5091   19.3785 C.ar    1  UNL1        0.0343
     25 C           4.7791   -3.3919   18.8991 C.ar    1  UNL1        0.0045
     26 C           5.9796   -2.7889   18.2320 C.ar    1  UNL1        0.0208
     27 C           6.0663   -1.3033   18.0442 C.ar    1  UNL1        0.1003
     28 N           4.9523   -0.4205   18.5236 N.ar    1  UNL1       -0.2292
@<TRIPOS>BOND
     1     1     2    1
     2     2     3    1
     3     3     4    1
     4     4     5   ar
     5     5     6   ar
     6     6     7    1
     7     6     8   ar
     8     8     9   ar
     9     9    10   ar
    10    10    11    1
    11    11    12   ar
    12    12    13   ar
    13    13    14   ar
    14    14    15   ar
    15    15    17    1
    16    17    18    1
    17    18    19    1
    18    19    20    1
    19    20    23    1
    20    23    24   ar
    21    24    25   ar
    22    25    26   ar
    23    26    27   ar
    24    27    28   ar
    25    20    21    1
    26    21    22    1
    27    12    16    1
    28    16     2    1
    29    10     4   ar
    30    15    11   ar
    31    22    17    1
    32    28    23   ar
