@<TRIPOS>MOLECULE
*****
 32 36 0 0 0
SMALL
GASTEIGER

@<TRIPOS>ATOM
      1 C         -10.0498  -17.0516   22.5020 C.ar    1  UNL1        0.0436
      2 C         -11.4791  -16.8264   22.8972 C.ar    1  UNL1        0.0142
      3 C         -12.5796  -17.5420   22.1714 C.ar    1  UNL1        0.0010
      4 C         -12.2507  -18.4828   21.0504 C.ar    1  UNL1       -0.0032
      5 C         -10.8214  -18.7080   20.6551 C.ar    1  UNL1       -0.0091
      6 C          -9.7209  -17.9924   21.3809 C.ar    1  UNL1       -0.0101
      7 C          -8.2915  -18.2175   20.9857 C.3     1  UNL1        0.0444
      8 C          -7.9626  -19.1583   19.8646 C.3     1  UNL1        0.0749
      9 N          -9.0632  -19.8739   19.1388 N.3     1  UNL1       -0.2934
     10 C         -10.4925  -19.6488   19.5340 C.3     1  UNL1        0.0954
     11 H          -8.8830  -20.8726   19.2418 H       1  UNL1        0.1236
     12 C          -7.4305  -15.6039   24.9737 C.3     1  UNL1        0.0791
     13 C          -7.0809  -14.8655   23.7156 C.3     1  UNL1        0.0391
     14 C          -8.0196  -15.3180   22.6366 C.3     1  UNL1        0.0923
     15 N          -8.9493  -16.3359   23.2278 N.pl3   1  UNL1       -0.3063
     16 C          -8.5852  -16.5126   24.6722 C.3     1  UNL1        0.1067
     17 C          -5.2601  -15.2599   26.3596 C.3     1  UNL1        0.0897
     18 N          -6.7456  -15.4589   26.3003 N.3     1  UNL1       -0.2699
     19 C          -7.5463  -15.5130   27.5676 C.3     1  UNL1        0.0897
     20 C          -6.5333  -19.3834   19.4694 C.3     1  UNL1        0.0886
     21 N          -5.5699  -19.9846   20.4494 N.3     1  UNL1       -0.2667
     22 C          -5.5029  -21.4736   20.6181 C.3     1  UNL1        0.0899
     23 C          -4.6736  -19.0968   21.2608 C.3     1  UNL1        0.0978
     24 C          -5.0308  -18.7654   22.6795 C.3     1  UNL1        0.0224
     25 C          -4.1344  -17.8776   23.4908 C.3     1  UNL1        0.0065
     26 C          -2.8808  -17.3212   22.8835 C.3     1  UNL1        0.0277
     27 C          -2.5235  -17.6525   21.4649 C.ar    1  UNL1       -0.0073
     28 C          -1.2699  -17.0961   20.8576 C.ar    1  UNL1       -0.0015
     29 C          -0.9126  -17.4275   19.4389 C.ar    1  UNL1        0.0203
     30 C          -1.8090  -18.3153   18.6276 C.ar    1  UNL1        0.0985
     31 N          -3.0626  -18.8717   19.2349 N.ar    1  UNL1       -0.2471
     32 C          -3.4199  -18.5404   20.6535 C.ar    1  UNL1        0.0695
@<TRIPOS>BOND
     1    17    18    1
     2    18    19    1
     3    12    18    1
     4    12    13    1
     5    13    14    1
     6    14    15    1
     7    15     1    1
     8     1     2   ar
     9     2     3   ar
    10     3     4   ar
    11     4     5   ar
    12     5     6   ar
    13     6     7    1
    14     7     8    1
    15     8    20    1
    16    20    21    1
    17    21    22    1
    18    23    21    1
    19    23    24    1
    20    24    25    1
    21    25    26    1
    22    26    27    1
    23    27    28   ar
    24    28    29   ar
    25    29    30   ar
    26    30    31   ar
    27    31    32   ar
    28     8     9    1
    29     9    10    1
    30    15    16    1
    31    16    12    1
    32     6     1   ar
    33    32    23    1
    34    10     5    1
    35    32    27   ar
    36     9    11    1
@<TRIPOS>MOLECULE
*****
 32 36 0 0 0
SMALL
GASTEIGER

@<TRIPOS>ATOM
      1 C         -10.3374  -16.6866   22.7251 C.ar    1  UNL1        0.0436
      2 C         -11.6886  -16.1803   23.1348 C.ar    1  UNL1        0.0142
      3 C         -12.9250  -16.7452   22.5007 C.ar    1  UNL1        0.0010
      4 C         -12.8102  -17.8164   21.4570 C.ar    1  UNL1       -0.0032
      5 C         -11.4590  -18.3226   21.0473 C.ar    1  UNL1       -0.0091
      6 C         -10.2226  -17.7577   21.6813 C.ar    1  UNL1       -0.0101
      7 C          -8.8713  -18.2639   21.2716 C.3     1  UNL1        0.0444
      8 C          -8.7565  -19.3351   20.2278 C.3     1  UNL1        0.0749
      9 N          -9.9930  -19.9000   19.5938 N.3     1  UNL1       -0.2934
     10 C         -11.3443  -19.3938   20.0035 C.3     1  UNL1        0.0954
     11 H          -9.9863  -20.9033   19.7778 H       1  UNL1        0.1236
     12 C          -7.3911  -15.5643   24.9890 C.3     1  UNL1        0.0791
     13 C          -7.0052  -14.9404   23.6806 C.3     1  UNL1        0.0391
     14 C          -8.0619  -15.2849   22.6733 C.3     1  UNL1        0.0923
     15 N          -9.1009  -16.1217   23.3592 N.pl3   1  UNL1       -0.3063
     16 C          -8.6863  -16.2943   24.7903 C.3     1  UNL1        0.1067
     17 C          -7.2383  -15.9366   27.5557 C.3     1  UNL1        0.0897
     18 N          -6.6175  -15.4740   26.2710 N.3     1  UNL1       -0.2699
     19 C          -5.2232  -14.9211   26.2683 C.3     1  UNL1        0.0897
     20 C          -7.4053  -19.8413   19.8181 C.3     1  UNL1        0.0886
     21 N          -6.3507  -20.0885   20.8557 N.3     1  UNL1       -0.2667
     22 C          -6.7123  -20.7598   22.1475 C.3     1  UNL1        0.0899
     23 C          -4.9345  -19.6645   20.6016 C.3     1  UNL1        0.0978
     24 C          -4.1676  -20.2585   19.4575 C.3     1  UNL1        0.0224
     25 C          -2.7514  -19.8345   19.2034 C.3     1  UNL1        0.0065
     26 C          -2.1021  -18.8164   20.0934 C.3     1  UNL1        0.0277
     27 C          -2.8690  -18.2224   21.2374 C.ar    1  UNL1       -0.0073
     28 C          -2.2198  -17.2044   22.1274 C.ar    1  UNL1       -0.0015
     29 C          -2.9868  -16.6103   23.2715 C.ar    1  UNL1        0.0203
     30 C          -4.4029  -17.0344   23.5256 C.ar    1  UNL1        0.0985
     31 N          -5.0522  -18.0524   22.6357 N.ar    1  UNL1       -0.2471
     32 C          -4.2853  -18.6464   21.4916 C.ar    1  UNL1        0.0695
@<TRIPOS>BOND
     1    17    18    1
     2    18    19    1
     3    12    18    1
     4    12    13    1
     5    13    14    1
     6    14    15    1
     7    15     1    1
     8     1     2   ar
     9     2     3   ar
    10     3     4   ar
    11     4     5   ar
    12     5     6   ar
    13     6     7    1
    14     7     8    1
    15     8    20    1
    16    20    21    1
    17    21    22    1
    18    23    21    1
    19    23    24    1
    20    24    25    1
    21    25    26    1
    22    26    27    1
    23    27    28   ar
    24    28    29   ar
    25    29    30   ar
    26    30    31   ar
    27    31    32   ar
    28     8     9    1
    29     9    10    1
    30    15    16    1
    31    16    12    1
    32     6     1   ar
    33    32    23    1
    34    10     5    1
    35    32    27   ar
    36     9    11    1
@<TRIPOS>MOLECULE
*****
 32 36 0 0 0
SMALL
GASTEIGER

@<TRIPOS>ATOM
      1 C          -6.0243  -20.2336   20.9384 C.ar    1  UNL1        0.0436
      2 C          -5.8792  -21.2224   19.8198 C.ar    1  UNL1        0.0142
      3 C          -4.5191  -21.5455   19.2762 C.ar    1  UNL1        0.0010
      4 C          -3.3040  -20.8799   19.8512 C.ar    1  UNL1       -0.0032
      5 C          -3.4491  -19.8911   20.9698 C.ar    1  UNL1       -0.0091
      6 C          -4.8092  -19.5680   21.5134 C.ar    1  UNL1       -0.0101
      7 C          -4.9544  -18.5792   22.6320 C.3     1  UNL1        0.0444
      8 C          -3.7393  -17.9136   23.2070 C.3     1  UNL1        0.0749
      9 N          -2.3791  -18.2368   22.6634 N.3     1  UNL1       -0.2934
     10 C          -2.2340  -19.2255   21.5448 C.3     1  UNL1        0.0954
     11 H          -1.8269  -18.5921   23.4439 H       1  UNL1        0.1236
     12 C          -9.6879  -19.1631   21.6436 C.3     1  UNL1        0.0791
     13 C          -9.2671  -19.6632   22.9938 C.3     1  UNL1        0.0391
     14 C          -7.8435  -20.1251   22.8939 C.3     1  UNL1        0.0923
     15 N          -7.3845  -19.9104   21.4820 N.pl3   1  UNL1       -0.3063
     16 C          -8.5244  -19.3159   20.7094 C.3     1  UNL1        0.1067
     17 C         -12.1540  -18.6599   22.2882 C.3     1  UNL1        0.0897
     18 N         -11.0357  -18.6076   21.2899 N.3     1  UNL1       -0.2699
     19 C         -11.2651  -18.0000   19.9378 C.3     1  UNL1        0.0897
     20 C          -3.8844  -16.9249   24.3256 C.3     1  UNL1        0.0886
     21 N          -4.7908  -15.7403   24.1667 N.3     1  UNL1       -0.2667
     22 C          -4.4416  -14.6540   23.1928 C.3     1  UNL1        0.0899
     23 C          -6.0463  -15.6419   24.9815 C.3     1  UNL1        0.0978
     24 C          -5.9632  -15.4729   26.4697 C.3     1  UNL1        0.0224
     25 C          -7.2187  -15.3745   27.2846 C.3     1  UNL1        0.0065
     26 C          -8.5573  -15.4450   26.6113 C.3     1  UNL1        0.0277
     27 C          -8.6403  -15.6140   25.1232 C.ar    1  UNL1       -0.0073
     28 C          -9.9789  -15.6846   24.4500 C.ar    1  UNL1       -0.0015
     29 C         -10.0620  -15.8536   22.9618 C.ar    1  UNL1        0.0203
     30 C          -8.8065  -15.9520   22.1470 C.ar    1  UNL1        0.0985
     31 N          -7.4679  -15.8814   22.8202 N.ar    1  UNL1       -0.2471
     32 C          -7.3848  -15.7124   24.3083 C.ar    1  UNL1        0.0695
@<TRIPOS>BOND
     1    17    18    1
     2    18    19    1
     3    12    18    1
     4    12    13    1
     5    13    14    1
     6    14    15    1
     7    15     1    1
     8     1     2   ar
     9     2     3   ar
    10     3     4   ar
    11     4     5   ar
    12     5     6   ar
    13     6     7    1
    14     7     8    1
    15     8    20    1
    16    20    21    1
    17    21    22    1
    18    23    21    1
    19    23    24    1
    20    24    25    1
    21    25    26    1
    22    26    27    1
    23    27    28   ar
    24    28    29   ar
    25    29    30   ar
    26    30    31   ar
    27    31    32   ar
    28     8     9    1
    29     9    10    1
    30    15    16    1
    31    16    12    1
    32     6     1   ar
    33    32    23    1
    34    10     5    1
    35    32    27   ar
    36     9    11    1
@<TRIPOS>MOLECULE
*****
 32 36 0 0 0
SMALL
GASTEIGER

@<TRIPOS>ATOM
      1 C           3.2401   -1.5945   20.3515 C.ar    1  UNL1        0.0436
      2 C           3.5664   -2.3329   19.0874 C.ar    1  UNL1        0.0142
      3 C           4.4983   -3.5077   19.1243 C.ar    1  UNL1        0.0010
      4 C           5.1039   -3.9441   20.4254 C.ar    1  UNL1       -0.0032
      5 C           4.7776   -3.2056   21.6896 C.ar    1  UNL1       -0.0091
      6 C           3.8457   -2.0308   21.6526 C.ar    1  UNL1       -0.0101
      7 C           3.5194   -1.2923   22.9168 C.3     1  UNL1        0.0444
      8 C           4.1250   -1.7287   24.2179 C.3     1  UNL1        0.0749
      9 N           5.0569   -2.9035   24.2548 N.3     1  UNL1       -0.2934
     10 C           5.3832   -3.6420   22.9907 C.3     1  UNL1        0.0954
     11 H           4.6482   -3.5835   24.8959 H       1  UNL1        0.1236
     12 C           1.4595    1.8500   20.1766 C.3     1  UNL1        0.0791
     13 C           0.2887    0.9264   20.3392 C.3     1  UNL1        0.0391
     14 C           0.8133   -0.4763   20.4245 C.3     1  UNL1        0.0923
     15 N           2.3082   -0.4196   20.3147 N.pl3   1  UNL1       -0.3063
     16 C           2.7076    1.0181   20.1615 C.3     1  UNL1        0.1067
     17 C           1.2701    3.9775   18.6976 C.3     1  UNL1        0.0897
     18 N           1.3937    3.3433   20.0512 N.3     1  UNL1       -0.2699
     19 C           1.4514    4.2024   21.2795 C.3     1  UNL1        0.0897
     20 C           3.7987   -0.9902   25.4821 C.3     1  UNL1        0.0886
     21 N           3.5397    0.4867   25.4425 N.3     1  UNL1       -0.2667
     22 C           4.6897    1.4499   25.4371 C.3     1  UNL1        0.0899
     23 C           2.1309    1.0005   25.4082 C.3     1  UNL1        0.0978
     24 C           1.5728    1.5751   24.1399 C.3     1  UNL1        0.0224
     25 C           0.1640    2.0889   24.1056 C.3     1  UNL1        0.0065
     26 C          -0.6868    2.0281   25.3395 C.3     1  UNL1        0.0277
     27 C          -0.1287    1.4535   26.6077 C.ar    1  UNL1       -0.0073
     28 C          -0.9795    1.3927   27.8416 C.ar    1  UNL1       -0.0015
     29 C          -0.4214    0.8180   29.1098 C.ar    1  UNL1        0.0203
     30 C           0.9874    0.3043   29.1441 C.ar    1  UNL1        0.0985
     31 N           1.8382    0.3651   27.9103 N.ar    1  UNL1       -0.2471
     32 C           1.2802    0.9397   26.6421 C.ar    1  UNL1        0.0695
@<TRIPOS>BOND
     1    17    18    1
     2    18    19    1
     3    12    18    1
     4    12    13    1
     5    13    14    1
     6    14    15    1
     7    15     1    1
     8     1     2   ar
     9     2     3   ar
    10     3     4   ar
    11     4     5   ar
    12     5     6   ar
    13     6     7    1
    14     7     8    1
    15     8    20    1
    16    20    21    1
    17    21    22    1
    18    23    21    1
    19    23    24    1
    20    24    25    1
    21    25    26    1
    22    26    27    1
    23    27    28   ar
    24    28    29   ar
    25    29    30   ar
    26    30    31   ar
    27    31    32   ar
    28     8     9    1
    29     9    10    1
    30    15    16    1
    31    16    12    1
    32     6     1   ar
    33    32    23    1
    34    10     5    1
    35    32    27   ar
    36     9    11    1
@<TRIPOS>MOLECULE
*****
 32 36 0 0 0
SMALL
GASTEIGER

@<TRIPOS>ATOM
      1 C          -4.7614  -18.9267   21.7245 C.ar    1  UNL1        0.0436
      2 C          -3.2998  -19.2516   21.6344 C.ar    1  UNL1        0.0142
      3 C          -2.3103  -18.4939   22.4690 C.ar    1  UNL1        0.0010
      4 C          -2.7824  -17.4113   23.3937 C.ar    1  UNL1       -0.0032
      5 C          -4.2440  -17.0864   23.4838 C.ar    1  UNL1       -0.0091
      6 C          -5.2335  -17.8441   22.6492 C.ar    1  UNL1       -0.0101
      7 C          -6.6952  -17.5193   22.7392 C.3     1  UNL1        0.0444
      8 C          -7.1672  -16.4366   23.6639 C.3     1  UNL1        0.0749
      9 N          -6.1776  -15.6789   24.4986 N.3     1  UNL1       -0.2934
     10 C          -4.7161  -16.0038   24.4085 C.3     1  UNL1        0.0954
     11 H          -6.4497  -15.8134   25.4724 H       1  UNL1        0.1236
     12 C          -7.7156  -20.2450   19.5795 C.3     1  UNL1        0.0791
     13 C          -6.8320  -21.4561   19.6313 C.3     1  UNL1        0.0391
     14 C          -5.6178  -21.1096   20.4412 C.3     1  UNL1        0.0923
     15 N          -5.7510  -19.6845   20.8898 N.pl3   1  UNL1       -0.3063
     16 C          -7.0475  -19.1501   20.3572 C.3     1  UNL1        0.1067
     17 C         -10.1206  -19.2735   19.4313 C.3     1  UNL1        0.0897
     18 N          -9.0355  -20.1462   18.8737 N.3     1  UNL1       -0.2699
     19 C          -9.2703  -20.9201   17.6104 C.3     1  UNL1        0.0897
     20 C          -8.6288  -16.1118   23.7540 C.3     1  UNL1        0.0886
     21 N          -9.6090  -17.1715   24.1615 N.3     1  UNL1       -0.2667
     22 C          -9.3037  -18.0681   25.3248 C.3     1  UNL1        0.0899
     23 C         -10.8944  -17.3348   23.4059 C.3     1  UNL1        0.0978
     24 C         -12.0249  -18.1150   24.0087 C.3     1  UNL1        0.0224
     25 C         -13.3103  -18.2782   23.2531 C.3     1  UNL1        0.0065
     26 C         -13.4653  -17.6615   21.8946 C.3     1  UNL1        0.0277
     27 C         -12.3348  -16.8814   21.2917 C.ar    1  UNL1       -0.0073
     28 C         -12.4898  -16.2646   19.9332 C.ar    1  UNL1       -0.0015
     29 C         -11.3592  -15.4845   19.3303 C.ar    1  UNL1        0.0203
     30 C         -10.0738  -15.3212   20.0860 C.ar    1  UNL1        0.0985
     31 N          -9.9189  -15.9380   21.4445 N.ar    1  UNL1       -0.2471
     32 C         -11.0493  -16.7180   22.0474 C.ar    1  UNL1        0.0695
@<TRIPOS>BOND
     1    17    18    1
     2    18    19    1
     3    12    18    1
     4    12    13    1
     5    13    14    1
     6    14    15    1
     7    15     1    1
     8     1     2   ar
     9     2     3   ar
    10     3     4   ar
    11     4     5   ar
    12     5     6   ar
    13     6     7    1
    14     7     8    1
    15     8    20    1
    16    20    21    1
    17    21    22    1
    18    23    21    1
    19    23    24    1
    20    24    25    1
    21    25    26    1
    22    26    27    1
    23    27    28   ar
    24    28    29   ar
    25    29    30   ar
    26    30    31   ar
    27    31    32   ar
    28     8     9    1
    29     9    10    1
    30    15    16    1
    31    16    12    1
    32     6     1   ar
    33    32    23    1
    34    10     5    1
    35    32    27   ar
    36     9    11    1
@<TRIPOS>MOLECULE
*****
 32 36 0 0 0
SMALL
GASTEIGER

@<TRIPOS>ATOM
      1 C           8.3785   -6.0915   27.3640 C.ar    1  UNL1        0.0436
      2 C           9.2020   -7.3431   27.4370 C.ar    1  UNL1        0.0142
      3 C           9.5359   -8.0954   26.1831 C.ar    1  UNL1        0.0010
      4 C           9.0464   -7.5961   24.8560 C.ar    1  UNL1       -0.0032
      5 C           8.2229   -6.3445   24.7829 C.ar    1  UNL1       -0.0091
      6 C           7.8889   -5.5922   26.0369 C.ar    1  UNL1       -0.0101
      7 C           7.0654   -4.3406   25.9639 C.3     1  UNL1        0.0444
      8 C           6.5759   -3.8413   24.6369 C.3     1  UNL1        0.0749
      9 N           6.9099   -4.5936   23.3828 N.3     1  UNL1       -0.2934
     10 C           7.7334   -5.8452   23.4559 C.3     1  UNL1        0.0954
     11 H           7.4120   -3.9458   22.7757 H       1  UNL1        0.1236
     12 C           8.0916   -3.7033   30.4102 C.3     1  UNL1        0.0791
     13 C           6.9693   -4.6598   30.6852 C.3     1  UNL1        0.0391
     14 C           6.9402   -5.6709   29.5775 C.3     1  UNL1        0.0923
     15 N           8.0445   -5.3392   28.6180 N.pl3   1  UNL1       -0.3063
     16 C           8.7560   -4.1232   29.1326 C.3     1  UNL1        0.1067
     17 C           7.8729   -2.3602   32.6234 C.3     1  UNL1        0.0897
     18 N           8.4810   -2.5324   31.2631 N.3     1  UNL1       -0.2699
     19 C           9.4785   -1.5336   30.7556 C.3     1  UNL1        0.0897
     20 C           5.7524   -2.5897   24.5638 C.3     1  UNL1        0.0886
     21 N           5.8848   -1.6726   23.3842 N.3     1  UNL1       -0.2667
     22 C           7.1531   -0.8999   23.1736 C.3     1  UNL1        0.0899
     23 C           4.7489   -1.5282   22.4153 C.3     1  UNL1        0.0978
     24 C           3.6810   -0.5032   22.6589 C.3     1  UNL1        0.0224
     25 C           2.5451   -0.3588   21.6900 C.3     1  UNL1        0.0065
     26 C           2.4770   -1.2392   20.4775 C.3     1  UNL1        0.0277
     27 C           3.5448   -2.2641   20.2339 C.ar    1  UNL1       -0.0073
     28 C           3.4767   -3.1445   19.0213 C.ar    1  UNL1       -0.0015
     29 C           4.5446   -4.1695   18.7778 C.ar    1  UNL1        0.0203
     30 C           5.6804   -4.3139   19.7467 C.ar    1  UNL1        0.0985
     31 N           5.7486   -3.4335   20.9592 N.ar    1  UNL1       -0.2471
     32 C           4.6808   -2.4086   21.2028 C.ar    1  UNL1        0.0695
@<TRIPOS>BOND
     1    17    18    1
     2    18    19    1
     3    12    18    1
     4    12    13    1
     5    13    14    1
     6    14    15    1
     7    15     1    1
     8     1     2   ar
     9     2     3   ar
    10     3     4   ar
    11     4     5   ar
    12     5     6   ar
    13     6     7    1
    14     7     8    1
    15     8    20    1
    16    20    21    1
    17    21    22    1
    18    23    21    1
    19    23    24    1
    20    24    25    1
    21    25    26    1
    22    26    27    1
    23    27    28   ar
    24    28    29   ar
    25    29    30   ar
    26    30    31   ar
    27    31    32   ar
    28     8     9    1
    29     9    10    1
    30    15    16    1
    31    16    12    1
    32     6     1   ar
    33    32    23    1
    34    10     5    1
    35    32    27   ar
    36     9    11    1
@<TRIPOS>MOLECULE
*****
 32 36 0 0 0
SMALL
GASTEIGER

@<TRIPOS>ATOM
      1 C           7.0163   -4.1094   21.4351 C.ar    1  UNL1        0.0436
      2 C           8.1804   -5.0165   21.1668 C.ar    1  UNL1        0.0142
      3 C           8.9976   -5.5454   22.3080 C.ar    1  UNL1        0.0010
      4 C           8.6507   -5.1672   23.7175 C.ar    1  UNL1       -0.0032
      5 C           7.4866   -4.2601   23.9857 C.ar    1  UNL1       -0.0091
      6 C           6.6694   -3.7312   22.8445 C.ar    1  UNL1       -0.0101
      7 C           5.5052   -2.8241   23.1128 C.3     1  UNL1        0.0444
      8 C           5.1583   -2.4459   24.5222 C.3     1  UNL1        0.0749
      9 N           5.9756   -2.9748   25.6635 N.3     1  UNL1       -0.2934
     10 C           7.1397   -3.8819   25.3952 C.3     1  UNL1        0.0954
     11 H           5.3363   -3.4878   26.2705 H       1  UNL1        0.1236
     12 C           5.3911   -2.1682   18.4929 C.3     1  UNL1        0.0791
     13 C           4.4914   -3.3652   18.5825 C.3     1  UNL1        0.0391
     14 C           4.9907   -4.2380   19.6955 C.3     1  UNL1        0.0923
     15 N           6.1989   -3.5805   20.2938 N.pl3   1  UNL1       -0.3063
     16 C           6.4464   -2.3014   19.5506 C.3     1  UNL1        0.1067
     17 C           3.9480   -0.7870   16.8317 C.3     1  UNL1        0.0897
     18 N           5.2587   -1.0368   17.5170 N.3     1  UNL1       -0.2699
     19 C           6.4370   -0.1553   17.2263 C.3     1  UNL1        0.0897
     20 C           3.9942   -1.5388   24.7905 C.3     1  UNL1        0.0886
     21 N           4.0312   -0.1134   24.3250 N.3     1  UNL1       -0.2667
     22 C           5.3306    0.6358   24.3057 C.3     1  UNL1        0.0899
     23 C           2.7689    0.5629   23.8787 C.3     1  UNL1        0.0978
     24 C           2.0746    1.5316   24.7896 C.3     1  UNL1        0.0224
     25 C           0.8123    2.2079   24.3433 C.3     1  UNL1        0.0065
     26 C           0.2442    1.9155   22.9862 C.3     1  UNL1        0.0277
     27 C           0.9384    0.9468   22.0754 C.ar    1  UNL1       -0.0073
     28 C           0.3703    0.6544   20.7182 C.ar    1  UNL1       -0.0015
     29 C           1.0646   -0.3144   19.8074 C.ar    1  UNL1        0.0203
     30 C           2.3269   -0.9906   20.2536 C.ar    1  UNL1        0.0985
     31 N           2.8950   -0.6982   21.6107 N.ar    1  UNL1       -0.2471
     32 C           2.2008    0.2705   22.5216 C.ar    1  UNL1        0.0695
@<TRIPOS>BOND
     1    17    18    1
     2    18    19    1
     3    12    18    1
     4    12    13    1
     5    13    14    1
     6    14    15    1
     7    15     1    1
     8     1     2   ar
     9     2     3   ar
    10     3     4   ar
    11     4     5   ar
    12     5     6   ar
    13     6     7    1
    14     7     8    1
    15     8    20    1
    16    20    21    1
    17    21    22    1
    18    23    21    1
    19    23    24    1
    20    24    25    1
    21    25    26    1
    22    26    27    1
    23    27    28   ar
    24    28    29   ar
    25    29    30   ar
    26    30    31   ar
    27    31    32   ar
    28     8     9    1
    29     9    10    1
    30    15    16    1
    31    16    12    1
    32     6     1   ar
    33    32    23    1
    34    10     5    1
    35    32    27   ar
    36     9    11    1
@<TRIPOS>MOLECULE
*****
 32 36 0 0 0
SMALL
GASTEIGER

@<TRIPOS>ATOM
      1 C           7.5322   -5.0987   24.5877 C.ar    1  UNL1        0.0436
      2 C           8.1228   -5.6901   23.3421 C.ar    1  UNL1        0.0142
      3 C           8.8300   -7.0116   23.4018 C.ar    1  UNL1        0.0010
      4 C           8.9466   -7.7417   24.7069 C.ar    1  UNL1       -0.0032
      5 C           8.3560   -7.1503   25.9524 C.ar    1  UNL1       -0.0091
      6 C           7.6488   -5.8288   25.8928 C.ar    1  UNL1       -0.0101
      7 C           7.0581   -5.2373   27.1384 C.3     1  UNL1        0.0444
      8 C           7.1747   -5.9674   28.4435 C.3     1  UNL1        0.0749
      9 N           7.8819   -7.2889   28.5031 N.3     1  UNL1       -0.2934
     10 C           8.4725   -7.8803   27.2576 C.3     1  UNL1        0.0954
     11 H           7.2091   -7.9671   28.8607 H       1  UNL1        0.1236
     12 C           5.1831   -2.0578   24.0400 C.3     1  UNL1        0.0791
     13 C           6.2905   -1.4294   24.8329 C.3     1  UNL1        0.0391
     14 C           7.3053   -2.4921   25.1346 C.3     1  UNL1        0.0923
     15 N           6.8250   -3.7772   24.5281 N.pl3   1  UNL1       -0.3063
     16 C           5.5134   -3.5088   23.8516 C.3     1  UNL1        0.1067
     17 C           3.5360   -1.5403   22.0985 C.3     1  UNL1        0.0897
     18 N           3.9600   -1.3580   23.5257 N.3     1  UNL1       -0.2699
     19 C           3.1610   -0.4760   24.4386 C.3     1  UNL1        0.0897
     20 C           6.5841   -5.3760   29.6891 C.3     1  UNL1        0.0886
     21 N           7.2355   -4.1912   30.3386 N.3     1  UNL1       -0.2667
     22 C           8.4579   -4.3792   31.1875 C.3     1  UNL1        0.0899
     23 C           6.6646   -2.8185   30.1393 C.3     1  UNL1        0.0978
     24 C           6.9724   -2.0528   28.8867 C.3     1  UNL1        0.0224
     25 C           6.4015   -0.6801   28.6874 C.3     1  UNL1        0.0065
     26 C           5.5228   -0.0731   29.7407 C.3     1  UNL1        0.0277
     27 C           5.2151   -0.8387   30.9933 C.ar    1  UNL1       -0.0073
     28 C           4.3364   -0.2316   32.0466 C.ar    1  UNL1       -0.0015
     29 C           4.0287   -0.9973   33.2993 C.ar    1  UNL1        0.0203
     30 C           4.5996   -2.3700   33.4986 C.ar    1  UNL1        0.0985
     31 N           5.4782   -2.9771   32.4452 N.ar    1  UNL1       -0.2471
     32 C           5.7860   -2.2115   31.1926 C.ar    1  UNL1        0.0695
@<TRIPOS>BOND
     1    17    18    1
     2    18    19    1
     3    12    18    1
     4    12    13    1
     5    13    14    1
     6    14    15    1
     7    15     1    1
     8     1     2   ar
     9     2     3   ar
    10     3     4   ar
    11     4     5   ar
    12     5     6   ar
    13     6     7    1
    14     7     8    1
    15     8    20    1
    16    20    21    1
    17    21    22    1
    18    23    21    1
    19    23    24    1
    20    24    25    1
    21    25    26    1
    22    26    27    1
    23    27    28   ar
    24    28    29   ar
    25    29    30   ar
    26    30    31   ar
    27    31    32   ar
    28     8     9    1
    29     9    10    1
    30    15    16    1
    31    16    12    1
    32     6     1   ar
    33    32    23    1
    34    10     5    1
    35    32    27   ar
    36     9    11    1
@<TRIPOS>MOLECULE
*****
 32 36 0 0 0
SMALL
GASTEIGER

@<TRIPOS>ATOM
      1 C           2.9716   -0.8078   19.7205 C.ar    1  UNL1        0.0436
      2 C           2.3118   -0.3242   18.4633 C.ar    1  UNL1        0.0142
      3 C           1.2086    0.6894   18.5375 C.ar    1  UNL1        0.0010
      4 C           0.7653    1.2194   19.8689 C.ar    1  UNL1       -0.0032
      5 C           1.4252    0.7358   21.1261 C.ar    1  UNL1       -0.0091
      6 C           2.5283   -0.2779   21.0519 C.ar    1  UNL1       -0.0101
      7 C           3.1883   -0.7616   22.3091 C.3     1  UNL1        0.0444
      8 C           2.7450   -0.2316   23.6405 C.3     1  UNL1        0.0749
      9 N           1.6417    0.7821   23.7147 N.3     1  UNL1       -0.2934
     10 C           0.9819    1.2657   22.4575 C.3     1  UNL1        0.0954
     11 H           2.0277    1.6039   24.1795 H       1  UNL1        0.1236
     12 C           6.2706   -2.8530   19.7199 C.3     1  UNL1        0.0791
     13 C           5.2744   -3.9098   19.3446 C.3     1  UNL1        0.0391
     14 C           3.9174   -3.2722   19.2991 C.3     1  UNL1        0.0923
     15 N           4.0749   -1.8215   19.6463 N.pl3   1  UNL1       -0.3063
     16 C           5.5292   -1.5624   19.9064 C.3     1  UNL1        0.1067
     17 C           8.2684   -4.0258   20.8961 C.3     1  UNL1        0.0897
     18 N           7.7487   -3.0519   19.8805 N.3     1  UNL1       -0.2699
     19 C           8.7070   -2.2769   19.0255 C.3     1  UNL1        0.0897
     20 C           3.4048   -0.7152   24.8977 C.3     1  UNL1        0.0886
     21 N           3.7370    0.2557   25.9918 N.3     1  UNL1       -0.2667
     22 C           4.6599    1.4063   25.7187 C.3     1  UNL1        0.0899
     23 C           3.1463    0.0762   27.3588 C.3     1  UNL1        0.0978
     24 C           3.9729   -0.5171   28.4610 C.3     1  UNL1        0.0224
     25 C           3.3821   -0.6967   29.8280 C.3     1  UNL1        0.0065
     26 C           1.9648   -0.2830   30.0929 C.3     1  UNL1        0.0277
     27 C           1.1383    0.3103   28.9907 C.ar    1  UNL1       -0.0073
     28 C          -0.2790    0.7239   29.2556 C.ar    1  UNL1       -0.0015
     29 C          -1.1056    1.3172   28.1534 C.ar    1  UNL1        0.0203
     30 C          -0.5149    1.4968   26.7864 C.ar    1  UNL1        0.0985
     31 N           0.9024    1.0831   26.5215 N.ar    1  UNL1       -0.2471
     32 C           1.7290    0.4899   27.6236 C.ar    1  UNL1        0.0695
@<TRIPOS>BOND
     1    17    18    1
     2    18    19    1
     3    12    18    1
     4    12    13    1
     5    13    14    1
     6    14    15    1
     7    15     1    1
     8     1     2   ar
     9     2     3   ar
    10     3     4   ar
    11     4     5   ar
    12     5     6   ar
    13     6     7    1
    14     7     8    1
    15     8    20    1
    16    20    21    1
    17    21    22    1
    18    23    21    1
    19    23    24    1
    20    24    25    1
    21    25    26    1
    22    26    27    1
    23    27    28   ar
    24    28    29   ar
    25    29    30   ar
    26    30    31   ar
    27    31    32   ar
    28     8     9    1
    29     9    10    1
    30    15    16    1
    31    16    12    1
    32     6     1   ar
    33    32    23    1
    34    10     5    1
    35    32    27   ar
    36     9    11    1
