@<TRIPOS>MOLECULE
*****
 24 26 0 0 0
SMALL
GASTEIGER

@<TRIPOS>ATOM
      1 C          -7.6972  -18.3949   21.7150 C.3     1  UNL1        0.1471
      2 O          -6.3852  -17.7774   22.0989 O.3     1  UNL1       -0.3812
      3 C          -8.8330  -19.2607   21.2563 C.3     1  UNL1        0.0584
      4 C         -10.1037  -18.4787   21.4108 C.ar    1  UNL1       -0.0202
      5 C         -11.5346  -18.8209   21.1185 C.ar    1  UNL1       -0.0044
      6 C         -12.6150  -17.8139   21.3803 C.ar    1  UNL1       -0.0003
      7 C         -12.2646  -16.4648   21.9344 C.ar    1  UNL1       -0.0002
      8 C         -10.8337  -16.1226   22.2267 C.ar    1  UNL1       -0.0011
      9 C          -9.7533  -17.1296   21.9649 C.ar    1  UNL1        0.0157
     10 C          -8.2660  -17.0778   22.1529 C.3     1  UNL1        0.2137
     11 H          -5.6697  -18.4121   21.9377 H       1  UNL1        0.2105
     12 C          -6.8542  -19.5829   21.3573 C.3     1  UNL1        0.1001
     13 C          -4.6192  -20.3254   20.2603 C.3     1  UNL1        0.0859
     14 N          -5.8642  -19.4893   20.2343 N.3     1  UNL1       -0.2942
     15 H          -6.3647  -19.7329   19.3795 H       1  UNL1        0.1234
     16 O          -7.4847  -15.9133   22.6853 O.3     1  UNL1       -0.4703
     17 C          -7.2312  -15.7909   24.1586 C.ar    1  UNL1        0.1622
     18 C          -5.8524  -15.4769   24.6589 C.ar    1  UNL1        0.0144
     19 C          -4.7270  -15.2853   23.6859 C.3     1  UNL1        0.0343
     20 C          -5.5989  -15.3544   26.1323 C.ar    1  UNL1       -0.0011
     21 C          -6.7242  -15.5460   27.1054 C.ar    1  UNL1        0.0022
     22 C          -8.1031  -15.8600   26.6051 C.ar    1  UNL1        0.0328
     23 C          -8.3565  -15.9824   25.1318 C.ar    1  UNL1        0.1735
     24 F          -9.6702  -16.2653   25.0024 F       1  UNL1       -0.2010
@<TRIPOS>BOND
     1    13    14    1
     2    14    12    1
     3    12     1    1
     4     1     2    1
     5     1     3    1
     6     3     4    1
     7     4     5   ar
     8     5     6   ar
     9     6     7   ar
    10     7     8   ar
    11     8     9   ar
    12     9    10    1
    13    10    16    1
    14    16    17    1
    15    17    18   ar
    16    18    19    1
    17    18    20   ar
    18    20    21   ar
    19    21    22   ar
    20    22    23   ar
    21    23    24    1
    22    10     1    1
    23    23    17   ar
    24     9     4   ar
    25    14    15    1
    26     2    11    1
@<TRIPOS>MOLECULE
*****
 24 26 0 0 0
SMALL
GASTEIGER

@<TRIPOS>ATOM
      1 C          -6.8627  -15.9954   23.3394 C.3     1  UNL1        0.1471
      2 O          -7.8250  -14.8544   23.4873 O.3     1  UNL1       -0.3812
      3 C          -5.7247  -16.9712   23.3918 C.3     1  UNL1        0.0584
      4 C          -6.0629  -18.1263   22.4966 C.ar    1  UNL1       -0.0202
      5 C          -5.3183  -19.3828   22.1548 C.ar    1  UNL1       -0.0044
      6 C          -5.9207  -20.3773   21.2072 C.ar    1  UNL1       -0.0003
      7 C          -7.2677  -20.1154   20.6014 C.ar    1  UNL1       -0.0002
      8 C          -8.0123  -18.8590   20.9433 C.ar    1  UNL1       -0.0011
      9 C          -7.4099  -17.8644   21.8909 C.ar    1  UNL1        0.0157
     10 C          -7.9042  -16.5475   22.4117 C.3     1  UNL1        0.2137
     11 H          -7.4556  -14.1969   24.0973 H       1  UNL1        0.2105
     12 C          -6.0224  -15.2049   24.2979 C.3     1  UNL1        0.1001
     13 C          -6.4549  -15.4096   26.8515 C.3     1  UNL1        0.0859
     14 N          -6.6291  -14.6671   25.5599 N.3     1  UNL1       -0.2942
     15 H          -6.2382  -13.7355   25.7008 H       1  UNL1        0.1234
     16 O          -9.2107  -15.8968   22.0656 O.3     1  UNL1       -0.4703
     17 C         -10.4990  -16.6258   22.3075 C.ar    1  UNL1        0.1622
     18 C         -11.5576  -16.6508   21.2451 C.ar    1  UNL1        0.0144
     19 C         -11.3278  -15.9467   19.9407 C.3     1  UNL1        0.0343
     20 C         -12.8459  -17.3799   21.4871 C.ar    1  UNL1       -0.0011
     21 C         -13.0758  -18.0840   22.7914 C.ar    1  UNL1        0.0022
     22 C         -12.0172  -18.0591   23.8539 C.ar    1  UNL1        0.0328
     23 C         -10.7288  -17.3300   23.6119 C.ar    1  UNL1        0.1735
     24 F          -9.9952  -17.4883   24.7341 F       1  UNL1       -0.2010
@<TRIPOS>BOND
     1    13    14    1
     2    14    12    1
     3    12     1    1
     4     1     2    1
     5     1     3    1
     6     3     4    1
     7     4     5   ar
     8     5     6   ar
     9     6     7   ar
    10     7     8   ar
    11     8     9   ar
    12     9    10    1
    13    10    16    1
    14    16    17    1
    15    17    18   ar
    16    18    19    1
    17    18    20   ar
    18    20    21   ar
    19    21    22   ar
    20    22    23   ar
    21    23    24    1
    22    10     1    1
    23    23    17   ar
    24     9     4   ar
    25    14    15    1
    26     2    11    1
@<TRIPOS>MOLECULE
*****
 24 26 0 0 0
SMALL
GASTEIGER

@<TRIPOS>ATOM
      1 C          -7.9328  -16.1568   23.5535 C.3     1  UNL1        0.1471
      2 O          -6.9155  -15.6136   22.5943 O.3     1  UNL1       -0.3812
      3 C          -8.8804  -16.4443   24.6802 C.3     1  UNL1        0.0584
      4 C          -9.5870  -17.7316   24.3746 C.ar    1  UNL1       -0.0202
      5 C         -10.6296  -18.5068   25.1243 C.ar    1  UNL1       -0.0044
      6 C         -11.1613  -19.7901   24.5584 C.ar    1  UNL1       -0.0003
      7 C         -10.6505  -20.2983   23.2428 C.ar    1  UNL1       -0.0002
      8 C          -9.6079  -19.5231   22.4931 C.ar    1  UNL1       -0.0011
      9 C          -9.0761  -18.2398   23.0590 C.ar    1  UNL1        0.0157
     10 C          -8.0538  -17.2665   22.5516 C.3     1  UNL1        0.2137
     11 H          -6.5569  -14.7814   22.9403 H       1  UNL1        0.2105
     12 C          -7.5992  -14.9335   24.3549 C.3     1  UNL1        0.1001
     13 C          -5.5067  -15.2015   25.8714 C.3     1  UNL1        0.0859
     14 N          -6.1682  -14.6065   24.6638 N.3     1  UNL1       -0.2942
     15 H          -5.6188  -14.8957   23.8546 H       1  UNL1        0.1234
     16 O          -7.2871  -17.3826   21.2676 O.3     1  UNL1       -0.4703
     17 C          -6.3872  -18.5598   21.0351 C.ar    1  UNL1        0.1622
     18 C          -6.8035  -19.6468   20.0889 C.ar    1  UNL1        0.0144
     19 C          -8.1196  -19.5564   19.3751 C.3     1  UNL1        0.0343
     20 C          -5.9035  -20.8241   19.8564 C.ar    1  UNL1       -0.0011
     21 C          -4.5874  -20.9145   20.5702 C.ar    1  UNL1        0.0022
     22 C          -4.1710  -19.8276   21.5165 C.ar    1  UNL1        0.0328
     23 C          -5.0710  -18.6503   21.7489 C.ar    1  UNL1        0.1735
     24 F          -4.4289  -17.8605   22.6357 F       1  UNL1       -0.2010
@<TRIPOS>BOND
     1    13    14    1
     2    14    12    1
     3    12     1    1
     4     1     2    1
     5     1     3    1
     6     3     4    1
     7     4     5   ar
     8     5     6   ar
     9     6     7   ar
    10     7     8   ar
    11     8     9   ar
    12     9    10    1
    13    10    16    1
    14    16    17    1
    15    17    18   ar
    16    18    19    1
    17    18    20   ar
    18    20    21   ar
    19    21    22   ar
    20    22    23   ar
    21    23    24    1
    22    10     1    1
    23    23    17   ar
    24     9     4   ar
    25    14    15    1
    26     2    11    1
@<TRIPOS>MOLECULE
*****
 24 26 0 0 0
SMALL
GASTEIGER

@<TRIPOS>ATOM
      1 C          -9.4040  -17.2632   21.6090 C.3     1  UNL1        0.1471
      2 O          -9.8004  -15.9218   22.1506 O.3     1  UNL1       -0.3812
      3 C          -9.3035  -18.6140   20.9645 C.3     1  UNL1        0.0584
      4 C          -7.9082  -19.1240   21.1719 C.ar    1  UNL1       -0.0202
      5 C          -7.2331  -20.3975   20.7569 C.ar    1  UNL1       -0.0044
      6 C          -5.7960  -20.6355   21.1146 C.ar    1  UNL1       -0.0003
      7 C          -5.0340  -19.5999   21.8873 C.ar    1  UNL1       -0.0002
      8 C          -5.7091  -18.3264   22.3022 C.ar    1  UNL1       -0.0011
      9 C          -7.1462  -18.0884   21.9445 C.ar    1  UNL1        0.0157
     10 C          -8.0707  -16.9384   22.2147 C.3     1  UNL1        0.2137
     11 H         -10.7286  -15.7458   21.9308 H       1  UNL1        0.2105
     12 C         -10.8201  -17.3076   21.1166 C.3     1  UNL1        0.1001
     13 C         -11.7087  -15.7091   19.2713 C.3     1  UNL1        0.0859
     14 N         -11.1215  -17.0294   19.6738 N.3     1  UNL1       -0.2942
     15 H         -10.2430  -17.1283   19.1650 H       1  UNL1        0.1234
     16 O          -7.7228  -15.6839   22.9598 O.3     1  UNL1       -0.4703
     17 C          -7.3931  -15.7467   24.4216 C.ar    1  UNL1        0.1622
     18 C          -5.9930  -15.4762   24.8871 C.ar    1  UNL1        0.0144
     19 C          -4.9226  -15.1429   23.8906 C.3     1  UNL1        0.0343
     20 C          -5.6634  -15.5391   26.3490 C.ar    1  UNL1       -0.0011
     21 C          -6.7337  -15.8724   27.3456 C.ar    1  UNL1        0.0022
     22 C          -8.1338  -16.1429   26.8803 C.ar    1  UNL1        0.0328
     23 C          -8.4635  -16.0800   25.4183 C.ar    1  UNL1        0.1735
     24 F          -9.7793  -16.3660   25.3209 F       1  UNL1       -0.2010
@<TRIPOS>BOND
     1    13    14    1
     2    14    12    1
     3    12     1    1
     4     1     2    1
     5     1     3    1
     6     3     4    1
     7     4     5   ar
     8     5     6   ar
     9     6     7   ar
    10     7     8   ar
    11     8     9   ar
    12     9    10    1
    13    10    16    1
    14    16    17    1
    15    17    18   ar
    16    18    19    1
    17    18    20   ar
    18    20    21   ar
    19    21    22   ar
    20    22    23   ar
    21    23    24    1
    22    10     1    1
    23    23    17   ar
    24     9     4   ar
    25    14    15    1
    26     2    11    1
@<TRIPOS>MOLECULE
*****
 24 26 0 0 0
SMALL
GASTEIGER

@<TRIPOS>ATOM
      1 C          -6.4020  -18.9292   21.6353 C.3     1  UNL1        0.1471
      2 O          -7.2849  -19.6611   20.6685 O.3     1  UNL1       -0.3812
      3 C          -5.3073  -18.4142   22.5221 C.3     1  UNL1        0.0584
      4 C          -5.8284  -17.2112   23.2509 C.ar    1  UNL1       -0.0202
      5 C          -5.1959  -16.2943   24.2555 C.ar    1  UNL1       -0.0044
      6 C          -5.9802  -15.1490   24.8237 C.ar    1  UNL1       -0.0003
      7 C          -7.3970  -14.9205   24.3874 C.ar    1  UNL1       -0.0002
      8 C          -8.0296  -15.8373   23.3828 C.ar    1  UNL1       -0.0011
      9 C          -7.2452  -16.9827   22.8145 C.ar    1  UNL1        0.0157
     10 C          -7.5997  -18.0445   21.8161 C.3     1  UNL1        0.2137
     11 H          -6.7975  -20.4082   20.2873 H       1  UNL1        0.2105
     12 C          -5.3888  -19.9670   21.2524 C.3     1  UNL1        0.1001
     13 C          -3.5400  -19.3890   19.5210 C.3     1  UNL1        0.0859
     14 N          -3.9780  -19.5604   20.9454 N.3     1  UNL1       -0.2942
     15 H          -3.8211  -18.6666   21.4112 H       1  UNL1        0.1234
     16 O          -8.9201  -18.1951   21.1204 O.3     1  UNL1       -0.4703
     17 C         -10.1929  -18.1701   21.9136 C.ar    1  UNL1        0.1622
     18 C         -11.4040  -17.4745   21.3667 C.ar    1  UNL1        0.0144
     19 C         -11.3424  -16.8037   20.0265 C.3     1  UNL1        0.0343
     20 C         -12.6768  -17.4496   22.1600 C.ar    1  UNL1       -0.0011
     21 C         -12.7386  -18.1203   23.5002 C.ar    1  UNL1        0.0022
     22 C         -11.5274  -18.8160   24.0473 C.ar    1  UNL1        0.0328
     23 C         -10.2546  -18.8409   23.2540 C.ar    1  UNL1        0.1735
     24 F          -9.3647  -19.5296   23.9998 F       1  UNL1       -0.2010
@<TRIPOS>BOND
     1    13    14    1
     2    14    12    1
     3    12     1    1
     4     1     2    1
     5     1     3    1
     6     3     4    1
     7     4     5   ar
     8     5     6   ar
     9     6     7   ar
    10     7     8   ar
    11     8     9   ar
    12     9    10    1
    13    10    16    1
    14    16    17    1
    15    17    18   ar
    16    18    19    1
    17    18    20   ar
    18    20    21   ar
    19    21    22   ar
    20    22    23   ar
    21    23    24    1
    22    10     1    1
    23    23    17   ar
    24     9     4   ar
    25    14    15    1
    26     2    11    1
@<TRIPOS>MOLECULE
*****
 24 26 0 0 0
SMALL
GASTEIGER

@<TRIPOS>ATOM
      1 C          -6.5242  -18.9241   21.8014 C.3     1  UNL1        0.1471
      2 O          -7.2206  -20.0401   21.0806 O.3     1  UNL1       -0.3812
      3 C          -5.5703  -17.9257   22.3873 C.3     1  UNL1        0.0584
      4 C          -6.3581  -16.9794   23.2440 C.ar    1  UNL1       -0.0202
      5 C          -5.9496  -15.7946   24.0682 C.ar    1  UNL1       -0.0044
      6 C          -6.9819  -15.0233   24.8360 C.ar    1  UNL1       -0.0003
      7 C          -8.4227  -15.4368   24.7795 C.ar    1  UNL1       -0.0002
      8 C          -8.8311  -16.6216   23.9553 C.ar    1  UNL1       -0.0011
      9 C          -7.7989  -17.3929   23.1876 C.ar    1  UNL1        0.0157
     10 C          -7.9015  -18.5948   22.2960 C.3     1  UNL1        0.2137
     11 H          -6.5710  -20.5540   20.5758 H       1  UNL1        0.2105
     12 C          -5.2925  -19.4867   21.1562 C.3     1  UNL1        0.1001
     13 C          -3.2928  -19.0504   19.5559 C.3     1  UNL1        0.0859
     14 N          -4.7331  -18.8451   19.9211 N.3     1  UNL1       -0.2942
     15 H          -5.2874  -19.1856   19.1355 H       1  UNL1        0.1234
     16 O          -9.1605  -19.3370   21.9582 O.3     1  UNL1       -0.4703
     17 C         -10.4909  -18.7888   22.3815 C.ar    1  UNL1        0.1622
     18 C         -11.0503  -19.1349   23.7296 C.ar    1  UNL1        0.0144
     19 C         -10.2792  -20.0294   24.6544 C.3     1  UNL1        0.0343
     20 C         -12.3808  -18.5866   24.1528 C.ar    1  UNL1       -0.0011
     21 C         -13.1519  -17.6921   23.2281 C.ar    1  UNL1        0.0022
     22 C         -12.5926  -17.3459   21.8800 C.ar    1  UNL1        0.0328
     23 C         -11.2621  -17.8942   21.4567 C.ar    1  UNL1        0.1735
     24 F         -11.0378  -17.4105   20.2164 F       1  UNL1       -0.2010
@<TRIPOS>BOND
     1    13    14    1
     2    14    12    1
     3    12     1    1
     4     1     2    1
     5     1     3    1
     6     3     4    1
     7     4     5   ar
     8     5     6   ar
     9     6     7   ar
    10     7     8   ar
    11     8     9   ar
    12     9    10    1
    13    10    16    1
    14    16    17    1
    15    17    18   ar
    16    18    19    1
    17    18    20   ar
    18    20    21   ar
    19    21    22   ar
    20    22    23   ar
    21    23    24    1
    22    10     1    1
    23    23    17   ar
    24     9     4   ar
    25    14    15    1
    26     2    11    1
@<TRIPOS>MOLECULE
*****
 24 26 0 0 0
SMALL
GASTEIGER

@<TRIPOS>ATOM
      1 C          -9.4686  -17.4236   23.5985 C.3     1  UNL1        0.1471
      2 O          -9.8164  -17.9792   22.2493 O.3     1  UNL1       -0.3812
      3 C          -9.4058  -16.9714   25.0273 C.3     1  UNL1        0.0584
      4 C          -8.0760  -16.3130   25.2472 C.ar    1  UNL1       -0.0202
      5 C          -7.4583  -15.6781   26.4576 C.ar    1  UNL1       -0.0044
      6 C          -6.0816  -15.0884   26.3751 C.ar    1  UNL1       -0.0003
      7 C          -5.3226  -15.1336   25.0821 C.ar    1  UNL1       -0.0002
      8 C          -5.9403  -15.7685   23.8716 C.ar    1  UNL1       -0.0011
      9 C          -7.3170  -16.3582   23.9542 C.ar    1  UNL1        0.0157
     10 C          -8.1777  -17.0446   22.9353 C.3     1  UNL1        0.2137
     11 H         -10.7051  -18.3669   22.2787 H       1  UNL1        0.2105
     12 C         -10.8322  -17.9187   23.9797 C.3     1  UNL1        0.1001
     13 C         -10.1779  -20.3302   24.6914 C.3     1  UNL1        0.0859
     14 N         -10.9731  -19.0790   24.9198 N.3     1  UNL1       -0.2942
     15 H         -10.7245  -18.7376   25.8483 H       1  UNL1        0.1234
     16 O          -7.8116  -17.3061   21.5043 O.3     1  UNL1       -0.4703
     17 C          -7.0537  -18.5477   21.1388 C.ar    1  UNL1        0.1622
     18 C          -7.6129  -19.4950   20.1191 C.ar    1  UNL1        0.0144
     19 C          -8.9301  -19.2006   19.4647 C.3     1  UNL1        0.0343
     20 C          -6.8548  -20.7367   19.7536 C.ar    1  UNL1       -0.0011
     21 C          -5.5376  -21.0312   20.4080 C.ar    1  UNL1        0.0022
     22 C          -4.9783  -20.0840   21.4278 C.ar    1  UNL1        0.0328
     23 C          -5.7364  -18.8423   21.7932 C.ar    1  UNL1        0.1735
     24 F          -4.9871  -18.2081   22.7201 F       1  UNL1       -0.2010
@<TRIPOS>BOND
     1    13    14    1
     2    14    12    1
     3    12     1    1
     4     1     2    1
     5     1     3    1
     6     3     4    1
     7     4     5   ar
     8     5     6   ar
     9     6     7   ar
    10     7     8   ar
    11     8     9   ar
    12     9    10    1
    13    10    16    1
    14    16    17    1
    15    17    18   ar
    16    18    19    1
    17    18    20   ar
    18    20    21   ar
    19    21    22   ar
    20    22    23   ar
    21    23    24    1
    22    10     1    1
    23    23    17   ar
    24     9     4   ar
    25    14    15    1
    26     2    11    1
@<TRIPOS>MOLECULE
*****
 24 26 0 0 0
SMALL
GASTEIGER

@<TRIPOS>ATOM
      1 C          -7.8440  -18.4563   21.4380 C.3     1  UNL1        0.1471
      2 O          -9.0512  -17.6171   21.7354 O.3     1  UNL1       -0.3812
      3 C          -6.8342  -19.4560   20.9576 C.3     1  UNL1        0.0584
      4 C          -5.5178  -19.1300   21.5985 C.ar    1  UNL1       -0.0202
      5 C          -4.1659  -19.7718   21.4972 C.ar    1  UNL1       -0.0044
      6 C          -3.0101  -19.2123   22.2724 C.ar    1  UNL1       -0.0003
      7 C          -3.2062  -18.0110   23.1490 C.ar    1  UNL1       -0.0002
      8 C          -4.5582  -17.3692   23.2503 C.ar    1  UNL1       -0.0011
      9 C          -5.7140  -17.9287   22.4751 C.ar    1  UNL1        0.0157
     10 C          -7.1516  -17.5123   22.3759 C.3     1  UNL1        0.2137
     11 H          -9.8132  -17.9612   21.2436 H       1  UNL1        0.2105
     12 C          -8.7887  -19.2248   20.5623 C.3     1  UNL1        0.1001
     13 C          -9.1331  -20.5221   18.3378 C.3     1  UNL1        0.0859
     14 N          -8.4766  -19.4145   19.1075 N.3     1  UNL1       -0.2942
     15 H          -8.7226  -18.5433   18.6375 H       1  UNL1        0.1234
     16 O          -7.7856  -16.3551   23.0893 O.3     1  UNL1       -0.4703
     17 C          -7.6510  -16.2268   24.5777 C.ar    1  UNL1        0.1622
     18 C          -8.6573  -16.8764   25.4806 C.ar    1  UNL1        0.0144
     19 C          -9.7983  -17.6543   24.8951 C.3     1  UNL1        0.0343
     20 C          -8.5227  -16.7480   26.9690 C.ar    1  UNL1       -0.0011
     21 C          -7.3817  -15.9700   27.5546 C.ar    1  UNL1        0.0022
     22 C          -6.3753  -15.3204   26.6517 C.ar    1  UNL1        0.0328
     23 C          -6.5099  -15.4488   25.1633 C.ar    1  UNL1        0.1735
     24 F          -5.4707  -14.7675   24.6355 F       1  UNL1       -0.2010
@<TRIPOS>BOND
     1    13    14    1
     2    14    12    1
     3    12     1    1
     4     1     2    1
     5     1     3    1
     6     3     4    1
     7     4     5   ar
     8     5     6   ar
     9     6     7   ar
    10     7     8   ar
    11     8     9   ar
    12     9    10    1
    13    10    16    1
    14    16    17    1
    15    17    18   ar
    16    18    19    1
    17    18    20   ar
    18    20    21   ar
    19    21    22   ar
    20    22    23   ar
    21    23    24    1
    22    10     1    1
    23    23    17   ar
    24     9     4   ar
    25    14    15    1
    26     2    11    1
@<TRIPOS>MOLECULE
*****
 24 26 0 0 0
SMALL
GASTEIGER

@<TRIPOS>ATOM
      1 C          -7.4957  -16.4667   22.8407 C.3     1  UNL1        0.1471
      2 O          -6.1571  -16.6876   23.4805 O.3     1  UNL1       -0.3812
      3 C          -8.8090  -15.9586   22.3239 C.3     1  UNL1        0.0584
      4 C          -9.4617  -17.0649   21.5492 C.ar    1  UNL1       -0.0202
      5 C         -10.7670  -17.1409   20.8142 C.ar    1  UNL1       -0.0044
      6 C         -11.1623  -18.4089   20.1171 C.ar    1  UNL1       -0.0003
      7 C         -10.2524  -19.6007   20.1550 C.ar    1  UNL1       -0.0002
      8 C          -8.9471  -19.5247   20.8901 C.ar    1  UNL1       -0.0011
      9 C          -8.5517  -18.2568   21.5872 C.ar    1  UNL1        0.0157
     10 C          -7.3367  -17.8871   22.3853 C.3     1  UNL1        0.2137
     11 H          -5.8803  -15.8786   23.9386 H       1  UNL1        0.2105
     12 C          -7.3748  -15.0926   23.4297 C.3     1  UNL1        0.1001
     13 C          -8.2088  -15.4601   25.8627 C.3     1  UNL1        0.0859
     14 N          -8.2525  -14.6886   24.5771 N.3     1  UNL1       -0.2942
     15 H          -8.0139  -13.7233   24.8047 H       1  UNL1        0.1234
     16 O          -6.1679  -18.7809   22.6769 O.3     1  UNL1       -0.4703
     17 C          -4.9891  -18.8006   21.7497 C.ar    1  UNL1        0.1622
     18 C          -3.6195  -18.4795   22.2705 C.ar    1  UNL1        0.0144
     19 C          -3.4288  -18.1387   23.7188 C.3     1  UNL1        0.0343
     20 C          -2.4407  -18.4993   21.3432 C.ar    1  UNL1       -0.0011
     21 C          -2.6314  -18.8401   19.8949 C.ar    1  UNL1        0.0022
     22 C          -4.0009  -19.1612   19.3740 C.ar    1  UNL1        0.0328
     23 C          -5.1797  -19.1415   20.3013 C.ar    1  UNL1        0.1735
     24 F          -6.2515  -19.4672   19.5478 F       1  UNL1       -0.2010
@<TRIPOS>BOND
     1    13    14    1
     2    14    12    1
     3    12     1    1
     4     1     2    1
     5     1     3    1
     6     3     4    1
     7     4     5   ar
     8     5     6   ar
     9     6     7   ar
    10     7     8   ar
    11     8     9   ar
    12     9    10    1
    13    10    16    1
    14    16    17    1
    15    17    18   ar
    16    18    19    1
    17    18    20   ar
    18    20    21   ar
    19    21    22   ar
    20    22    23   ar
    21    23    24    1
    22    10     1    1
    23    23    17   ar
    24     9     4   ar
    25    14    15    1
    26     2    11    1
