@<TRIPOS>MOLECULE
*****
 26 29 0 0 0
SMALL
GASTEIGER

@<TRIPOS>ATOM
      1 C          -9.2931  -17.7136   22.5449 C.3     1  UNL1        0.1344
      2 C          -9.0419  -17.1338   23.9053 C.ar    1  UNL1        0.0131
      3 C          -8.4873  -15.7465   24.0386 C.ar    1  UNL1       -0.0004
      4 C          -8.2360  -15.1668   25.3990 C.ar    1  UNL1        0.0112
      5 C          -8.5395  -15.9743   26.6261 C.ar    1  UNL1        0.0585
      6 CL         -8.2883  -15.3946   27.9866 Cl      1  UNL1       -0.0822
      7 C          -9.0942  -17.3616   26.4928 C.ar    1  UNL1        0.0225
      8 C          -9.3454  -17.9413   25.1323 C.ar    1  UNL1        0.0566
      9 CL         -9.9001  -19.3286   24.9990 Cl      1  UNL1       -0.0825
     10 N          -5.9647  -18.8978   20.9372 N.ar    1  UNL1       -0.3038
     11 C          -6.9408  -19.8568   20.3226 C.ar    1  UNL1        0.0799
     12 C          -8.3065  -19.5299   20.8500 C.ar    1  UNL1        0.0184
     13 C          -8.1744  -18.3689   21.7906 C.ar    1  UNL1        0.0215
     14 C          -6.7272  -17.9783   21.8444 C.ar    1  UNL1        0.0779
     15 CL         -0.0495  -18.7639   19.9412 Cl      1  UNL1       -0.0822
     16 C          -1.5283  -18.7974   20.1902 C.ar    1  UNL1        0.0578
     17 C          -2.0514  -19.1187   21.5588 C.ar    1  UNL1        0.0129
     18 C          -3.5302  -19.1522   21.8078 C.ar    1  UNL1        0.0184
     19 C          -4.4859  -18.8644   20.6882 C.ar    1  UNL1        0.0641
     20 C          -3.9629  -18.5430   19.3196 C.ar    1  UNL1        0.0184
     21 C          -2.4841  -18.5095   19.0706 C.ar    1  UNL1        0.0129
     22 N         -10.6631  -17.6380   21.9387 N.ar    1  UNL1       -0.3019
     23 C         -11.9062  -18.2733   22.4872 C.ar    1  UNL1        0.0985
     24 C         -13.0419  -17.9418   21.5651 C.ar    1  UNL1        0.1193
     25 N         -12.5007  -17.1015   20.4466 N.ar    1  UNL1       -0.2223
     26 C         -11.0305  -16.9137   20.6776 C.ar    1  UNL1        0.1791
@<TRIPOS>BOND
     1    15    16    1
     2    16    17   ar
     3    17    18   ar
     4    18    19   ar
     5    19    10    1
     6    10    11   ar
     7    11    12   ar
     8    12    13   ar
     9    13     1    1
    10     1     2    1
    11     2     3   ar
    12     3     4   ar
    13     4     5   ar
    14     5     6    1
    15     5     7   ar
    16     7     8   ar
    17     8     9    1
    18     1    22    1
    19    22    23   ar
    20    23    24   ar
    21    24    25   ar
    22    25    26   ar
    23    13    14   ar
    24    19    20   ar
    25    20    21   ar
    26    21    16   ar
    27    14    10   ar
    28     8     2   ar
    29    26    22   ar
@<TRIPOS>MOLECULE
*****
 26 29 0 0 0
SMALL
GASTEIGER

@<TRIPOS>ATOM
      1 C          -9.0911  -17.7966   22.6381 C.3     1  UNL1        0.1344
      2 C          -8.8836  -17.1535   23.9773 C.ar    1  UNL1        0.0131
      3 C          -9.2695  -17.8853   25.2286 C.ar    1  UNL1       -0.0004
      4 C          -9.0620  -17.2423   26.5677 C.ar    1  UNL1        0.0112
      5 C          -8.4687  -15.8674   26.6556 C.ar    1  UNL1        0.0585
      6 CL         -8.2612  -15.2243   27.9948 Cl      1  UNL1       -0.0822
      7 C          -8.0828  -15.1357   25.4044 C.ar    1  UNL1        0.0225
      8 C          -8.2903  -15.7788   24.0652 C.ar    1  UNL1        0.0566
      9 CL         -7.9044  -15.0470   22.8140 Cl      1  UNL1       -0.0825
     10 N          -5.7315  -18.9853   21.1002 N.ar    1  UNL1       -0.3038
     11 C          -6.6490  -20.0979   20.6874 C.ar    1  UNL1        0.0799
     12 C          -8.0192  -19.7880   21.2132 C.ar    1  UNL1        0.0184
     13 C          -7.9485  -18.4839   21.9511 C.ar    1  UNL1        0.0215
     14 C          -6.5347  -17.9878   21.8812 C.ar    1  UNL1        0.0779
     15 CL          0.1232  -18.5936   19.8473 Cl      1  UNL1       -0.0822
     16 C          -1.3405  -18.6915   20.1605 C.ar    1  UNL1        0.0578
     17 C          -1.7901  -18.9698   21.5642 C.ar    1  UNL1        0.0129
     18 C          -3.2538  -19.0677   21.8774 C.ar    1  UNL1        0.0184
     19 C          -4.2678  -18.8874   20.7870 C.ar    1  UNL1        0.0641
     20 C          -3.8182  -18.6091   19.3833 C.ar    1  UNL1        0.0184
     21 C          -2.3545  -18.5112   19.0701 C.ar    1  UNL1        0.0129
     22 N         -10.4412  -17.7524   21.9860 N.ar    1  UNL1       -0.3019
     23 C         -11.7178  -18.2869   22.5645 C.ar    1  UNL1        0.0985
     24 C         -12.8173  -18.0307   21.5769 C.ar    1  UNL1        0.1193
     25 N         -12.2203  -17.3379   20.3880 N.ar    1  UNL1       -0.2223
     26 C         -10.7518  -17.1658   20.6408 C.ar    1  UNL1        0.1791
@<TRIPOS>BOND
     1    15    16    1
     2    16    17   ar
     3    17    18   ar
     4    18    19   ar
     5    19    10    1
     6    10    11   ar
     7    11    12   ar
     8    12    13   ar
     9    13     1    1
    10     1     2    1
    11     2     3   ar
    12     3     4   ar
    13     4     5   ar
    14     5     6    1
    15     5     7   ar
    16     7     8   ar
    17     8     9    1
    18     1    22    1
    19    22    23   ar
    20    23    24   ar
    21    24    25   ar
    22    25    26   ar
    23    13    14   ar
    24    19    20   ar
    25    20    21   ar
    26    21    16   ar
    27    14    10   ar
    28     8     2   ar
    29    26    22   ar
@<TRIPOS>MOLECULE
*****
 26 29 0 0 0
SMALL
GASTEIGER

@<TRIPOS>ATOM
      1 C          -8.7008  -17.3423   23.9593 C.3     1  UNL1        0.1344
      2 C         -10.1816  -17.5588   23.8571 C.ar    1  UNL1        0.0131
      3 C         -11.0280  -16.5973   23.0768 C.ar    1  UNL1       -0.0004
      4 C         -12.5087  -16.8137   22.9746 C.ar    1  UNL1        0.0112
      5 C         -13.1431  -17.9917   23.6527 C.ar    1  UNL1        0.0585
      6 CL        -14.6239  -18.2082   23.5505 Cl      1  UNL1       -0.0822
      7 C         -12.2967  -18.9532   24.4331 C.ar    1  UNL1        0.0225
      8 C         -10.8159  -18.7368   24.5353 C.ar    1  UNL1        0.0566
      9 CL         -9.9694  -19.6983   25.3157 Cl      1  UNL1       -0.0825
     10 N          -5.7930  -18.5617   21.6959 N.ar    1  UNL1       -0.3038
     11 C          -6.9228  -19.4157   21.2016 C.ar    1  UNL1        0.0799
     12 C          -8.1496  -19.0629   21.9893 C.ar    1  UNL1        0.0184
     13 C          -7.7780  -17.9908   22.9704 C.ar    1  UNL1        0.0215
     14 C          -6.3216  -17.6811   22.7891 C.ar    1  UNL1        0.0779
     15 CL         -0.1504  -18.6524   19.6579 Cl      1  UNL1       -0.0822
     16 C          -1.5611  -18.6297   20.1674 C.ar    1  UNL1        0.0578
     17 C          -2.7011  -18.9012   19.2312 C.ar    1  UNL1        0.0129
     18 C          -4.1117  -18.8786   19.7407 C.ar    1  UNL1        0.0184
     19 C          -4.3824  -18.5844   21.1864 C.ar    1  UNL1        0.0641
     20 C          -3.2424  -18.3129   22.1226 C.ar    1  UNL1        0.0184
     21 C          -1.8317  -18.3355   21.6131 C.ar    1  UNL1        0.0129
     22 N          -8.1428  -16.4774   25.0504 N.ar    1  UNL1       -0.3019
     23 C          -8.4913  -16.5609   26.5070 C.ar    1  UNL1        0.0985
     24 C          -7.7022  -15.5122   27.2333 C.ar    1  UNL1        0.1193
     25 N          -6.8660  -14.7805   26.2256 N.ar    1  UNL1       -0.2223
     26 C          -7.1384  -15.3770   24.8765 C.ar    1  UNL1        0.1791
@<TRIPOS>BOND
     1    15    16    1
     2    16    17   ar
     3    17    18   ar
     4    18    19   ar
     5    19    10    1
     6    10    11   ar
     7    11    12   ar
     8    12    13   ar
     9    13     1    1
    10     1     2    1
    11     2     3   ar
    12     3     4   ar
    13     4     5   ar
    14     5     6    1
    15     5     7   ar
    16     7     8   ar
    17     8     9    1
    18     1    22    1
    19    22    23   ar
    20    23    24   ar
    21    24    25   ar
    22    25    26   ar
    23    13    14   ar
    24    19    20   ar
    25    20    21   ar
    26    21    16   ar
    27    14    10   ar
    28     8     2   ar
    29    26    22   ar
@<TRIPOS>MOLECULE
*****
 26 29 0 0 0
SMALL
GASTEIGER

@<TRIPOS>ATOM
      1 C          -8.7811  -17.6242   23.2225 C.3     1  UNL1        0.1344
      2 C          -9.9066  -17.1859   22.3330 C.ar    1  UNL1        0.0131
      3 C          -9.7651  -15.9467   21.4998 C.ar    1  UNL1       -0.0004
      4 C         -10.8905  -15.5083   20.6104 C.ar    1  UNL1        0.0112
      5 C         -12.1576  -16.3092   20.5542 C.ar    1  UNL1        0.0585
      6 CL        -13.2831  -15.8708   19.6648 Cl      1  UNL1       -0.0822
      7 C         -12.2991  -17.5484   21.3875 C.ar    1  UNL1        0.0225
      8 C         -11.1736  -17.9868   22.2769 C.ar    1  UNL1        0.0566
      9 CL        -11.3151  -19.2260   23.1101 Cl      1  UNL1       -0.0825
     10 N          -5.4487  -18.9309   21.7214 N.ar    1  UNL1       -0.3038
     11 C          -6.2450  -20.1992   21.8071 C.ar    1  UNL1        0.0799
     12 C          -7.5903  -19.8641   22.3799 C.ar    1  UNL1        0.0184
     13 C          -7.6254  -18.3887   22.6481 C.ar    1  UNL1        0.0215
     14 C          -6.3018  -17.8120   22.2411 C.ar    1  UNL1        0.0779
     15 CL          0.1635  -18.4227   19.6611 Cl      1  UNL1       -0.0822
     16 C          -1.2395  -18.5498   20.1762 C.ar    1  UNL1        0.0578
     17 C          -2.3692  -18.7993   19.2215 C.ar    1  UNL1        0.0129
     18 C          -3.7723  -18.9263   19.7366 C.ar    1  UNL1        0.0184
     19 C          -4.0456  -18.8039   21.2063 C.ar    1  UNL1        0.0641
     20 C          -2.9159  -18.5544   22.1610 C.ar    1  UNL1        0.0184
     21 C          -1.5129  -18.4273   21.6459 C.ar    1  UNL1        0.0129
     22 N          -8.8113  -17.2981   24.6863 N.ar    1  UNL1       -0.3019
     23 C          -8.2197  -16.0795   25.3305 C.ar    1  UNL1        0.0985
     24 C          -8.4812  -16.1616   26.8052 C.ar    1  UNL1        0.1193
     25 N          -9.2343  -17.4310   27.0725 N.ar    1  UNL1       -0.2223
     26 C          -9.4384  -18.1334   25.7628 C.ar    1  UNL1        0.1791
@<TRIPOS>BOND
     1    15    16    1
     2    16    17   ar
     3    17    18   ar
     4    18    19   ar
     5    19    10    1
     6    10    11   ar
     7    11    12   ar
     8    12    13   ar
     9    13     1    1
    10     1     2    1
    11     2     3   ar
    12     3     4   ar
    13     4     5   ar
    14     5     6    1
    15     5     7   ar
    16     7     8   ar
    17     8     9    1
    18     1    22    1
    19    22    23   ar
    20    23    24   ar
    21    24    25   ar
    22    25    26   ar
    23    13    14   ar
    24    19    20   ar
    25    20    21   ar
    26    21    16   ar
    27    14    10   ar
    28     8     2   ar
    29    26    22   ar
@<TRIPOS>MOLECULE
*****
 26 29 0 0 0
SMALL
GASTEIGER

@<TRIPOS>ATOM
      1 C           3.7935   -1.1034   19.7240 C.3     1  UNL1        0.1344
      2 C           4.8837   -0.3911   18.9795 C.ar    1  UNL1        0.0131
      3 C           6.0262    0.2251   19.7309 C.ar    1  UNL1       -0.0004
      4 C           7.1163    0.9374   18.9865 C.ar    1  UNL1        0.0112
      5 C           7.0638    1.0335   17.4905 C.ar    1  UNL1        0.0585
      6 CL          8.1540    1.7458   16.7460 Cl      1  UNL1       -0.0822
      7 C           5.9213    0.4172   16.7390 C.ar    1  UNL1        0.0225
      8 C           4.8312   -0.2951   17.4835 C.ar    1  UNL1        0.0566
      9 CL          3.6886   -0.9113   16.7320 Cl      1  UNL1       -0.0825
     10 N           1.0639    0.8549   21.6680 N.ar    1  UNL1       -0.3038
     11 C           0.4667    0.8133   20.2926 C.ar    1  UNL1        0.0799
     12 C           1.4165    0.0746   19.3969 C.ar    1  UNL1        0.0184
     13 C           2.6008   -0.3403   20.2188 C.ar    1  UNL1        0.0215
     14 C           2.3828    0.1420   21.6223 C.ar    1  UNL1        0.0779
     15 CL         -1.3919    3.4225   26.5029 Cl      1  UNL1       -0.0822
     16 C          -0.7779    2.7806   25.2942 C.ar    1  UNL1        0.0578
     17 C           0.0583    1.5445   25.4446 C.ar    1  UNL1        0.0129
     18 C           0.6722    0.9026   24.2359 C.ar    1  UNL1        0.0184
     19 C           0.4499    1.4968   22.8767 C.ar    1  UNL1        0.0641
     20 C          -0.3863    2.7329   22.7263 C.ar    1  UNL1        0.0184
     21 C          -1.0002    3.3748   23.9350 C.ar    1  UNL1        0.0129
     22 N           3.8962   -2.5789   19.9736 N.ar    1  UNL1       -0.3019
     23 C           3.4862   -3.6646   19.0233 C.ar    1  UNL1        0.0985
     24 C           3.7635   -4.9845   19.6798 C.ar    1  UNL1        0.1193
     25 N           4.3448   -4.7146   21.0360 N.ar    1  UNL1       -0.2223
     26 C           4.4268   -3.2278   21.2175 C.ar    1  UNL1        0.1791
@<TRIPOS>BOND
     1    15    16    1
     2    16    17   ar
     3    17    18   ar
     4    18    19   ar
     5    19    10    1
     6    10    11   ar
     7    11    12   ar
     8    12    13   ar
     9    13     1    1
    10     1     2    1
    11     2     3   ar
    12     3     4   ar
    13     4     5   ar
    14     5     6    1
    15     5     7   ar
    16     7     8   ar
    17     8     9    1
    18     1    22    1
    19    22    23   ar
    20    23    24   ar
    21    24    25   ar
    22    25    26   ar
    23    13    14   ar
    24    19    20   ar
    25    20    21   ar
    26    21    16   ar
    27    14    10   ar
    28     8     2   ar
    29    26    22   ar
@<TRIPOS>MOLECULE
*****
 26 29 0 0 0
SMALL
GASTEIGER

@<TRIPOS>ATOM
      1 C          -0.7167    2.4461   26.4864 C.3     1  UNL1        0.1344
      2 C          -1.6077    3.6006   26.8374 C.ar    1  UNL1        0.0131
      3 C          -3.0852    3.5084   26.5954 C.ar    1  UNL1       -0.0004
      4 C          -3.9762    4.6628   26.9464 C.ar    1  UNL1        0.0112
      5 C          -3.3898    5.9095   27.5394 C.ar    1  UNL1        0.0585
      6 CL         -4.2808    7.0640   27.8904 Cl      1  UNL1       -0.0822
      7 C          -1.9123    6.0018   27.7814 C.ar    1  UNL1        0.0225
      8 C          -1.0213    4.8473   27.4304 C.ar    1  UNL1        0.0566
      9 CL          0.4562    4.9395   27.6724 Cl      1  UNL1       -0.0825
     10 N           0.7628    1.3217   23.0787 N.ar    1  UNL1       -0.3038
     11 C           0.2585    2.6926   22.7376 C.ar    1  UNL1        0.0799
     12 C          -0.3571    3.2807   23.9725 C.ar    1  UNL1        0.0184
     13 C          -0.2333    2.2732   25.0770 C.ar    1  UNL1        0.0215
     14 C           0.4589    1.0625   24.5245 C.ar    1  UNL1        0.0779
     15 CL          3.5128   -2.4609   19.3198 Cl      1  UNL1       -0.0822
     16 C           2.8253   -1.5153   20.2595 C.ar    1  UNL1        0.0578
     17 C           1.5504   -0.8418   19.8462 C.ar    1  UNL1        0.0129
     18 C           0.8629    0.1039   20.7859 C.ar    1  UNL1        0.0184
     19 C           1.4503    0.3760   22.1390 C.ar    1  UNL1        0.0641
     20 C           2.7253   -0.2974   22.5523 C.ar    1  UNL1        0.0184
     21 C           3.4128   -1.2431   21.6126 C.ar    1  UNL1        0.0129
     22 N          -0.3090    1.4645   27.5447 N.ar    1  UNL1       -0.3019
     23 C           1.0971    1.1536   27.9645 C.ar    1  UNL1        0.0985
     24 C           1.0392    0.1183   29.0484 C.ar    1  UNL1        0.1193
     25 N          -0.4027   -0.2107   29.2985 N.ar    1  UNL1       -0.2223
     26 C          -1.2360    0.6213   28.3692 C.ar    1  UNL1        0.1791
@<TRIPOS>BOND
     1    15    16    1
     2    16    17   ar
     3    17    18   ar
     4    18    19   ar
     5    19    10    1
     6    10    11   ar
     7    11    12   ar
     8    12    13   ar
     9    13     1    1
    10     1     2    1
    11     2     3   ar
    12     3     4   ar
    13     4     5   ar
    14     5     6    1
    15     5     7   ar
    16     7     8   ar
    17     8     9    1
    18     1    22    1
    19    22    23   ar
    20    23    24   ar
    21    24    25   ar
    22    25    26   ar
    23    13    14   ar
    24    19    20   ar
    25    20    21   ar
    26    21    16   ar
    27    14    10   ar
    28     8     2   ar
    29    26    22   ar
@<TRIPOS>MOLECULE
*****
 26 29 0 0 0
SMALL
GASTEIGER

@<TRIPOS>ATOM
      1 C           3.8907   -0.9760   19.6524 C.3     1  UNL1        0.1344
      2 C           5.0174   -0.3059   18.9234 C.ar    1  UNL1        0.0131
      3 C           6.1590    0.2901   19.6925 C.ar    1  UNL1       -0.0004
      4 C           7.2857    0.9601   18.9635 C.ar    1  UNL1        0.0112
      5 C           7.2709    1.0342   17.4654 C.ar    1  UNL1        0.0585
      6 CL          8.3977    1.7043   16.7364 Cl      1  UNL1       -0.0822
      7 C           6.1294    0.4381   16.6963 C.ar    1  UNL1        0.0225
      8 C           5.0026   -0.2319   17.4253 C.ar    1  UNL1        0.0566
      9 CL          3.8610   -0.8280   16.6563 Cl      1  UNL1       -0.0825
     10 N           0.8322    1.3759   20.0769 N.ar    1  UNL1       -0.3038
     11 C           0.8907    0.7295   21.4292 C.ar    1  UNL1        0.0799
     12 C           2.0436   -0.2302   21.4348 C.ar    1  UNL1        0.0184
     13 C           2.6975   -0.1769   20.0859 C.ar    1  UNL1        0.0215
     14 C           1.9489    0.8156   19.2467 C.ar    1  UNL1        0.0779
     15 CL         -3.1664    5.4813   18.3002 Cl      1  UNL1       -0.0822
     16 C          -2.1668    4.4549   18.7444 C.ar    1  UNL1        0.0578
     17 C          -2.2709    3.8496   20.1128 C.ar    1  UNL1        0.0129
     18 C          -1.2712    2.8232   20.5570 C.ar    1  UNL1        0.0184
     19 C          -0.1674    2.4022   19.6327 C.ar    1  UNL1        0.0641
     20 C          -0.0633    3.0076   18.2643 C.ar    1  UNL1        0.0184
     21 C          -1.0630    4.0339   17.8201 C.ar    1  UNL1        0.0129
     22 N           3.9570   -2.4451   19.9478 N.ar    1  UNL1       -0.3019
     23 C           3.5159   -3.5492   19.0333 C.ar    1  UNL1        0.0985
     24 C           3.7624   -4.8545   19.7300 C.ar    1  UNL1        0.1193
     25 N           4.3559   -4.5572   21.0751 N.ar    1  UNL1       -0.2223
     26 C           4.4761   -3.0680   21.2097 C.ar    1  UNL1        0.1791
@<TRIPOS>BOND
     1    15    16    1
     2    16    17   ar
     3    17    18   ar
     4    18    19   ar
     5    19    10    1
     6    10    11   ar
     7    11    12   ar
     8    12    13   ar
     9    13     1    1
    10     1     2    1
    11     2     3   ar
    12     3     4   ar
    13     4     5   ar
    14     5     6    1
    15     5     7   ar
    16     7     8   ar
    17     8     9    1
    18     1    22    1
    19    22    23   ar
    20    23    24   ar
    21    24    25   ar
    22    25    26   ar
    23    13    14   ar
    24    19    20   ar
    25    20    21   ar
    26    21    16   ar
    27    14    10   ar
    28     8     2   ar
    29    26    22   ar
@<TRIPOS>MOLECULE
*****
 26 29 0 0 0
SMALL
GASTEIGER

@<TRIPOS>ATOM
      1 C          -1.2793    2.9083   25.8346 C.3     1  UNL1        0.1344
      2 C          -0.6992    2.6356   27.1908 C.ar    1  UNL1        0.0131
      3 C          -0.8681    1.2849   27.8210 C.ar    1  UNL1       -0.0004
      4 C          -0.2880    1.0122   29.1770 C.ar    1  UNL1        0.0112
      5 C           0.4611    2.0901   29.9029 C.ar    1  UNL1        0.0585
      6 CL          1.0412    1.8173   31.2591 Cl      1  UNL1       -0.0822
      7 C           0.6300    3.4407   29.2728 C.ar    1  UNL1        0.0225
      8 C           0.0499    3.7135   27.9166 C.ar    1  UNL1        0.0566
      9 CL          0.2188    5.0641   27.2864 Cl      1  UNL1       -0.0825
     10 N           0.8193    1.5922   22.8464 N.ar    1  UNL1       -0.3038
     11 C           0.8276    3.0681   22.5788 C.ar    1  UNL1        0.0799
     12 C           0.0425    3.7408   23.6656 C.ar    1  UNL1        0.0184
     13 C          -0.4511    2.6806   24.6049 C.ar    1  UNL1        0.0215
     14 C           0.0290    1.3527   24.0987 C.ar    1  UNL1        0.0779
     15 CL          3.4799   -2.6148   19.4964 Cl      1  UNL1       -0.0822
     16 C           2.8147   -1.5630   20.3339 C.ar    1  UNL1        0.0578
     17 C           3.3666   -1.2211   21.6861 C.ar    1  UNL1        0.0129
     18 C           2.7014   -0.1694   22.5236 C.ar    1  UNL1        0.0184
     19 C           1.4844    0.5404   22.0089 C.ar    1  UNL1        0.0641
     20 C           0.9326    0.1985   20.6567 C.ar    1  UNL1        0.0184
     21 C           1.5977   -0.8532   19.8192 C.ar    1  UNL1        0.0129
     22 N          -2.6877    3.4087   25.7082 N.ar    1  UNL1       -0.3019
     23 C          -3.4964    3.4566   24.4458 C.ar    1  UNL1        0.0985
     24 C          -4.8432    4.0266   24.7794 C.ar    1  UNL1        0.1193
     25 N          -4.8668    4.3311   26.2480 N.ar    1  UNL1       -0.2223
     26 C          -3.5346    3.9491   26.8220 C.ar    1  UNL1        0.1791
@<TRIPOS>BOND
     1    15    16    1
     2    16    17   ar
     3    17    18   ar
     4    18    19   ar
     5    19    10    1
     6    10    11   ar
     7    11    12   ar
     8    12    13   ar
     9    13     1    1
    10     1     2    1
    11     2     3   ar
    12     3     4   ar
    13     4     5   ar
    14     5     6    1
    15     5     7   ar
    16     7     8   ar
    17     8     9    1
    18     1    22    1
    19    22    23   ar
    20    23    24   ar
    21    24    25   ar
    22    25    26   ar
    23    13    14   ar
    24    19    20   ar
    25    20    21   ar
    26    21    16   ar
    27    14    10   ar
    28     8     2   ar
    29    26    22   ar
@<TRIPOS>MOLECULE
*****
 26 29 0 0 0
SMALL
GASTEIGER

@<TRIPOS>ATOM
      1 C           3.6178   -1.7793   21.1691 C.3     1  UNL1        0.1344
      2 C           2.8614   -0.7160   20.4294 C.ar    1  UNL1        0.0131
      3 C           1.3614   -0.7277   20.4253 C.ar    1  UNL1       -0.0004
      4 C           0.6051    0.3356   19.6856 C.ar    1  UNL1        0.0112
      5 C           1.3486    1.4107   18.9500 C.ar    1  UNL1        0.0585
      6 CL          0.5922    2.4741   18.2103 Cl      1  UNL1       -0.0822
      7 C           2.8486    1.4225   18.9541 C.ar    1  UNL1        0.0225
      8 C           3.6050    0.3591   19.6938 C.ar    1  UNL1        0.0566
      9 CL          5.1049    0.3709   19.6978 Cl      1  UNL1       -0.0825
     10 N           3.6387   -0.9350   24.9575 N.ar    1  UNL1       -0.3038
     11 C           4.7119   -1.9806   24.8876 C.ar    1  UNL1        0.0799
     12 C           4.8347   -2.4242   23.4600 C.ar    1  UNL1        0.0184
     13 C           3.8374   -1.6527   22.6475 C.ar    1  UNL1        0.0215
     14 C           3.0982   -0.7323   23.5730 C.ar    1  UNL1        0.0779
     15 CL          1.8261    1.9334   29.9059 Cl      1  UNL1       -0.0822
     16 C           2.2793    1.2163   28.6688 C.ar    1  UNL1        0.0578
     17 C           2.2227    1.9068   27.3384 C.ar    1  UNL1        0.0129
     18 C           2.6758    1.1897   26.1013 C.ar    1  UNL1        0.0184
     19 C           3.1856   -0.2179   26.1946 C.ar    1  UNL1        0.0641
     20 C           3.2421   -0.9084   27.5250 C.ar    1  UNL1        0.0184
     21 C           2.7890   -0.1913   28.7621 C.ar    1  UNL1        0.0129
     22 N           4.1545   -2.9693   20.4303 N.ar    1  UNL1       -0.3019
     23 C           3.4214   -3.7678   19.3935 C.ar    1  UNL1        0.0985
     24 C           4.3325   -4.8618   18.9211 C.ar    1  UNL1        0.1193
     25 N           5.6287   -4.7395   19.6660 N.ar    1  UNL1       -0.2223
     26 C           5.5187   -3.5699   20.5988 C.ar    1  UNL1        0.1791
@<TRIPOS>BOND
     1    15    16    1
     2    16    17   ar
     3    17    18   ar
     4    18    19   ar
     5    19    10    1
     6    10    11   ar
     7    11    12   ar
     8    12    13   ar
     9    13     1    1
    10     1     2    1
    11     2     3   ar
    12     3     4   ar
    13     4     5   ar
    14     5     6    1
    15     5     7   ar
    16     7     8   ar
    17     8     9    1
    18     1    22    1
    19    22    23   ar
    20    23    24   ar
    21    24    25   ar
    22    25    26   ar
    23    13    14   ar
    24    19    20   ar
    25    20    21   ar
    26    21    16   ar
    27    14    10   ar
    28     8     2   ar
    29    26    22   ar
