@<TRIPOS>MOLECULE
*****
 19 20 0 0 0
SMALL
GASTEIGER

@<TRIPOS>ATOM
      1 C          -8.5488  -19.3661   21.4236 C.2     1  UNL1        0.0873
      2 C          -8.4758  -19.8954   22.8252 C.2     1  UNL1        0.0596
      3 C          -9.6277  -19.6930   23.7643 C.2     1  UNL1        0.1971
      4 O          -9.5547  -20.2223   25.1659 O.2     1  UNL1       -0.2865
      5 C         -10.8528  -18.9612   23.3018 C.ar    1  UNL1        0.0421
      6 C         -12.0047  -18.7588   24.2410 C.ar    1  UNL1        0.0033
      7 C         -13.2297  -18.0271   23.7785 C.ar    1  UNL1        0.0001
      8 C         -13.3027  -17.4978   22.3769 C.ar    1  UNL1        0.0001
      9 C         -12.1508  -17.7002   21.4378 C.ar    1  UNL1        0.0033
     10 C         -10.9258  -18.4319   21.9002 C.ar    1  UNL1        0.0433
     11 C          -9.7738  -18.6343   20.9611 C.2     1  UNL1        0.2087
     12 O          -9.8468  -18.1050   19.5595 O.2     1  UNL1       -0.2853
     13 N          -7.3968  -19.5685   20.4844 N.pl3   1  UNL1       -0.3301
     14 H          -7.3989  -19.1328   19.6016 H       1  UNL1        0.1469
     15 C          -6.2415  -20.4349   20.8904 C.3     1  UNL1        0.0871
     16 C          -4.8469  -20.0667   20.4787 C.3     1  UNL1        0.0212
     17 C          -2.4137  -19.7227   21.3218 C.3     1  UNL1        0.0001
     18 C          -3.8889  -19.5096   21.4896 C.3     1  UNL1        0.0017
     19 C          -4.4061  -18.7394   22.6682 C.3     1  UNL1        0.0001
@<TRIPOS>BOND
     1    17    18    1
     2    18    19    1
     3    18    16    1
     4    16    15    1
     5    15    13    1
     6    13     1    1
     7     1     2    2
     8     2     3    1
     9     3     4    2
    10     3     5    1
    11     5     6   ar
    12     6     7   ar
    13     7     8   ar
    14     8     9   ar
    15     9    10   ar
    16    10    11    1
    17    11    12    2
    18    11     1    1
    19    10     5   ar
    20    13    14    1
@<TRIPOS>MOLECULE
*****
 19 20 0 0 0
SMALL
GASTEIGER

@<TRIPOS>ATOM
      1 C          -9.0636  -19.2116   21.0968 C.2     1  UNL1        0.0873
      2 C          -9.8938  -18.4230   20.1278 C.2     1  UNL1        0.0596
      3 C         -11.2361  -17.8985   20.5436 C.2     1  UNL1        0.1971
      4 O         -12.0663  -17.1100   19.5745 O.2     1  UNL1       -0.2865
      5 C         -11.7484  -18.1625   21.9285 C.ar    1  UNL1        0.0421
      6 C         -13.0907  -17.6379   22.3443 C.ar    1  UNL1        0.0033
      7 C         -13.6029  -17.9019   23.7292 C.ar    1  UNL1        0.0001
      8 C         -12.7728  -18.6905   24.6982 C.ar    1  UNL1        0.0001
      9 C         -11.4304  -19.2150   24.2824 C.ar    1  UNL1        0.0033
     10 C         -10.9182  -18.9510   22.8976 C.ar    1  UNL1        0.0433
     11 C          -9.5758  -19.4756   22.4817 C.2     1  UNL1        0.2087
     12 O          -8.7457  -20.2641   23.4507 O.2     1  UNL1       -0.2853
     13 N          -7.7212  -19.7361   20.6809 N.pl3   1  UNL1       -0.3301
     14 H          -7.6564  -20.5822   20.1818 H       1  UNL1        0.1469
     15 C          -6.4776  -18.9714   21.0256 C.3     1  UNL1        0.0871
     16 C          -5.3746  -19.6394   21.7917 C.3     1  UNL1        0.0212
     17 C          -3.9240  -20.5971   19.8608 C.3     1  UNL1        0.0001
     18 C          -4.0330  -19.8418   21.1521 C.3     1  UNL1        0.0017
     19 C          -2.8003  -19.2888   21.8038 C.3     1  UNL1        0.0001
@<TRIPOS>BOND
     1    17    18    1
     2    18    19    1
     3    18    16    1
     4    16    15    1
     5    15    13    1
     6    13     1    1
     7     1     2    2
     8     2     3    1
     9     3     4    2
    10     3     5    1
    11     5     6   ar
    12     6     7   ar
    13     7     8   ar
    14     8     9   ar
    15     9    10   ar
    16    10    11    1
    17    11    12    2
    18    11     1    1
    19    10     5   ar
    20    13    14    1
@<TRIPOS>MOLECULE
*****
 19 20 0 0 0
SMALL
GASTEIGER

@<TRIPOS>ATOM
      1 C          -7.6461  -15.8889   23.2288 C.2     1  UNL1        0.0873
      2 C          -8.0441  -16.7837   24.3650 C.2     1  UNL1        0.0596
      3 C          -9.3984  -17.4285   24.3729 C.2     1  UNL1        0.1971
      4 O          -9.7964  -18.3234   25.5091 O.2     1  UNL1       -0.2865
      5 C         -10.3548  -17.1785   23.2446 C.ar    1  UNL1        0.0421
      6 C         -11.7091  -17.8233   23.2526 C.ar    1  UNL1        0.0033
      7 C         -12.6653  -17.5733   22.1243 C.ar    1  UNL1        0.0001
      8 C         -12.2673  -16.6785   20.9882 C.ar    1  UNL1        0.0001
      9 C         -10.9131  -16.0337   20.9802 C.ar    1  UNL1        0.0033
     10 C          -9.9568  -16.2837   22.1085 C.ar    1  UNL1        0.0433
     11 C          -8.6024  -15.6389   22.1006 C.2     1  UNL1        0.2087
     12 O          -8.2044  -14.7441   20.9644 O.2     1  UNL1       -0.2853
     13 N          -6.2918  -15.2441   23.2209 N.pl3   1  UNL1       -0.3301
     14 H          -6.0184  -14.6824   22.4600 H       1  UNL1        0.1469
     15 C          -5.3539  -15.4552   24.3724 C.3     1  UNL1        0.0871
     16 C          -4.4970  -16.6852   24.4259 C.3     1  UNL1        0.0212
     17 C          -2.7959  -16.7686   22.4639 C.3     1  UNL1        0.0001
     18 C          -4.0096  -17.3156   23.1551 C.3     1  UNL1        0.0017
     19 C          -4.7358  -18.4931   22.5754 C.3     1  UNL1        0.0001
@<TRIPOS>BOND
     1    17    18    1
     2    18    19    1
     3    18    16    1
     4    16    15    1
     5    15    13    1
     6    13     1    1
     7     1     2    2
     8     2     3    1
     9     3     4    2
    10     3     5    1
    11     5     6   ar
    12     6     7   ar
    13     7     8   ar
    14     8     9   ar
    15     9    10   ar
    16    10    11    1
    17    11    12    2
    18    11     1    1
    19    10     5   ar
    20    13    14    1
@<TRIPOS>MOLECULE
*****
 19 20 0 0 0
SMALL
GASTEIGER

@<TRIPOS>ATOM
      1 C          -7.3014  -18.4372   21.5618 C.2     1  UNL1        0.0873
      2 C          -7.8915  -19.2553   20.4517 C.2     1  UNL1        0.0596
      3 C          -9.3604  -19.1738   20.1590 C.2     1  UNL1        0.1971
      4 O          -9.9505  -19.9919   19.0489 O.2     1  UNL1       -0.2865
      5 C         -10.2392  -18.2740   20.9765 C.ar    1  UNL1        0.0421
      6 C         -11.7081  -18.1924   20.6839 C.ar    1  UNL1        0.0033
      7 C         -12.5868  -17.2927   21.5014 C.ar    1  UNL1        0.0001
      8 C         -11.9966  -16.4746   22.6115 C.ar    1  UNL1        0.0001
      9 C         -10.5278  -16.5562   22.9042 C.ar    1  UNL1        0.0033
     10 C          -9.6490  -17.4559   22.0867 C.ar    1  UNL1        0.0433
     11 C          -8.1801  -17.5375   22.3793 C.2     1  UNL1        0.2087
     12 O          -7.5899  -16.7194   23.4895 O.2     1  UNL1       -0.2853
     13 N          -5.8324  -18.5189   21.8544 N.pl3   1  UNL1       -0.3301
     14 H          -5.4148  -17.8677   22.4634 H       1  UNL1        0.1469
     15 C          -4.9997  -19.5926   21.2192 C.3     1  UNL1        0.0871
     16 C          -4.1970  -19.2899   19.9887 C.3     1  UNL1        0.0212
     17 C          -2.0921  -18.1827   18.9429 C.3     1  UNL1        0.0001
     18 C          -2.7791  -18.8171   20.1157 C.3     1  UNL1        0.0017
     19 C          -2.0482  -18.9786   21.4156 C.3     1  UNL1        0.0001
@<TRIPOS>BOND
     1    17    18    1
     2    18    19    1
     3    18    16    1
     4    16    15    1
     5    15    13    1
     6    13     1    1
     7     1     2    2
     8     2     3    1
     9     3     4    2
    10     3     5    1
    11     5     6   ar
    12     6     7   ar
    13     7     8   ar
    14     8     9   ar
    15     9    10   ar
    16    10    11    1
    17    11    12    2
    18    11     1    1
    19    10     5   ar
    20    13    14    1
@<TRIPOS>MOLECULE
*****
 19 20 0 0 0
SMALL
GASTEIGER

@<TRIPOS>ATOM
      1 C          -9.1511  -16.2445   23.8709 C.2     1  UNL1        0.0873
      2 C          -9.3311  -17.3508   24.8677 C.2     1  UNL1        0.0596
      3 C          -9.8523  -18.6847   24.4216 C.2     1  UNL1        0.1971
      4 O         -10.0323  -19.7911   25.4184 O.2     1  UNL1       -0.2865
      5 C         -10.1935  -18.9123   22.9787 C.ar    1  UNL1        0.0421
      6 C         -10.7147  -20.2462   22.5327 C.ar    1  UNL1        0.0033
      7 C         -11.0559  -20.4738   21.0899 C.ar    1  UNL1        0.0001
      8 C         -10.8759  -19.3674   20.0931 C.ar    1  UNL1        0.0001
      9 C         -10.3547  -18.0335   20.5392 C.ar    1  UNL1        0.0033
     10 C         -10.0135  -17.8060   21.9820 C.ar    1  UNL1        0.0433
     11 C          -9.4923  -16.4720   22.4281 C.2     1  UNL1        0.2087
     12 O          -9.3123  -15.3656   21.4313 O.2     1  UNL1       -0.2853
     13 N          -8.6299  -14.9105   24.3170 N.pl3   1  UNL1       -0.3301
     14 H          -9.2579  -14.2000   24.5814 H       1  UNL1        0.1469
     15 C          -7.1517  -14.6592   24.3602 C.3     1  UNL1        0.0871
     16 C          -6.2142  -15.5708   23.6255 C.3     1  UNL1        0.0212
     17 C          -4.1485  -17.1465   23.6235 C.3     1  UNL1        0.0001
     18 C          -5.0975  -16.2497   24.3618 C.3     1  UNL1        0.0017
     19 C          -4.9298  -16.0319   25.8363 C.3     1  UNL1        0.0001
@<TRIPOS>BOND
     1    17    18    1
     2    18    19    1
     3    18    16    1
     4    16    15    1
     5    15    13    1
     6    13     1    1
     7     1     2    2
     8     2     3    1
     9     3     4    2
    10     3     5    1
    11     5     6   ar
    12     6     7   ar
    13     7     8   ar
    14     8     9   ar
    15     9    10   ar
    16    10    11    1
    17    11    12    2
    18    11     1    1
    19    10     5   ar
    20    13    14    1
@<TRIPOS>MOLECULE
*****
 19 20 0 0 0
SMALL
GASTEIGER

@<TRIPOS>ATOM
      1 C          -7.3296  -18.0344   21.8064 C.2     1  UNL1        0.0873
      2 C          -7.4367  -17.1843   23.0376 C.2     1  UNL1        0.0596
      3 C          -8.7812  -16.7201   23.5139 C.2     1  UNL1        0.1971
      4 O          -8.8883  -15.8701   24.7451 O.2     1  UNL1       -0.2865
      5 C         -10.0187  -17.1061   22.7590 C.ar    1  UNL1        0.0421
      6 C         -11.3631  -16.6420   23.2354 C.ar    1  UNL1        0.0033
      7 C         -12.6005  -17.0279   22.4805 C.ar    1  UNL1        0.0001
      8 C         -12.4934  -17.8780   21.2493 C.ar    1  UNL1        0.0001
      9 C         -11.1490  -18.3421   20.7729 C.ar    1  UNL1        0.0033
     10 C          -9.9116  -17.9562   21.5278 C.ar    1  UNL1        0.0433
     11 C          -8.5670  -18.4203   21.0515 C.2     1  UNL1        0.2087
     12 O          -8.4599  -19.2704   19.8203 O.2     1  UNL1       -0.2853
     13 N          -5.9851  -18.4985   21.3300 N.pl3   1  UNL1       -0.3301
     14 H          -5.7098  -18.3364   20.3988 H       1  UNL1        0.1469
     15 C          -5.0599  -19.2096   22.2726 C.3     1  UNL1        0.0871
     16 C          -3.6136  -19.3838   21.9151 C.3     1  UNL1        0.0212
     17 C          -2.4128  -17.0857   22.0773 C.3     1  UNL1        0.0001
     18 C          -2.8620  -18.2619   21.2622 C.3     1  UNL1        0.0017
     19 C          -2.5596  -18.3162   19.7940 C.3     1  UNL1        0.0001
@<TRIPOS>BOND
     1    17    18    1
     2    18    19    1
     3    18    16    1
     4    16    15    1
     5    15    13    1
     6    13     1    1
     7     1     2    2
     8     2     3    1
     9     3     4    2
    10     3     5    1
    11     5     6   ar
    12     6     7   ar
    13     7     8   ar
    14     8     9   ar
    15     9    10   ar
    16    10    11    1
    17    11    12    2
    18    11     1    1
    19    10     5   ar
    20    13    14    1
@<TRIPOS>MOLECULE
*****
 19 20 0 0 0
SMALL
GASTEIGER

@<TRIPOS>ATOM
      1 C          -7.4725  -18.9109   21.7358 C.2     1  UNL1        0.0873
      2 C          -7.2472  -17.7910   22.7080 C.2     1  UNL1        0.0596
      3 C          -5.8507  -17.3973   23.0880 C.2     1  UNL1        0.1971
      4 O          -5.6254  -16.2773   24.0601 O.2     1  UNL1       -0.2865
      5 C          -4.6792  -18.1234   22.4959 C.ar    1  UNL1        0.0421
      6 C          -3.2827  -17.7297   22.8759 C.ar    1  UNL1        0.0033
      7 C          -2.1113  -18.4559   22.2838 C.ar    1  UNL1        0.0001
      8 C          -2.3366  -19.5758   21.3117 C.ar    1  UNL1        0.0001
      9 C          -3.7332  -19.9695   20.9317 C.ar    1  UNL1        0.0033
     10 C          -4.9045  -19.2434   21.5237 C.ar    1  UNL1        0.0433
     11 C          -6.3012  -19.6371   21.1437 C.2     1  UNL1        0.2087
     12 O          -6.5264  -20.7570   20.1716 O.2     1  UNL1       -0.2853
     13 N          -8.8692  -19.3047   21.3558 N.pl3   1  UNL1       -0.3301
     14 H          -9.0498  -20.2105   21.0151 H       1  UNL1        0.1469
     15 C          -9.9906  -18.3182   21.4949 C.3     1  UNL1        0.0871
     16 C         -11.2332  -18.6962   22.2453 C.3     1  UNL1        0.0212
     17 C         -12.2415  -16.3375   21.8334 C.3     1  UNL1        0.0001
     18 C         -12.2741  -17.6582   22.5437 C.3     1  UNL1        0.0017
     19 C         -13.3477  -17.9410   23.5524 C.3     1  UNL1        0.0001
@<TRIPOS>BOND
     1    17    18    1
     2    18    19    1
     3    18    16    1
     4    16    15    1
     5    15    13    1
     6    13     1    1
     7     1     2    2
     8     2     3    1
     9     3     4    2
    10     3     5    1
    11     5     6   ar
    12     6     7   ar
    13     7     8   ar
    14     8     9   ar
    15     9    10   ar
    16    10    11    1
    17    11    12    2
    18    11     1    1
    19    10     5   ar
    20    13    14    1
@<TRIPOS>MOLECULE
*****
 19 20 0 0 0
SMALL
GASTEIGER

@<TRIPOS>ATOM
      1 C          -5.3021  -19.4606   21.8951 C.2     1  UNL1        0.0873
      2 C          -5.2180  -18.2890   22.8280 C.2     1  UNL1        0.0596
      3 C          -4.0810  -17.3176   22.7115 C.2     1  UNL1        0.1971
      4 O          -3.9969  -16.1460   23.6444 O.2     1  UNL1       -0.2865
      5 C          -3.0280  -17.5178   21.6621 C.ar    1  UNL1        0.0421
      6 C          -1.8910  -16.5464   21.5456 C.ar    1  UNL1        0.0033
      7 C          -0.8382  -16.7467   20.4962 C.ar    1  UNL1        0.0001
      8 C          -0.9223  -17.9183   19.5633 C.ar    1  UNL1        0.0001
      9 C          -2.0593  -18.8896   19.6798 C.ar    1  UNL1        0.0033
     10 C          -3.1122  -18.6894   20.7292 C.ar    1  UNL1        0.0433
     11 C          -4.2492  -19.6608   20.8458 C.2     1  UNL1        0.2087
     12 O          -4.3334  -20.8324   19.9129 O.2     1  UNL1       -0.2853
     13 N          -6.4392  -20.4320   22.0117 N.pl3   1  UNL1       -0.3301
     14 H          -6.2798  -21.3945   21.8802 H       1  UNL1        0.1469
     15 C          -7.8192  -19.9367   22.3286 C.3     1  UNL1        0.0871
     16 C          -8.5646  -19.1027   21.3293 C.3     1  UNL1        0.0212
     17 C         -10.8900  -19.9871   22.0778 C.3     1  UNL1        0.0001
     18 C          -9.9996  -19.4092   21.0180 C.3     1  UNL1        0.0017
     19 C         -10.5441  -19.1378   19.6470 C.3     1  UNL1        0.0001
@<TRIPOS>BOND
     1    17    18    1
     2    18    19    1
     3    18    16    1
     4    16    15    1
     5    15    13    1
     6    13     1    1
     7     1     2    2
     8     2     3    1
     9     3     4    2
    10     3     5    1
    11     5     6   ar
    12     6     7   ar
    13     7     8   ar
    14     8     9   ar
    15     9    10   ar
    16    10    11    1
    17    11    12    2
    18    11     1    1
    19    10     5   ar
    20    13    14    1
@<TRIPOS>MOLECULE
*****
 19 20 0 0 0
SMALL
GASTEIGER

@<TRIPOS>ATOM
      1 C         -12.9193   -7.0037   18.8601 C.2     1  UNL1        0.0873
      2 C         -11.4810   -6.9527   18.4375 C.2     1  UNL1        0.0596
      3 C         -10.7768   -5.6325   18.3316 C.2     1  UNL1        0.1971
      4 O          -9.3385   -5.5815   17.9090 O.2     1  UNL1       -0.2865
      5 C         -11.5110   -4.3633   18.6482 C.ar    1  UNL1        0.0421
      6 C         -10.8068   -3.0431   18.5422 C.ar    1  UNL1        0.0033
      7 C         -11.5410   -1.7740   18.8588 C.ar    1  UNL1        0.0001
      8 C         -12.9793   -1.8251   19.2814 C.ar    1  UNL1        0.0001
      9 C         -13.6835   -3.1452   19.3874 C.ar    1  UNL1        0.0033
     10 C         -12.9493   -4.4143   19.0708 C.ar    1  UNL1        0.0433
     11 C         -13.6535   -5.7346   19.1768 C.2     1  UNL1        0.2087
     12 O         -15.0918   -5.7856   19.5994 O.2     1  UNL1       -0.2853
     13 N         -13.6235   -8.3240   18.9661 N.pl3   1  UNL1       -0.3301
     14 H         -13.5883   -8.8345   19.8072 H       1  UNL1        0.1469
     15 C         -14.3812   -8.8663   17.7907 C.3     1  UNL1        0.0871
     16 C         -15.8803   -8.8182   17.7777 C.3     1  UNL1        0.0212
     17 C         -17.0419   -8.8228   20.1017 C.3     1  UNL1        0.0001
     18 C         -16.6629   -9.5356   18.8375 C.3     1  UNL1        0.0017
     19 C         -17.0665  -10.9657   18.6329 C.3     1  UNL1        0.0001
@<TRIPOS>BOND
     1    17    18    1
     2    18    19    1
     3    18    16    1
     4    16    15    1
     5    15    13    1
     6    13     1    1
     7     1     2    2
     8     2     3    1
     9     3     4    2
    10     3     5    1
    11     5     6   ar
    12     6     7   ar
    13     7     8   ar
    14     8     9   ar
    15     9    10   ar
    16    10    11    1
    17    11    12    2
    18    11     1    1
    19    10     5   ar
    20    13    14    1
