@<TRIPOS>MOLECULE
*****
 33 37 0 0 0
SMALL
GASTEIGER

@<TRIPOS>ATOM
      1 C          -0.6986    2.8326   23.3551 C.ar    1  UNL1        0.3235
      2 N          -1.9636    3.5624   23.6969 N.ar    1  UNL1       -0.1753
      3 C          -2.5118    3.5002   25.0919 C.ar    1  UNL1        0.1665
      4 N          -1.7949    2.7083   26.1449 N.ar    1  UNL1       -0.1946
      5 C          -0.5298    1.9784   25.8029 C.ar    1  UNL1        0.2255
      6 N           0.0184    2.0406   24.4080 N.ar    1  UNL1       -0.1610
      7 C          -3.7769    4.2301   25.4338 C.2     1  UNL1        0.0249
      8 C          -3.8725    5.0062   26.7138 C.2     1  UNL1       -0.0005
      9 C          -5.1375    5.7360   27.0556 C.2     1  UNL1        0.0011
     10 C          -6.3071    5.6897   26.1175 C.2     1  UNL1        0.0172
     11 C          -6.2115    4.9136   24.8375 C.2     1  UNL1        0.0900
     12 N          -7.1922    4.6875   23.7252 N.2     1  UNL1       -0.1519
     13 N          -6.5332    3.8180   22.6959 N.2     1  UNL1       -0.1507
     14 C          -5.1452    3.5066   23.1720 C.2     1  UNL1        0.1058
     15 C          -4.9464    4.1838   24.4956 C.3     1  UNL1        0.1103
     16 N           0.1871    1.1865   26.8559 N.pl3   1  UNL1       -0.2729
     17 C          -0.5858    0.5551   27.9757 C.3     1  UNL1        0.1257
     18 C           0.1312   -0.2369   29.0287 C.3     1  UNL1        0.1637
     19 O           1.6210   -0.3975   28.9618 O.3     1  UNL1       -0.3501
     20 C           2.3940    0.2339   27.8420 C.3     1  UNL1        0.1637
     21 C           1.6770    1.0258   26.7891 C.3     1  UNL1        0.1257
     22 O          -0.1504    2.8948   21.9602 O.3     1  UNL1       -0.4504
     23 C           2.5791   -0.3571   20.4684 C.3     1  UNL1        0.0770
     24 C           3.1519    0.8441   21.1604 C.3     1  UNL1        0.0128
     25 C           2.2421    1.9281   21.6577 C.3     1  UNL1        0.0441
     26 C           0.7594    1.8108   21.4629 C.3     1  UNL1        0.1691
     27 C           0.1866    0.6096   20.7709 C.3     1  UNL1        0.0441
     28 C           1.0963   -0.4743   20.2736 C.3     1  UNL1        0.0128
     29 C           4.9061   -2.4895   18.0627 C.3     1  UNL1        0.1149
     30 N           3.9963   -1.4056   18.5600 N.am    1  UNL1       -0.2760
     31 C           3.5939   -0.2863   17.6461 C.3     1  UNL1        0.1149
     32 C           3.4889   -1.4410   19.9711 C.2     1  UNL1        0.2252
     33 O           3.8913   -2.5603   20.8850 O.2     1  UNL1       -0.2749
@<TRIPOS>BOND
     1    29    30    1
     2    30    31    1
     3    30    32   am
     4    32    33    2
     5    23    32    1
     6    23    24    1
     7    24    25    1
     8    25    26    1
     9    26    22    1
    10    22     1    1
    11     1     2   ar
    12     2     3   ar
    13     3     7    1
    14     7     8    2
    15     8     9    1
    16     9    10    2
    17    10    11    1
    18    11    12    2
    19    12    13    1
    20    13    14    2
    21    14    15    1
    22     3     4   ar
    23     4     5   ar
    24     5    16    1
    25    16    17    1
    26    17    18    1
    27    18    19    1
    28    19    20    1
    29    20    21    1
    30     5     6   ar
    31    26    27    1
    32    27    28    1
    33    28    23    1
    34     6     1   ar
    35    15     7    1
    36    21    16    1
    37    15    11    1
@<TRIPOS>MOLECULE
*****
 33 37 0 0 0
SMALL
GASTEIGER

@<TRIPOS>ATOM
      1 C          -0.5309    2.8436   22.8994 C.ar    1  UNL1        0.3235
      2 N          -1.9311    3.3783   22.9572 N.ar    1  UNL1       -0.1753
      3 C          -2.6972    3.3365   24.2462 C.ar    1  UNL1        0.1665
      4 N          -2.0630    2.7601   25.4773 N.ar    1  UNL1       -0.1946
      5 C          -0.6627    2.2255   25.4194 C.ar    1  UNL1        0.2255
      6 N           0.1034    2.2672   24.1305 N.ar    1  UNL1       -0.1610
      7 C          -4.0975    3.8712   24.3041 C.2     1  UNL1        0.0249
      8 C          -5.0223    3.6792   23.1388 C.2     1  UNL1       -0.0005
      9 C          -6.4225    4.2139   23.1966 C.2     1  UNL1        0.0011
     10 C          -6.8981    4.9405   24.4197 C.2     1  UNL1        0.0172
     11 C          -5.9732    5.1325   25.5850 C.2     1  UNL1        0.0900
     12 N          -6.1593    5.8021   26.9143 N.2     1  UNL1       -0.1519
     13 N          -4.8739    5.6813   27.6780 N.2     1  UNL1       -0.1507
     14 C          -3.8935    4.9370   26.8207 C.2     1  UNL1        0.1058
     15 C          -4.5730    4.5978   25.5271 C.3     1  UNL1        0.1103
     16 N          -0.0285    1.6491   26.6505 N.pl3   1  UNL1       -0.2729
     17 C          -0.8687    1.3478   27.8561 C.3     1  UNL1        0.1257
     18 C          -0.2345    0.7714   29.0872 C.3     1  UNL1        0.1637
     19 O           1.2398    0.4963   29.1126 O.3     1  UNL1       -0.3501
     20 C           2.0800    0.7975   27.9071 C.3     1  UNL1        0.1637
     21 C           1.4458    1.3739   26.6760 C.3     1  UNL1        0.1257
     22 O           0.2352    2.8854   21.6105 O.3     1  UNL1       -0.4504
     23 C           2.8141   -0.6022   20.4119 C.3     1  UNL1        0.0770
     24 C           3.4391    0.6196   21.0173 C.3     1  UNL1        0.0128
     25 C           2.5795    1.7822   21.4168 C.3     1  UNL1        0.0441
     26 C           1.0949    1.7229   21.2109 C.3     1  UNL1        0.1691
     27 C           0.4699    0.5010   20.6056 C.3     1  UNL1        0.0441
     28 C           1.3294   -0.6615   20.2060 C.3     1  UNL1        0.0128
     29 C           5.0613   -3.0231   18.2121 C.3     1  UNL1        0.1149
     30 N           4.2018   -1.8606   18.6116 N.am    1  UNL1       -0.2760
     31 C           3.8702   -0.7940   17.6105 C.3     1  UNL1        0.1149
     32 C           3.6737   -1.7647   20.0124 C.2     1  UNL1        0.2252
     33 O           4.0053   -2.8313   21.0135 O.2     1  UNL1       -0.2749
@<TRIPOS>BOND
     1    29    30    1
     2    30    31    1
     3    30    32   am
     4    32    33    2
     5    23    32    1
     6    23    24    1
     7    24    25    1
     8    25    26    1
     9    26    22    1
    10    22     1    1
    11     1     2   ar
    12     2     3   ar
    13     3     7    1
    14     7     8    2
    15     8     9    1
    16     9    10    2
    17    10    11    1
    18    11    12    2
    19    12    13    1
    20    13    14    2
    21    14    15    1
    22     3     4   ar
    23     4     5   ar
    24     5    16    1
    25    16    17    1
    26    17    18    1
    27    18    19    1
    28    19    20    1
    29    20    21    1
    30     5     6   ar
    31    26    27    1
    32    27    28    1
    33    28    23    1
    34     6     1   ar
    35    15     7    1
    36    21    16    1
    37    15    11    1
@<TRIPOS>MOLECULE
*****
 33 37 0 0 0
SMALL
GASTEIGER

@<TRIPOS>ATOM
      1 C          -0.4690    2.7053   23.0500 C.ar    1  UNL1        0.3235
      2 N           0.4828    2.2652   24.1223 N.ar    1  UNL1       -0.1753
      3 C           0.1048    2.4105   25.5667 C.ar    1  UNL1        0.1665
      4 N          -1.2252    2.9960   25.9386 N.ar    1  UNL1       -0.1946
      5 C          -2.1771    3.4362   24.8661 C.ar    1  UNL1        0.2255
      6 N          -1.7991    3.2908   23.4218 N.ar    1  UNL1       -0.1610
      7 C           1.0567    1.9703   26.6391 C.2     1  UNL1        0.0249
      8 C           2.4853    2.4266   26.6073 C.2     1  UNL1       -0.0005
      9 C           3.4372    1.9864   27.6796 C.2     1  UNL1        0.0011
     10 C           2.9607    1.0900   28.7839 C.2     1  UNL1        0.0172
     11 C           1.5321    0.6338   28.8157 C.2     1  UNL1        0.0900
     12 N           0.7802   -0.2450   29.7709 N.2     1  UNL1       -0.1519
     13 N          -0.6365   -0.3479   29.2889 N.2     1  UNL1       -0.1507
     14 C          -0.7602    0.4672   28.0357 C.2     1  UNL1        0.1058
     15 C           0.5801    1.0739   27.7433 C.3     1  UNL1        0.1103
     16 N          -3.5071    4.0217   25.2380 N.pl3   1  UNL1       -0.2729
     17 C          -4.6928    3.8191   24.3417 C.3     1  UNL1        0.1257
     18 C          -6.0228    4.4047   24.7137 C.3     1  UNL1        0.1637
     19 O          -6.1671    5.1927   25.9817 O.3     1  UNL1       -0.3501
     20 C          -4.9815    5.3953   26.8780 C.3     1  UNL1        0.1637
     21 C          -3.6515    4.8098   26.5061 C.3     1  UNL1        0.1257
     22 O          -0.0910    2.5600   21.6057 O.3     1  UNL1       -0.4504
     23 C           2.7930   -0.6571   20.3475 C.3     1  UNL1        0.0770
     24 C           1.3175   -0.8618   20.1712 C.3     1  UNL1        0.0128
     25 C           0.3561    0.2106   20.5906 C.3     1  UNL1        0.0441
     26 C           0.8703    1.4876   21.1863 C.3     1  UNL1        0.1691
     27 C           2.3458    1.6922   21.3626 C.3     1  UNL1        0.0441
     28 C           3.3071    0.6200   20.9432 C.3     1  UNL1        0.0128
     29 C           5.2381   -2.8326   18.1030 C.3     1  UNL1        0.1149
     30 N           4.2769   -1.7604   18.5224 N.am    1  UNL1       -0.2760
     31 C           3.8380   -0.7189   17.5361 C.3     1  UNL1        0.1149
     32 C           3.7543   -1.7294   19.9281 C.2     1  UNL1        0.2252
     33 O           4.1931   -2.7709   20.9144 O.2     1  UNL1       -0.2749
@<TRIPOS>BOND
     1    29    30    1
     2    30    31    1
     3    30    32   am
     4    32    33    2
     5    23    32    1
     6    23    24    1
     7    24    25    1
     8    25    26    1
     9    26    22    1
    10    22     1    1
    11     1     2   ar
    12     2     3   ar
    13     3     7    1
    14     7     8    2
    15     8     9    1
    16     9    10    2
    17    10    11    1
    18    11    12    2
    19    12    13    1
    20    13    14    2
    21    14    15    1
    22     3     4   ar
    23     4     5   ar
    24     5    16    1
    25    16    17    1
    26    17    18    1
    27    18    19    1
    28    19    20    1
    29    20    21    1
    30     5     6   ar
    31    26    27    1
    32    27    28    1
    33    28    23    1
    34     6     1   ar
    35    15     7    1
    36    21    16    1
    37    15    11    1
@<TRIPOS>MOLECULE
*****
 33 37 0 0 0
SMALL
GASTEIGER

@<TRIPOS>ATOM
      1 C           5.6305   -1.8719   25.9130 C.ar    1  UNL1        0.3235
      2 N           6.2716   -3.0711   25.2800 N.ar    1  UNL1       -0.1753
      3 C           6.8627   -4.1478   26.1411 C.ar    1  UNL1        0.1665
      4 N           6.8128   -4.0252   27.6352 N.ar    1  UNL1       -0.1946
      5 C           6.1717   -2.8259   28.2683 C.ar    1  UNL1        0.2255
      6 N           5.5806   -1.7492   27.4073 N.ar    1  UNL1       -0.1610
      7 C           7.5038   -5.3471   25.5080 C.2     1  UNL1        0.0249
      8 C           7.8998   -6.5203   26.3545 C.2     1  UNL1       -0.0005
      9 C           8.5408   -7.7196   25.7214 C.2     1  UNL1        0.0011
     10 C           8.7859   -7.7456   24.2417 C.2     1  UNL1        0.0172
     11 C           8.3898   -6.5723   23.3952 C.2     1  UNL1        0.0900
     12 N           8.5050   -6.3130   21.9223 N.2     1  UNL1       -0.1519
     13 N           7.9351   -4.9535   21.6451 N.2     1  UNL1       -0.1507
     14 C           7.4678   -4.3725   22.9467 C.2     1  UNL1        0.1058
     15 C           7.7488   -5.3731   24.0283 C.3     1  UNL1        0.1103
     16 N           6.1218   -2.7033   29.7624 N.pl3   1  UNL1       -0.2729
     17 C           5.5535   -1.4675   30.3950 C.3     1  UNL1        0.1257
     18 C           5.5037   -1.3449   31.8892 C.3     1  UNL1        0.1637
     19 O           6.0220   -2.4580   32.7507 O.3     1  UNL1       -0.3501
     20 C           6.5902   -3.6937   32.1182 C.3     1  UNL1        0.1637
     21 C           6.6401   -3.8163   30.6240 C.3     1  UNL1        0.1257
     22 O           5.0394   -0.7953   25.0520 O.3     1  UNL1       -0.4504
     23 C           4.4990   -1.4868   20.6384 C.3     1  UNL1        0.0770
     24 C           5.8601   -1.1784   21.1881 C.3     1  UNL1        0.0128
     25 C           6.0403   -0.9479   22.6594 C.3     1  UNL1        0.0441
     26 C           4.8593   -1.0258   23.5808 C.3     1  UNL1        0.1691
     27 C           3.4982   -1.3342   23.0311 C.3     1  UNL1        0.0441
     28 C           3.3180   -1.5647   21.5600 C.3     1  UNL1        0.0128
     29 C           3.7809   -0.8027   16.7958 C.3     1  UNL1        0.1149
     30 N           3.9610   -0.5722   18.2669 N.am    1  UNL1       -0.2760
     31 C           3.7832    0.8035   18.8378 C.3     1  UNL1        0.1149
     32 C           4.3189   -1.7173   19.1673 C.2     1  UNL1        0.2252
     33 O           4.4967   -3.0930   18.5964 O.2     1  UNL1       -0.2749
@<TRIPOS>BOND
     1    29    30    1
     2    30    31    1
     3    30    32   am
     4    32    33    2
     5    23    32    1
     6    23    24    1
     7    24    25    1
     8    25    26    1
     9    26    22    1
    10    22     1    1
    11     1     2   ar
    12     2     3   ar
    13     3     7    1
    14     7     8    2
    15     8     9    1
    16     9    10    2
    17    10    11    1
    18    11    12    2
    19    12    13    1
    20    13    14    2
    21    14    15    1
    22     3     4   ar
    23     4     5   ar
    24     5    16    1
    25    16    17    1
    26    17    18    1
    27    18    19    1
    28    19    20    1
    29    20    21    1
    30     5     6   ar
    31    26    27    1
    32    27    28    1
    33    28    23    1
    34     6     1   ar
    35    15     7    1
    36    21    16    1
    37    15    11    1
@<TRIPOS>MOLECULE
*****
 33 37 0 0 0
SMALL
GASTEIGER

@<TRIPOS>ATOM
      1 C          -1.1800    3.6048   23.4429 C.ar    1  UNL1        0.3235
      2 N          -2.3080    3.8731   22.4914 N.ar    1  UNL1       -0.1753
      3 C          -2.3207    3.2214   21.1404 C.ar    1  UNL1        0.1665
      4 N          -1.2053    2.3015   20.7409 N.ar    1  UNL1       -0.1946
      5 C          -0.0772    2.0332   21.6925 C.ar    1  UNL1        0.2255
      6 N          -0.0645    2.6848   23.0435 N.ar    1  UNL1       -0.1610
      7 C          -3.4489    3.4898   20.1888 C.2     1  UNL1        0.0249
      8 C          -4.8670    3.2732   20.6268 C.2     1  UNL1       -0.0005
      9 C          -5.9951    3.5415   19.6754 C.2     1  UNL1        0.0011
     10 C          -5.7051    4.0264   18.2858 C.2     1  UNL1        0.0172
     11 C          -4.2869    4.2430   17.8478 C.2     1  UNL1        0.0900
     12 N          -3.6976    4.7111   16.5503 N.2     1  UNL1       -0.1519
     13 N          -2.2052    4.7321   16.6999 N.2     1  UNL1       -0.1507
     14 C          -1.8722    4.2769   18.0899 C.2     1  UNL1        0.1058
     15 C          -3.1588    3.9747   18.7993 C.3     1  UNL1        0.1103
     16 N           1.0381    1.1133   21.2930 N.pl3   1  UNL1       -0.2729
     17 C           0.7492   -0.0949   20.4521 C.3     1  UNL1        0.1257
     18 C           1.8647   -1.0148   20.0526 C.3     1  UNL1        0.1637
     19 O           3.2689   -0.7266   20.4940 O.3     1  UNL1       -0.3501
     20 C           3.5579    0.4815   21.3348 C.3     1  UNL1        0.1637
     21 C           2.4425    1.4014   21.7343 C.3     1  UNL1        0.1257
     22 O          -1.1673    4.2564   24.7939 O.3     1  UNL1       -0.4504
     23 C           0.3720    1.9962   28.3678 C.3     1  UNL1        0.0770
     24 C          -0.8093    1.4764   27.6034 C.3     1  UNL1        0.0128
     25 C          -1.3224    2.2297   26.4121 C.3     1  UNL1        0.0441
     26 C          -0.6542    3.5030   25.9852 C.3     1  UNL1        0.1691
     27 C           0.5271    4.0229   26.7496 C.3     1  UNL1        0.0441
     28 C           1.0402    3.2696   27.9408 C.3     1  UNL1        0.0128
     29 C           2.4642   -0.5515   30.5771 C.3     1  UNL1        0.1149
     30 N           1.9511    0.2019   29.3859 N.am    1  UNL1       -0.2760
     31 C           2.5041   -0.0857   28.0215 C.3     1  UNL1        0.1149
     32 C           0.8851    1.2429   29.5590 C.2     1  UNL1        0.2252
     33 O           0.3321    1.5304   30.9234 O.2     1  UNL1       -0.2749
@<TRIPOS>BOND
     1    29    30    1
     2    30    31    1
     3    30    32   am
     4    32    33    2
     5    23    32    1
     6    23    24    1
     7    24    25    1
     8    25    26    1
     9    26    22    1
    10    22     1    1
    11     1     2   ar
    12     2     3   ar
    13     3     7    1
    14     7     8    2
    15     8     9    1
    16     9    10    2
    17    10    11    1
    18    11    12    2
    19    12    13    1
    20    13    14    2
    21    14    15    1
    22     3     4   ar
    23     4     5   ar
    24     5    16    1
    25    16    17    1
    26    17    18    1
    27    18    19    1
    28    19    20    1
    29    20    21    1
    30     5     6   ar
    31    26    27    1
    32    27    28    1
    33    28    23    1
    34     6     1   ar
    35    15     7    1
    36    21    16    1
    37    15    11    1
@<TRIPOS>MOLECULE
*****
 33 37 0 0 0
SMALL
GASTEIGER

@<TRIPOS>ATOM
      1 C          -1.1062    3.4938   23.6154 C.ar    1  UNL1        0.3235
      2 N          -0.1052    2.7384   22.7926 N.ar    1  UNL1       -0.1753
      3 C          -0.4502    2.3130   21.3961 C.ar    1  UNL1        0.1665
      4 N          -1.7963    2.6431   20.8225 N.ar    1  UNL1       -0.1946
      5 C          -2.7974    3.3986   21.6455 C.ar    1  UNL1        0.2255
      6 N          -2.4524    3.8239   23.0419 N.ar    1  UNL1       -0.1610
      7 C           0.5509    1.5576   20.5732 C.2     1  UNL1        0.0249
      8 C           0.5389    0.0576   20.5686 C.2     1  UNL1       -0.0005
      9 C           1.5400   -0.6978   19.7458 C.2     1  UNL1        0.0011
     10 C           2.5531    0.0467   18.9275 C.2     1  UNL1        0.0172
     11 C           2.5650    1.5466   18.9322 C.2     1  UNL1        0.0900
     12 N           3.4372    2.5455   18.2311 N.2     1  UNL1       -0.1519
     13 N           2.9751    3.9183   18.6207 N.2     1  UNL1       -0.1507
     14 C           1.8174    3.7679   19.5625 C.2     1  UNL1        0.1058
     15 C           1.5639    2.3020   19.7550 C.3     1  UNL1        0.1103
     16 N          -4.1435    3.7287   21.0719 N.pl3   1  UNL1       -0.2729
     17 C          -4.3870    3.5843   19.5987 C.3     1  UNL1        0.1257
     18 C          -5.7332    3.9145   19.0252 C.3     1  UNL1        0.1637
     19 O          -6.8357    4.3890   19.9247 O.3     1  UNL1       -0.3501
     20 C          -6.5923    4.5334   21.3978 C.3     1  UNL1        0.1637
     21 C          -5.2461    4.2033   21.9713 C.3     1  UNL1        0.1257
     22 O          -0.7612    3.9191   25.0119 O.3     1  UNL1       -0.4504
     23 C           1.3050    1.0474   27.7930 C.3     1  UNL1        0.0770
     24 C          -0.1764    0.9494   27.5788 C.3     1  UNL1        0.0128
     25 C          -0.8652    1.9067   26.6518 C.3     1  UNL1        0.0441
     26 C          -0.0725    2.9619   25.9389 C.3     1  UNL1        0.1691
     27 C           1.4089    3.0598   26.1531 C.3     1  UNL1        0.0441
     28 C           2.0976    2.1027   27.0801 C.3     1  UNL1        0.0128
     29 C           2.8004   -0.5434   31.1069 C.3     1  UNL1        0.1149
     30 N           2.1117    0.4137   30.1800 N.am    1  UNL1       -0.2760
     31 C           1.5410    1.6945   30.7128 C.3     1  UNL1        0.1149
     32 C           1.9937    0.0902   28.7200 C.2     1  UNL1        0.2252
     33 O           2.5643   -1.1905   28.1871 O.2     1  UNL1       -0.2749
@<TRIPOS>BOND
     1    29    30    1
     2    30    31    1
     3    30    32   am
     4    32    33    2
     5    23    32    1
     6    23    24    1
     7    24    25    1
     8    25    26    1
     9    26    22    1
    10    22     1    1
    11     1     2   ar
    12     2     3   ar
    13     3     7    1
    14     7     8    2
    15     8     9    1
    16     9    10    2
    17    10    11    1
    18    11    12    2
    19    12    13    1
    20    13    14    2
    21    14    15    1
    22     3     4   ar
    23     4     5   ar
    24     5    16    1
    25    16    17    1
    26    17    18    1
    27    18    19    1
    28    19    20    1
    29    20    21    1
    30     5     6   ar
    31    26    27    1
    32    27    28    1
    33    28    23    1
    34     6     1   ar
    35    15     7    1
    36    21    16    1
    37    15    11    1
@<TRIPOS>MOLECULE
*****
 33 37 0 0 0
SMALL
GASTEIGER

@<TRIPOS>ATOM
      1 C           5.5671   -2.1205   26.0163 C.ar    1  UNL1        0.3235
      2 N           6.2268   -3.0452   25.0368 N.ar    1  UNL1       -0.1753
      3 C           6.9774   -4.2472   25.5285 C.ar    1  UNL1        0.1665
      4 N           7.0684   -4.5245   26.9998 N.ar    1  UNL1       -0.1946
      5 C           6.4087   -3.5996   27.9794 C.ar    1  UNL1        0.2255
      6 N           5.6581   -2.3977   27.4877 N.ar    1  UNL1       -0.1610
      7 C           7.6371   -5.1720   24.5489 C.2     1  UNL1        0.0249
      8 C           7.8588   -6.6113   24.9084 C.2     1  UNL1       -0.0005
      9 C           8.5184   -7.5360   23.9289 C.2     1  UNL1        0.0011
     10 C           8.9564   -7.0215   22.5896 C.2     1  UNL1        0.0172
     11 C           8.7346   -5.5822   22.2300 C.2     1  UNL1        0.0900
     12 N           9.0572   -4.7952   20.9945 N.2     1  UNL1       -0.1519
     13 N           8.5969   -3.3841   21.2105 N.2     1  UNL1       -0.1507
     14 C           7.9899   -3.2989   22.5796 C.2     1  UNL1        0.1058
     15 C           8.0750   -4.6575   23.2097 C.3     1  UNL1        0.1103
     16 N           6.4996   -3.8769   29.4508 N.pl3   1  UNL1       -0.2729
     17 C           6.8507   -5.2527   29.9345 C.3     1  UNL1        0.1257
     18 C           6.9417   -5.5299   31.4059 C.3     1  UNL1        0.1637
     19 O           6.6815   -4.4314   32.3935 O.3     1  UNL1       -0.3501
     20 C           6.3304   -3.0556   31.9098 C.3     1  UNL1        0.1637
     21 C           6.2394   -2.7783   30.4385 C.3     1  UNL1        0.1257
     22 O           4.8165   -0.9185   25.5246 O.3     1  UNL1       -0.4504
     23 C           4.1850   -0.3106   21.1108 C.3     1  UNL1        0.0770
     24 C           3.0971   -0.9154   21.9478 C.3     1  UNL1        0.0128
     25 C           3.3076   -1.1181   23.4191 C.3     1  UNL1        0.0441
     26 C           4.6060   -0.7159   24.0533 C.3     1  UNL1        0.1691
     27 C           5.6939   -0.1110   23.2163 C.3     1  UNL1        0.0441
     28 C           5.4835    0.0917   21.7451 C.3     1  UNL1        0.0128
     29 C           4.0011   -1.0379   17.2138 C.3     1  UNL1        0.1149
     30 N           4.2116   -1.2405   18.6850 N.am    1  UNL1       -0.2760
     31 C           4.6593   -2.5756   19.2017 C.3     1  UNL1        0.1149
     32 C           3.9745   -0.1079   19.6396 C.2     1  UNL1        0.2252
     33 O           3.5269    1.2272   19.1228 O.2     1  UNL1       -0.2749
@<TRIPOS>BOND
     1    29    30    1
     2    30    31    1
     3    30    32   am
     4    32    33    2
     5    23    32    1
     6    23    24    1
     7    24    25    1
     8    25    26    1
     9    26    22    1
    10    22     1    1
    11     1     2   ar
    12     2     3   ar
    13     3     7    1
    14     7     8    2
    15     8     9    1
    16     9    10    2
    17    10    11    1
    18    11    12    2
    19    12    13    1
    20    13    14    2
    21    14    15    1
    22     3     4   ar
    23     4     5   ar
    24     5    16    1
    25    16    17    1
    26    17    18    1
    27    18    19    1
    28    19    20    1
    29    20    21    1
    30     5     6   ar
    31    26    27    1
    32    27    28    1
    33    28    23    1
    34     6     1   ar
    35    15     7    1
    36    21    16    1
    37    15    11    1
@<TRIPOS>MOLECULE
*****
 33 37 0 0 0
SMALL
GASTEIGER

@<TRIPOS>ATOM
      1 C          -0.8470    3.2713   23.8385 C.ar    1  UNL1        0.3235
      2 N           0.2455    2.2809   23.5642 N.ar    1  UNL1       -0.1753
      3 C           0.3838    1.6757   22.1987 C.ar    1  UNL1        0.1665
      4 N          -0.5705    2.0609   21.1074 N.ar    1  UNL1       -0.1946
      5 C          -1.6631    3.0514   21.3817 C.ar    1  UNL1        0.2255
      6 N          -1.8014    3.6566   22.7472 N.ar    1  UNL1       -0.1610
      7 C           1.4764    0.6852   21.9245 C.2     1  UNL1        0.0249
      8 C           2.1535   -0.0189   23.0628 C.2     1  UNL1       -0.0005
      9 C           3.2461   -1.0093   22.7886 C.2     1  UNL1        0.0011
     10 C           3.6616   -1.2958   21.3760 C.2     1  UNL1        0.0172
     11 C           2.9845   -0.5917   20.2377 C.2     1  UNL1        0.0900
     12 N           3.1785   -0.6685   18.7523 N.2     1  UNL1       -0.1519
     13 N           2.2058    0.2745   18.1085 N.2     1  UNL1       -0.1507
     14 C           1.4106    0.9341   19.1959 C.2     1  UNL1        0.1058
     15 C           1.8919    0.3987   20.5119 C.3     1  UNL1        0.1103
     16 N          -2.6174    3.4366   20.2905 N.pl3   1  UNL1       -0.2729
     17 C          -2.0941    3.9766   18.9925 C.3     1  UNL1        0.1257
     18 C          -3.0485    4.3618   17.9012 C.3     1  UNL1        0.1637
     19 O          -4.5260    4.2071   18.1080 O.3     1  UNL1       -0.3501
     20 C          -5.0494    3.6672   19.4059 C.3     1  UNL1        0.1637
     21 C          -4.0950    3.2820   20.4972 C.3     1  UNL1        0.1257
     22 O          -0.9853    3.8766   25.2040 O.3     1  UNL1       -0.4504
     23 C           0.7298    1.7617   28.7867 C.3     1  UNL1        0.0770
     24 C           1.3664    3.0238   28.2850 C.3     1  UNL1        0.0128
     25 C           0.7947    3.7288   27.0907 C.3     1  UNL1        0.0441
     26 C          -0.4136    3.1716   26.3982 C.3     1  UNL1        0.1691
     27 C          -1.0502    1.9095   26.9000 C.3     1  UNL1        0.0441
     28 C          -0.4786    1.2045   28.0941 C.3     1  UNL1        0.0128
     29 C           2.8480   -0.7726   30.9868 C.3     1  UNL1        0.1149
     30 N           2.2763   -0.0676   29.7926 N.am    1  UNL1       -0.2760
     31 C           2.6796   -0.4870   28.4100 C.3     1  UNL1        0.1149
     32 C           1.3014    1.0567   29.9809 C.2     1  UNL1        0.2252
     33 O           0.8982    1.4760   31.3635 O.2     1  UNL1       -0.2749
@<TRIPOS>BOND
     1    29    30    1
     2    30    31    1
     3    30    32   am
     4    32    33    2
     5    23    32    1
     6    23    24    1
     7    24    25    1
     8    25    26    1
     9    26    22    1
    10    22     1    1
    11     1     2   ar
    12     2     3   ar
    13     3     7    1
    14     7     8    2
    15     8     9    1
    16     9    10    2
    17    10    11    1
    18    11    12    2
    19    12    13    1
    20    13    14    2
    21    14    15    1
    22     3     4   ar
    23     4     5   ar
    24     5    16    1
    25    16    17    1
    26    17    18    1
    27    18    19    1
    28    19    20    1
    29    20    21    1
    30     5     6   ar
    31    26    27    1
    32    27    28    1
    33    28    23    1
    34     6     1   ar
    35    15     7    1
    36    21    16    1
    37    15    11    1
@<TRIPOS>MOLECULE
*****
 33 37 0 0 0
SMALL
GASTEIGER

@<TRIPOS>ATOM
      1 C           1.7508    0.5383   22.6380 C.ar    1  UNL1        0.3235
      2 N           2.6504   -0.4009   21.8908 N.ar    1  UNL1       -0.1753
      3 C           2.6346   -0.4205   20.3909 C.ar    1  UNL1        0.1665
      4 N           1.7192    0.4992   19.6384 N.ar    1  UNL1       -0.1946
      5 C           0.8196    1.4385   20.3858 C.ar    1  UNL1        0.2255
      6 N           0.8354    1.4581   21.8856 N.ar    1  UNL1       -0.1610
      7 C           3.5342   -1.3599   19.6436 C.2     1  UNL1        0.0249
      8 C           3.3153   -2.8409   19.7363 C.2     1  UNL1       -0.0005
      9 C           4.2148   -3.7802   18.9891 C.2     1  UNL1        0.0011
     10 C           5.3333   -3.2385   18.1490 C.2     1  UNL1        0.0172
     11 C           5.5522   -1.7575   18.0563 C.2     1  UNL1        0.0900
     12 N           6.5645   -0.9371   17.3132 N.2     1  UNL1       -0.1519
     13 N           6.2905    0.5093   17.6012 N.2     1  UNL1       -0.1507
     14 C           5.1089    0.5828   18.5223 C.2     1  UNL1        0.1058
     15 C           4.6526   -0.8181   18.8036 C.3     1  UNL1        0.1103
     16 N          -0.0957    2.3582   19.6333 N.pl3   1  UNL1       -0.2729
     17 C          -1.2942    2.9475   20.3164 C.3     1  UNL1        0.1257
     18 C          -2.2096    3.8672   19.5638 C.3     1  UNL1        0.1637
     19 O          -1.9265    4.1976   18.1283 O.3     1  UNL1       -0.3501
     20 C          -0.7280    3.6083   17.4453 C.3     1  UNL1        0.1637
     21 C           0.1873    2.6886   18.1978 C.3     1  UNL1        0.1257
     22 O           1.7666    0.5579   24.1378 O.3     1  UNL1       -0.4504
     23 C          -0.4354    3.7865   26.3691 C.3     1  UNL1        0.0770
     24 C          -0.9210    2.3685   26.4288 C.3     1  UNL1        0.0128
     25 C          -0.1871    1.2923   25.6850 C.3     1  UNL1        0.0441
     26 C           1.0326    1.6341   24.8816 C.3     1  UNL1        0.1691
     27 C           1.5183    3.0520   24.8219 C.3     1  UNL1        0.0441
     28 C           0.7844    4.1282   25.5655 C.3     1  UNL1        0.0128
     29 C          -3.1219    6.5707   27.2519 C.3     1  UNL1        0.1149
     30 N          -2.3880    5.4947   26.5082 N.am    1  UNL1       -0.2760
     31 C          -2.8726    5.0505   25.1599 C.3     1  UNL1        0.1149
     32 C          -1.1693    4.8626   27.1128 C.2     1  UNL1        0.2252
     33 O          -0.6847    5.3067   28.4610 O.2     1  UNL1       -0.2749
@<TRIPOS>BOND
     1    29    30    1
     2    30    31    1
     3    30    32   am
     4    32    33    2
     5    23    32    1
     6    23    24    1
     7    24    25    1
     8    25    26    1
     9    26    22    1
    10    22     1    1
    11     1     2   ar
    12     2     3   ar
    13     3     7    1
    14     7     8    2
    15     8     9    1
    16     9    10    2
    17    10    11    1
    18    11    12    2
    19    12    13    1
    20    13    14    2
    21    14    15    1
    22     3     4   ar
    23     4     5   ar
    24     5    16    1
    25    16    17    1
    26    17    18    1
    27    18    19    1
    28    19    20    1
    29    20    21    1
    30     5     6   ar
    31    26    27    1
    32    27    28    1
    33    28    23    1
    34     6     1   ar
    35    15     7    1
    36    21    16    1
    37    15    11    1
