@<TRIPOS>MOLECULE
*****
 38 41 0 0 0
SMALL
GASTEIGER

@<TRIPOS>ATOM
      1 N          -5.6706  -15.3264   23.1438 N.am    1  UNL1       -0.2683
      2 C          -4.6523  -16.3505   22.7384 C.2     1  UNL1        0.3044
      3 O          -5.0318  -17.8002   22.6721 O.2     1  UNL1       -0.2525
      4 N          -3.2545  -15.9250   22.3993 N.am    1  UNL1       -0.2903
      5 H          -5.4215  -14.3750   23.1873 H       1  UNL1        0.1564
      6 H          -3.0054  -14.9735   22.4429 H       1  UNL1        0.1509
      7 C          -8.8048  -16.5923   25.2232 C.ar    1  UNL1       -0.0209
      8 C          -7.4071  -16.1667   24.8841 C.ar    1  UNL1        0.0104
      9 C          -7.0684  -15.7521   23.4829 C.ar    1  UNL1        0.0514
     10 C          -8.1275  -15.7631   22.4208 C.ar    1  UNL1        0.0178
     11 C          -9.5253  -16.1887   22.7599 C.ar    1  UNL1        0.0383
     12 C          -9.8640  -16.6033   24.1611 C.ar    1  UNL1       -0.0011
     13 C         -10.5845  -16.1997   21.6978 C.ar    1  UNL1        0.1839
     14 N         -10.4016  -15.7918   20.2659 N.ar    1  UNL1       -0.1081
     15 N         -11.7165  -15.9605   19.5642 N.ar    1  UNL1       -0.0227
     16 N         -12.7122  -16.4727   20.5625 N.ar    1  UNL1       -0.0429
     17 N         -12.0126  -16.6205   21.8810 N.ar    1  UNL1       -0.2113
     18 C         -12.6322  -17.1041   23.1586 C.3     1  UNL1        0.1573
     19 C          -8.4351  -16.3747   27.7856 C.3     1  UNL1        0.0050
     20 C          -9.1435  -17.0070   26.6244 C.3     1  UNL1        0.0264
     21 C          -2.2362  -16.9490   21.9939 C.3     1  UNL1        0.0745
     22 C          -1.7222  -17.9351   23.0008 C.3     1  UNL1        0.0214
     23 C          -1.7319  -16.9871   20.5818 C.3     1  UNL1        0.0369
     24 C          -2.6351  -17.4445   19.4749 C.3     1  UNL1        0.0738
     25 N          -3.6085  -18.5605   19.7140 N.3     1  UNL1       -0.2726
     26 C          -3.1104  -19.9167   20.1170 C.3     1  UNL1        0.0721
     27 C          -4.0838  -21.0326   20.3560 C.3     1  UNL1        0.0174
     28 C          -5.5553  -20.7923   20.1919 C.3     1  UNL1        0.0031
     29 C          -6.0534  -19.4361   19.7889 C.3     1  UNL1        0.0204
     30 C          -5.0800  -18.3202   19.5499 C.3     1  UNL1        0.0724
     31 C          -7.5249  -19.1958   19.6248 C.3     1  UNL1        0.0277
     32 C          -8.4618  -19.4751   20.7624 C.ar    1  UNL1       -0.0220
     33 C          -7.9309  -19.5894   22.1606 C.ar    1  UNL1       -0.0020
     34 C          -8.8678  -19.8687   23.2982 C.ar    1  UNL1        0.0293
     35 C         -10.3358  -20.0337   23.0375 C.ar    1  UNL1        0.1401
     36 F         -11.2728  -20.3131   24.1752 F       1  UNL1       -0.2042
     37 C         -10.8668  -19.9195   21.6394 C.ar    1  UNL1        0.0293
     38 C          -9.9298  -19.6402   20.5017 C.ar    1  UNL1       -0.0020
@<TRIPOS>BOND
     1    19    20    1
     2    20     7    1
     3     7     8   ar
     4     8     9   ar
     5     9     1    1
     6     1     2   am
     7     2     3    2
     8     2     4   am
     9     4    21    1
    10    21    22    1
    11    21    23    1
    12    23    24    1
    13    24    25    1
    14    25    26    1
    15    26    27    1
    16    27    28    1
    17    28    29    1
    18    29    31    1
    19    31    32    1
    20    32    33   ar
    21    33    34   ar
    22    34    35   ar
    23    35    36    1
    24    35    37   ar
    25    37    38   ar
    26    29    30    1
    27     9    10   ar
    28    10    11   ar
    29    11    13    1
    30    13    14   ar
    31    14    15   ar
    32    15    16   ar
    33    16    17   ar
    34    17    18    1
    35    11    12   ar
    36    12     7   ar
    37    30    25    1
    38    17    13   ar
    39    38    32   ar
    40     1     5    1
    41     4     6    1
@<TRIPOS>MOLECULE
*****
 38 41 0 0 0
SMALL
GASTEIGER

@<TRIPOS>ATOM
      1 N          -9.8815  -16.0258   23.9019 N.am    1  UNL1       -0.2683
      2 C          -9.9819  -16.3667   22.4446 C.2     1  UNL1        0.3044
      3 O          -8.7395  -16.4615   21.6092 O.2     1  UNL1       -0.2525
      4 N         -11.3244  -16.6129   21.8226 N.am    1  UNL1       -0.2903
      5 H         -10.6969  -15.9636   24.4501 H       1  UNL1        0.1564
      6 H         -12.1398  -16.5506   22.3709 H       1  UNL1        0.1509
      7 C          -7.0930  -15.2273   26.6105 C.ar    1  UNL1       -0.0209
      8 C          -8.4356  -15.4734   25.9886 C.ar    1  UNL1        0.0104
      9 C          -8.5389  -15.7796   24.5238 C.ar    1  UNL1        0.0514
     10 C          -7.2995  -15.8397   23.6810 C.ar    1  UNL1        0.0178
     11 C          -5.9570  -15.5936   24.3029 C.ar    1  UNL1        0.0383
     12 C          -5.8537  -15.2874   25.7677 C.ar    1  UNL1       -0.0011
     13 C          -4.7175  -15.6537   23.4601 C.ar    1  UNL1        0.1839
     14 N          -4.1361  -14.5222   22.6652 N.ar    1  UNL1       -0.1081
     15 N          -2.9012  -15.0250   21.9780 N.ar    1  UNL1       -0.0227
     16 N          -2.7194  -16.4672   22.3482 N.ar    1  UNL1       -0.0429
     17 N          -3.8419  -16.8557   23.2642 N.ar    1  UNL1       -0.2113
     18 C          -4.0520  -18.2088   23.8766 C.3     1  UNL1        0.1573
     19 C          -6.9467  -13.4963   28.5424 C.3     1  UNL1        0.0050
     20 C          -6.9898  -14.9210   28.0753 C.3     1  UNL1        0.0264
     21 C         -11.4248  -16.9538   20.3654 C.3     1  UNL1        0.0745
     22 C         -11.7051  -15.8759   19.3605 C.3     1  UNL1        0.0214
     23 C         -11.2448  -18.3726   19.9129 C.3     1  UNL1        0.0369
     24 C          -9.9250  -18.8216   19.3593 C.3     1  UNL1        0.0738
     25 N          -8.8658  -19.3498   20.2807 N.3     1  UNL1       -0.2726
     26 C          -9.1169  -19.4052   21.7585 C.3     1  UNL1        0.0721
     27 C          -8.0577  -19.9335   22.6799 C.3     1  UNL1        0.0174
     28 C          -6.7474  -20.4064   22.1235 C.3     1  UNL1        0.0031
     29 C          -6.4963  -20.3510   20.6457 C.3     1  UNL1        0.0204
     30 C          -7.5555  -19.8227   19.7243 C.3     1  UNL1        0.0724
     31 C          -5.1861  -20.8239   20.0893 C.3     1  UNL1        0.0277
     32 C          -4.0118  -19.8918   20.0405 C.ar    1  UNL1       -0.0220
     33 C          -4.0308  -18.7092   19.1178 C.ar    1  UNL1       -0.0020
     34 C          -2.8565  -17.7772   19.0690 C.ar    1  UNL1        0.0293
     35 C          -1.6633  -18.0277   19.9428 C.ar    1  UNL1        0.1401
     36 F          -0.4890  -17.0956   19.8939 F       1  UNL1       -0.2042
     37 C          -1.6443  -19.2102   20.8654 C.ar    1  UNL1        0.0293
     38 C          -2.8186  -20.1423   20.9142 C.ar    1  UNL1       -0.0020
@<TRIPOS>BOND
     1    19    20    1
     2    20     7    1
     3     7     8   ar
     4     8     9   ar
     5     9     1    1
     6     1     2   am
     7     2     3    2
     8     2     4   am
     9     4    21    1
    10    21    22    1
    11    21    23    1
    12    23    24    1
    13    24    25    1
    14    25    26    1
    15    26    27    1
    16    27    28    1
    17    28    29    1
    18    29    31    1
    19    31    32    1
    20    32    33   ar
    21    33    34   ar
    22    34    35   ar
    23    35    36    1
    24    35    37   ar
    25    37    38   ar
    26    29    30    1
    27     9    10   ar
    28    10    11   ar
    29    11    13    1
    30    13    14   ar
    31    14    15   ar
    32    15    16   ar
    33    16    17   ar
    34    17    18    1
    35    11    12   ar
    36    12     7   ar
    37    30    25    1
    38    17    13   ar
    39    38    32   ar
    40     1     5    1
    41     4     6    1
@<TRIPOS>MOLECULE
*****
 38 41 0 0 0
SMALL
GASTEIGER

@<TRIPOS>ATOM
      1 N          -8.2052  -15.0311   22.5916 N.am    1  UNL1       -0.2683
      2 C          -7.2923  -15.8156   23.4867 C.2     1  UNL1        0.3044
      3 O          -7.7053  -17.1721   23.9759 O.2     1  UNL1       -0.2525
      4 N          -5.9664  -15.2436   23.8926 N.am    1  UNL1       -0.2903
      5 H          -7.9341  -14.1408   22.2705 H       1  UNL1        0.1564
      6 H          -5.6953  -14.3533   23.5715 H       1  UNL1        0.1509
      7 C         -11.3598  -15.9830   20.3798 C.ar    1  UNL1       -0.0209
      8 C         -10.0339  -15.4110   20.7857 C.ar    1  UNL1        0.0104
      9 C          -9.5312  -15.6031   22.1858 C.ar    1  UNL1        0.0514
     10 C         -10.3543  -16.3673   23.1800 C.ar    1  UNL1        0.0178
     11 C         -11.6802  -16.9393   22.7741 C.ar    1  UNL1        0.0383
     12 C         -12.1829  -16.7471   21.3740 C.ar    1  UNL1       -0.0011
     13 C         -12.5033  -17.7035   23.7684 C.ar    1  UNL1        0.1839
     14 N         -13.9909  -17.6116   23.9375 N.ar    1  UNL1       -0.1081
     15 N         -14.3905  -18.5450   25.0417 N.ar    1  UNL1       -0.0227
     16 N         -13.1497  -19.2138   25.5549 N.ar    1  UNL1       -0.0429
     17 N         -11.9834  -18.6937   24.7680 N.ar    1  UNL1       -0.2113
     18 C         -10.5491  -19.0936   24.9489 C.3     1  UNL1        0.1573
     19 C         -11.1865  -14.8103   18.0680 C.3     1  UNL1        0.0050
     20 C         -11.8626  -15.7908   18.9797 C.3     1  UNL1        0.0264
     21 C          -5.0534  -16.0281   24.7876 C.3     1  UNL1        0.0745
     22 C          -5.0718  -15.7932   26.2691 C.3     1  UNL1        0.0214
     23 C          -4.1223  -17.0475   24.2014 C.3     1  UNL1        0.0369
     24 C          -3.3578  -16.7329   22.9497 C.3     1  UNL1        0.0738
     25 N          -3.4088  -17.6745   21.7831 N.3     1  UNL1       -0.2726
     26 C          -2.3807  -17.5771   20.6952 C.3     1  UNL1        0.0721
     27 C          -2.4318  -18.5187   19.5287 C.3     1  UNL1        0.0174
     28 C          -3.5109  -19.5576   19.4500 C.3     1  UNL1        0.0031
     29 C          -4.5390  -19.6549   20.5379 C.3     1  UNL1        0.0204
     30 C          -4.4880  -18.7133   21.7044 C.3     1  UNL1        0.0724
     31 C          -5.6182  -20.6938   20.4592 C.3     1  UNL1        0.0277
     32 C          -7.0319  -20.2860   20.1676 C.ar    1  UNL1       -0.0220
     33 C          -7.6862  -20.7116   18.8866 C.ar    1  UNL1       -0.0020
     34 C          -9.0999  -20.3038   18.5950 C.ar    1  UNL1        0.0293
     35 C          -9.8594  -19.4706   19.5844 C.ar    1  UNL1        0.1401
     36 F         -11.2733  -19.0629   19.2927 F       1  UNL1       -0.2042
     37 C          -9.2052  -19.0451   20.8653 C.ar    1  UNL1        0.0293
     38 C          -7.7914  -19.4528   21.1570 C.ar    1  UNL1       -0.0020
@<TRIPOS>BOND
     1    19    20    1
     2    20     7    1
     3     7     8   ar
     4     8     9   ar
     5     9     1    1
     6     1     2   am
     7     2     3    2
     8     2     4   am
     9     4    21    1
    10    21    22    1
    11    21    23    1
    12    23    24    1
    13    24    25    1
    14    25    26    1
    15    26    27    1
    16    27    28    1
    17    28    29    1
    18    29    31    1
    19    31    32    1
    20    32    33   ar
    21    33    34   ar
    22    34    35   ar
    23    35    36    1
    24    35    37   ar
    25    37    38   ar
    26    29    30    1
    27     9    10   ar
    28    10    11   ar
    29    11    13    1
    30    13    14   ar
    31    14    15   ar
    32    15    16   ar
    33    16    17   ar
    34    17    18    1
    35    11    12   ar
    36    12     7   ar
    37    30    25    1
    38    17    13   ar
    39    38    32   ar
    40     1     5    1
    41     4     6    1
@<TRIPOS>MOLECULE
*****
 38 41 0 0 0
SMALL
GASTEIGER

@<TRIPOS>ATOM
      1 N           2.7853   -0.5239   23.5655 N.am    1  UNL1       -0.2683
      2 C           3.1608    0.9232   23.4433 C.2     1  UNL1        0.3044
      3 O           4.3861    1.3176   22.6731 O.2     1  UNL1       -0.2525
      4 N           2.3112    1.9758   24.0914 N.am    1  UNL1       -0.2903
      5 H           1.9811   -0.7828   24.0710 H       1  UNL1        0.1564
      6 H           1.5070    1.7169   24.5969 H       1  UNL1        0.1509
      7 C           4.1785   -3.0857   20.8736 C.ar    1  UNL1       -0.0209
      8 C           3.3288   -2.0331   21.5217 C.ar    1  UNL1        0.0104
      9 C           3.6350   -1.5766   22.9174 C.ar    1  UNL1        0.0514
     10 C           4.7908   -2.1726   23.6649 C.ar    1  UNL1        0.0178
     11 C           5.6404   -3.2252   23.0167 C.ar    1  UNL1        0.0383
     12 C           5.3343   -3.6817   21.6211 C.ar    1  UNL1       -0.0011
     13 C           6.7963   -3.8213   23.7643 C.ar    1  UNL1        0.1839
     14 N           6.7024   -4.7300   24.9540 N.ar    1  UNL1       -0.1081
     15 N           8.0969   -5.0837   25.3784 N.ar    1  UNL1       -0.0227
     16 N           9.0527   -4.3936   24.4508 N.ar    1  UNL1       -0.0429
     17 N           8.2488   -3.6134   23.4533 N.ar    1  UNL1       -0.2113
     18 C           8.8007   -2.7729   22.3402 C.3     1  UNL1        0.1573
     19 C           4.5923   -4.7247   18.9007 C.3     1  UNL1        0.0050
     20 C           3.8723   -3.5422   19.4779 C.3     1  UNL1        0.0264
     21 C           2.6867    3.4229   23.9693 C.3     1  UNL1        0.0745
     22 C           3.5798    4.0551   24.9953 C.3     1  UNL1        0.0214
     23 C           2.1692    4.2377   22.8211 C.3     1  UNL1        0.0369
     24 C           1.0153    3.7354   22.0049 C.3     1  UNL1        0.0738
     25 N           1.1872    2.5345   21.1226 N.3     1  UNL1       -0.2726
     26 C           0.2324    1.3826   21.2293 C.3     1  UNL1        0.0721
     27 C           0.4043    0.1818   20.3471 C.3     1  UNL1        0.0174
     28 C           1.5310    0.1329   19.3581 C.3     1  UNL1        0.0031
     29 C           2.4858    1.2848   19.2513 C.3     1  UNL1        0.0204
     30 C           2.3139    2.4856   20.1336 C.3     1  UNL1        0.0724
     31 C           3.6125    1.2359   18.2623 C.3     1  UNL1        0.0277
     32 C           4.7587    0.2926   18.4773 C.ar    1  UNL1       -0.0220
     33 C           5.5431    0.3442   19.7549 C.ar    1  UNL1       -0.0020
     34 C           6.6894   -0.5991   19.9699 C.ar    1  UNL1        0.0293
     35 C           7.0513   -1.5941   18.9073 C.ar    1  UNL1        0.1401
     36 F           8.1976   -2.5374   19.1224 F       1  UNL1       -0.2042
     37 C           6.2670   -1.6458   17.6298 C.ar    1  UNL1        0.0293
     38 C           5.1207   -0.7024   17.4148 C.ar    1  UNL1       -0.0020
@<TRIPOS>BOND
     1    19    20    1
     2    20     7    1
     3     7     8   ar
     4     8     9   ar
     5     9     1    1
     6     1     2   am
     7     2     3    2
     8     2     4   am
     9     4    21    1
    10    21    22    1
    11    21    23    1
    12    23    24    1
    13    24    25    1
    14    25    26    1
    15    26    27    1
    16    27    28    1
    17    28    29    1
    18    29    31    1
    19    31    32    1
    20    32    33   ar
    21    33    34   ar
    22    34    35   ar
    23    35    36    1
    24    35    37   ar
    25    37    38   ar
    26    29    30    1
    27     9    10   ar
    28    10    11   ar
    29    11    13    1
    30    13    14   ar
    31    14    15   ar
    32    15    16   ar
    33    16    17   ar
    34    17    18    1
    35    11    12   ar
    36    12     7   ar
    37    30    25    1
    38    17    13   ar
    39    38    32   ar
    40     1     5    1
    41     4     6    1
@<TRIPOS>MOLECULE
*****
 38 41 0 0 0
SMALL
GASTEIGER

@<TRIPOS>ATOM
      1 N           5.0275   -3.3691   32.9175 N.am    1  UNL1       -0.2683
      2 C           6.2021   -3.6647   32.0327 C.2     1  UNL1        0.3044
      3 O           6.8796   -2.5521   31.2889 O.2     1  UNL1       -0.2525
      4 N           6.6993   -5.0729   31.8917 N.am    1  UNL1       -0.2903
      5 H           4.5828   -4.0993   33.4056 H       1  UNL1        0.1564
      6 H           6.2546   -5.8031   32.3799 H       1  UNL1        0.1509
      7 C           4.2600    0.1982   34.4781 C.ar    1  UNL1       -0.0209
      8 C           4.7571   -1.2100   34.3371 C.ar    1  UNL1        0.0104
      9 C           4.5304   -1.9608   33.0585 C.ar    1  UNL1        0.0514
     10 C           3.8066   -1.3036   31.9209 C.ar    1  UNL1        0.0178
     11 C           3.3095    0.1046   32.0620 C.ar    1  UNL1        0.0383
     12 C           3.5362    0.8555   33.3405 C.ar    1  UNL1       -0.0011
     13 C           2.5856    0.7619   30.9244 C.ar    1  UNL1        0.1839
     14 N           1.2083    0.4184   30.4397 N.ar    1  UNL1       -0.1081
     15 N           0.8834    1.3223   29.2876 N.ar    1  UNL1       -0.0227
     16 N           2.0601    2.2245   29.0602 N.ar    1  UNL1       -0.0429
     17 N           3.1120    1.8782   30.0718 N.ar    1  UNL1       -0.2113
     18 C           4.4547    2.5331   30.2070 C.3     1  UNL1        0.1573
     19 C           5.1930    0.2851   36.9013 C.3     1  UNL1        0.0050
     20 C           4.4867    0.9491   35.7567 C.3     1  UNL1        0.0264
     21 C           7.8739   -5.3685   31.0069 C.3     1  UNL1        0.0745
     22 C           9.2466   -4.9137   31.4059 C.3     1  UNL1        0.0214
     23 C           7.6760   -6.1188   29.7233 C.3     1  UNL1        0.0369
     24 C           6.9930   -5.4552   28.5643 C.3     1  UNL1        0.0738
     25 N           7.3328   -5.8614   27.1608 N.3     1  UNL1       -0.2726
     26 C           7.5321   -7.3101   26.8268 C.3     1  UNL1        0.0721
     27 C           7.8718   -7.7162   25.4234 C.3     1  UNL1        0.0174
     28 C           8.0122   -6.6738   24.3540 C.3     1  UNL1        0.0031
     29 C           7.8128   -5.2251   24.6881 C.3     1  UNL1        0.0204
     30 C           7.4731   -4.8189   26.0915 C.3     1  UNL1        0.0724
     31 C           7.9531   -4.1827   23.6187 C.3     1  UNL1        0.0277
     32 C           6.8306   -3.9429   22.6531 C.ar    1  UNL1       -0.0220
     33 C           7.0852   -4.0070   21.1762 C.ar    1  UNL1       -0.0020
     34 C           5.9627   -3.7672   20.2106 C.ar    1  UNL1        0.0293
     35 C           4.5856   -3.4634   20.7218 C.ar    1  UNL1        0.1401
     36 F           3.4631   -3.2236   19.7561 F       1  UNL1       -0.2042
     37 C           4.3310   -3.3993   22.1986 C.ar    1  UNL1        0.0293
     38 C           5.4536   -3.6391   23.1643 C.ar    1  UNL1       -0.0020
@<TRIPOS>BOND
     1    19    20    1
     2    20     7    1
     3     7     8   ar
     4     8     9   ar
     5     9     1    1
     6     1     2   am
     7     2     3    2
     8     2     4   am
     9     4    21    1
    10    21    22    1
    11    21    23    1
    12    23    24    1
    13    24    25    1
    14    25    26    1
    15    26    27    1
    16    27    28    1
    17    28    29    1
    18    29    31    1
    19    31    32    1
    20    32    33   ar
    21    33    34   ar
    22    34    35   ar
    23    35    36    1
    24    35    37   ar
    25    37    38   ar
    26    29    30    1
    27     9    10   ar
    28    10    11   ar
    29    11    13    1
    30    13    14   ar
    31    14    15   ar
    32    15    16   ar
    33    16    17   ar
    34    17    18    1
    35    11    12   ar
    36    12     7   ar
    37    30    25    1
    38    17    13   ar
    39    38    32   ar
    40     1     5    1
    41     4     6    1
@<TRIPOS>MOLECULE
*****
 38 41 0 0 0
SMALL
GASTEIGER

@<TRIPOS>ATOM
      1 N           5.0818   -3.3762   33.0278 N.am    1  UNL1       -0.2683
      2 C           6.1981   -3.6753   32.0716 C.2     1  UNL1        0.3044
      3 O           6.8106   -2.5694   31.2642 O.2     1  UNL1       -0.2525
      4 N           6.7019   -5.0803   31.9227 N.am    1  UNL1       -0.2903
      5 H           4.6798   -4.1020   33.5577 H       1  UNL1        0.1564
      6 H           6.2999   -5.8061   32.4526 H       1  UNL1        0.1509
      7 C           3.2835    0.0681   32.2196 C.ar    1  UNL1       -0.0209
      8 C           3.7873   -1.3369   32.0709 C.ar    1  UNL1        0.0104
      9 C           4.5779   -1.9711   33.1766 C.ar    1  UNL1        0.0514
     10 C           4.8647   -1.2005   34.4311 C.ar    1  UNL1        0.0178
     11 C           4.3609    0.2045   34.5798 C.ar    1  UNL1        0.0383
     12 C           3.5703    0.8388   33.4741 C.ar    1  UNL1       -0.0011
     13 C           4.6477    0.9753   35.8344 C.ar    1  UNL1        0.1839
     14 N           4.0055    0.7534   37.1717 N.ar    1  UNL1       -0.1081
     15 N           4.5879    1.7442   38.1356 N.ar    1  UNL1       -0.0227
     16 N           5.5901    2.5783   37.3941 N.ar    1  UNL1       -0.0429
     17 N           5.6270    2.1031   35.9718 N.ar    1  UNL1       -0.2113
     18 C           6.4915    2.6583   34.8789 C.3     1  UNL1        0.1573
     19 C           1.5332    1.8138   31.4202 C.3     1  UNL1        0.0050
     20 C           2.4929    0.7024   31.1139 C.3     1  UNL1        0.0264
     21 C           7.8183   -5.3794   30.9665 C.3     1  UNL1        0.0745
     22 C           9.2187   -4.9505   31.2907 C.3     1  UNL1        0.0214
     23 C           7.5343   -6.1073   29.6861 C.3     1  UNL1        0.0369
     24 C           6.9688   -5.3657   28.5113 C.3     1  UNL1        0.0738
     25 N           7.3212   -5.7900   27.1163 N.3     1  UNL1       -0.2726
     26 C           7.5326   -7.2419   26.8048 C.3     1  UNL1        0.0721
     27 C           7.8850   -7.6661   25.4099 C.3     1  UNL1        0.0174
     28 C           8.0259   -6.6384   24.3265 C.3     1  UNL1        0.0031
     29 C           7.8144   -5.1864   24.6379 C.3     1  UNL1        0.0204
     30 C           7.4621   -4.7622   26.0328 C.3     1  UNL1        0.0724
     31 C           7.9553   -4.1587   23.5545 C.3     1  UNL1        0.0277
     32 C           6.8431   -3.9494   22.5700 C.ar    1  UNL1       -0.0220
     33 C           7.1174   -4.0403   21.0980 C.ar    1  UNL1       -0.0020
     34 C           6.0052   -3.8310   20.1136 C.ar    1  UNL1        0.0293
     35 C           4.6188   -3.5308   20.6010 C.ar    1  UNL1        0.1401
     36 F           3.5065   -3.3216   19.6164 F       1  UNL1       -0.2042
     37 C           4.3444   -3.4400   22.0729 C.ar    1  UNL1        0.0293
     38 C           5.4567   -3.6493   23.0574 C.ar    1  UNL1       -0.0020
@<TRIPOS>BOND
     1    19    20    1
     2    20     7    1
     3     7     8   ar
     4     8     9   ar
     5     9     1    1
     6     1     2   am
     7     2     3    2
     8     2     4   am
     9     4    21    1
    10    21    22    1
    11    21    23    1
    12    23    24    1
    13    24    25    1
    14    25    26    1
    15    26    27    1
    16    27    28    1
    17    28    29    1
    18    29    31    1
    19    31    32    1
    20    32    33   ar
    21    33    34   ar
    22    34    35   ar
    23    35    36    1
    24    35    37   ar
    25    37    38   ar
    26    29    30    1
    27     9    10   ar
    28    10    11   ar
    29    11    13    1
    30    13    14   ar
    31    14    15   ar
    32    15    16   ar
    33    16    17   ar
    34    17    18    1
    35    11    12   ar
    36    12     7   ar
    37    30    25    1
    38    17    13   ar
    39    38    32   ar
    40     1     5    1
    41     4     6    1
