@<TRIPOS>MOLECULE
*****
 29 31 0 0 0
SMALL
GASTEIGER

@<TRIPOS>ATOM
      1 C          -6.5602  -17.5573   22.8610 C.ar    1  UNL1        0.1743
      2 N          -7.9840  -17.8148   22.4652 N.ar    1  UNL1       -0.2173
      3 C          -9.0851  -16.9705   23.0350 C.ar    1  UNL1        0.1834
      4 N          -8.7625  -15.8689   24.0005 N.ar    1  UNL1       -0.1885
      5 C          -7.3388  -15.6114   24.3963 C.ar    1  UNL1        0.2596
      6 O          -7.0162  -14.5098   25.3618 O.3     1  UNL1       -0.4898
      7 C          -6.2377  -16.4557   23.8265 C.ar    1  UNL1        0.2098
      8 O          -4.8138  -16.1982   24.2222 O.3     1  UNL1       -0.5007
      9 H          -7.7041  -13.9824   25.7177 H       1  UNL1        0.2938
     10 H          -4.6123  -15.5101   24.8254 H       1  UNL1        0.2924
     11 C         -10.5089  -17.2280   22.6393 C.ar    1  UNL1        0.1179
     12 C         -11.5253  -17.5824   23.6839 C.ar    1  UNL1        0.0337
     13 C         -12.9491  -17.8398   23.2882 C.ar    1  UNL1        0.0608
     14 CL        -13.9655  -18.1943   24.3329 Cl      1  UNL1       -0.0821
     15 C         -13.3565  -17.7428   21.8478 C.ar    1  UNL1        0.0321
     16 C         -12.3401  -17.3883   20.8032 C.ar    1  UNL1        0.0998
     17 N         -10.9163  -17.1309   21.1989 N.ar    1  UNL1       -0.2407
     18 N          -5.4659  -18.7601   20.8347 N.am    1  UNL1       -0.3012
     19 C          -5.4590  -18.4016   22.2912 C.2     1  UNL1        0.2668
     20 O          -4.3509  -18.8872   23.1779 O.2     1  UNL1       -0.2684
     21 H          -6.1931  -18.4414   20.2527 H       1  UNL1        0.1497
     22 C          -4.5901  -21.0673   20.0222 C.3     1  UNL1        0.0213
     23 C          -4.3646  -19.6044   20.2649 C.3     1  UNL1        0.0719
     24 C          -3.0379  -18.9856   19.9379 C.3     1  UNL1        0.0180
     25 C          -1.8935  -19.1131   20.8992 C.3     1  UNL1        0.0016
     26 C          -0.5668  -18.4944   20.5722 C.3     1  UNL1        0.0001
     27 C          -0.3844  -17.7481   19.2839 C.3     1  UNL1        0.0000
     28 C          -1.5288  -17.6206   18.3225 C.3     1  UNL1        0.0001
     29 C          -2.8555  -18.2394   18.6495 C.3     1  UNL1        0.0016
@<TRIPOS>BOND
     1    23    22    1
     2    23    18    1
     3    18    19   am
     4    19    20    2
     5    19     1    1
     6     1     2   ar
     7     2     3   ar
     8     3    11    1
     9    11    12   ar
    10    12    13   ar
    11    13    14    1
    12    13    15   ar
    13    15    16   ar
    14    16    17   ar
    15     3     4   ar
    16     4     5   ar
    17     5     6    1
    18     5     7   ar
    19     7     8    1
    20    23    24    1
    21    24    25    1
    22    25    26    1
    23    26    27    1
    24    27    28    1
    25    28    29    1
    26     7     1   ar
    27    29    24    1
    28    17    11   ar
    29    18    21    1
    30     6     9    1
    31     8    10    1
@<TRIPOS>MOLECULE
*****
 29 31 0 0 0
SMALL
GASTEIGER

@<TRIPOS>ATOM
      1 C         -12.8976   -5.6285   18.2821 C.ar    1  UNL1        0.1743
      2 N         -13.1211   -4.1673   18.0277 N.ar    1  UNL1       -0.2173
      3 C         -12.0191   -3.1836   18.2883 C.ar    1  UNL1        0.1834
      4 N         -10.6937   -3.6611   18.8034 N.ar    1  UNL1       -0.1885
      5 C         -10.4703   -5.1224   19.0578 C.ar    1  UNL1        0.2596
      6 O          -9.1449   -5.5999   19.5729 O.3     1  UNL1       -0.4898
      7 C         -11.5723   -6.1061   18.7972 C.ar    1  UNL1        0.2098
      8 O         -11.3489   -7.5674   19.0516 O.3     1  UNL1       -0.5007
      9 H          -8.4566   -4.9854   19.7357 H       1  UNL1        0.2938
     10 H         -10.5210   -7.8657   19.3734 H       1  UNL1        0.2924
     11 C         -12.2425   -1.7222   18.0339 C.ar    1  UNL1        0.1179
     12 C         -13.4350   -1.0316   18.6262 C.ar    1  UNL1        0.0337
     13 C         -13.6585    0.4297   18.3718 C.ar    1  UNL1        0.0608
     14 CL        -14.8510    1.1204   18.9641 Cl      1  UNL1       -0.0821
     15 C         -12.6893    1.2004   17.5250 C.ar    1  UNL1        0.0321
     16 C         -11.4968    0.5097   16.9327 C.ar    1  UNL1        0.0998
     17 N         -11.2734   -0.9516   17.1872 N.ar    1  UNL1       -0.2407
     18 N         -14.4555   -7.5344   19.1131 N.am    1  UNL1       -0.3012
     19 C         -13.9996   -6.6123   18.0215 C.2     1  UNL1        0.2668
     20 O         -14.6457   -6.6739   16.6691 O.2     1  UNL1       -0.2684
     21 H         -14.0315   -7.4940   20.0007 H       1  UNL1        0.1497
     22 C         -15.2581   -9.8129   18.1568 C.3     1  UNL1        0.0213
     23 C         -15.5575   -8.5182   18.8525 C.3     1  UNL1        0.0719
     24 C         -16.9589   -8.2072   19.2876 C.3     1  UNL1        0.0180
     25 C         -17.4331   -6.7848   19.3292 C.3     1  UNL1        0.0016
     26 C         -18.8345   -6.4738   19.7643 C.3     1  UNL1        0.0001
     27 C         -19.7618   -7.5852   20.1578 C.3     1  UNL1        0.0000
     28 C         -19.2876   -9.0078   20.1162 C.3     1  UNL1        0.0001
     29 C         -17.8862   -9.3188   19.6811 C.3     1  UNL1        0.0016
@<TRIPOS>BOND
     1    23    22    1
     2    23    18    1
     3    18    19   am
     4    19    20    2
     5    19     1    1
     6     1     2   ar
     7     2     3   ar
     8     3    11    1
     9    11    12   ar
    10    12    13   ar
    11    13    14    1
    12    13    15   ar
    13    15    16   ar
    14    16    17   ar
    15     3     4   ar
    16     4     5   ar
    17     5     6    1
    18     5     7   ar
    19     7     8    1
    20    23    24    1
    21    24    25    1
    22    25    26    1
    23    26    27    1
    24    27    28    1
    25    28    29    1
    26     7     1   ar
    27    29    24    1
    28    17    11   ar
    29    18    21    1
    30     6     9    1
    31     8    10    1
@<TRIPOS>MOLECULE
*****
 29 31 0 0 0
SMALL
GASTEIGER

@<TRIPOS>ATOM
      1 C           6.9597   -3.8128   29.3524 C.ar    1  UNL1        0.1743
      2 N           6.5923   -2.5699   30.1074 N.ar    1  UNL1       -0.2173
      3 C           6.3183   -2.6406   31.5804 C.ar    1  UNL1        0.1834
      4 N           6.4117   -3.9543   32.2984 N.ar    1  UNL1       -0.1885
      5 C           6.7791   -5.1972   31.5434 C.ar    1  UNL1        0.2596
      6 O           6.8725   -6.5109   32.2614 O.3     1  UNL1       -0.4898
      7 C           7.0531   -5.1265   30.0704 C.ar    1  UNL1        0.2098
      8 O           7.4205   -6.3694   29.3153 O.3     1  UNL1       -0.5007
      9 H           6.7013   -6.5551   33.1816 H       1  UNL1        0.2938
     10 H           7.4789   -7.1901   29.7638 H       1  UNL1        0.2924
     11 C           5.9508   -1.3977   32.3355 C.ar    1  UNL1        0.1179
     12 C           5.4895   -1.4941   33.7596 C.ar    1  UNL1        0.0337
     13 C           5.1221   -0.2512   34.5147 C.ar    1  UNL1        0.0608
     14 CL          4.6607   -0.3476   35.9387 Cl      1  UNL1       -0.0821
     15 C           5.2160    1.0882   33.8458 C.ar    1  UNL1        0.0321
     16 C           5.6773    1.1846   32.4217 C.ar    1  UNL1        0.0998
     17 N           6.0448   -0.0584   31.6666 N.ar    1  UNL1       -0.2407
     18 N           6.3909   -4.5302   26.9209 N.am    1  UNL1       -0.3012
     19 C           7.2337   -3.7421   27.8793 C.2     1  UNL1        0.2668
     20 O           8.3506   -2.8832   27.3646 O.2     1  UNL1       -0.2684
     21 H           5.6579   -5.0940   27.2588 H       1  UNL1        0.1497
     22 C           6.0582   -3.3627   24.6239 C.3     1  UNL1        0.0213
     23 C           6.6649   -4.4595   25.4478 C.3     1  UNL1        0.0719
     24 C           7.5457   -5.4857   24.7987 C.3     1  UNL1        0.0180
     25 C           7.9152   -6.7350   25.5420 C.3     1  UNL1        0.0016
     26 C           8.7960   -7.7611   24.8929 C.3     1  UNL1        0.0001
     27 C           9.3071   -7.5379   23.5005 C.3     1  UNL1        0.0000
     28 C           8.9376   -6.2886   22.7571 C.3     1  UNL1        0.0001
     29 C           8.0568   -5.2624   23.4062 C.3     1  UNL1        0.0016
@<TRIPOS>BOND
     1    23    22    1
     2    23    18    1
     3    18    19   am
     4    19    20    2
     5    19     1    1
     6     1     2   ar
     7     2     3   ar
     8     3    11    1
     9    11    12   ar
    10    12    13   ar
    11    13    14    1
    12    13    15   ar
    13    15    16   ar
    14    16    17   ar
    15     3     4   ar
    16     4     5   ar
    17     5     6    1
    18     5     7   ar
    19     7     8    1
    20    23    24    1
    21    24    25    1
    22    25    26    1
    23    26    27    1
    24    27    28    1
    25    28    29    1
    26     7     1   ar
    27    29    24    1
    28    17    11   ar
    29    18    21    1
    30     6     9    1
    31     8    10    1
@<TRIPOS>MOLECULE
*****
 29 31 0 0 0
SMALL
GASTEIGER

@<TRIPOS>ATOM
      1 C         -16.1245   -4.0034   18.8735 C.ar    1  UNL1        0.1743
      2 N         -16.6069   -5.3722   18.4947 N.ar    1  UNL1       -0.2173
      3 C         -17.9153   -5.8795   19.0245 C.ar    1  UNL1        0.1834
      4 N         -18.7413   -5.0180   19.9330 N.ar    1  UNL1       -0.1885
      5 C         -18.2589   -3.6491   20.3119 C.ar    1  UNL1        0.2596
      6 O         -19.0848   -2.7876   21.2204 O.3     1  UNL1       -0.4898
      7 C         -16.9505   -3.1419   19.7821 C.ar    1  UNL1        0.2098
      8 O         -16.4680   -1.7730   20.1609 O.3     1  UNL1       -0.5007
      9 H         -19.9022   -3.1045   21.5514 H       1  UNL1        0.2938
     10 H         -16.9839   -1.2348   20.7285 H       1  UNL1        0.2924
     11 C         -18.3978   -7.2484   18.6456 C.ar    1  UNL1        0.1179
     12 C         -17.5074   -8.4390   18.8442 C.ar    1  UNL1        0.0337
     13 C         -17.9898   -9.8079   18.4654 C.ar    1  UNL1        0.0608
     14 CL        -17.0993  -10.9985   18.6640 Cl      1  UNL1       -0.0821
     15 C         -19.3628   -9.9861   17.8881 C.ar    1  UNL1        0.0321
     16 C         -20.2532   -8.7954   17.6895 C.ar    1  UNL1        0.0998
     17 N         -19.7707   -7.4266   18.0683 N.ar    1  UNL1       -0.2407
     18 N         -13.7998   -2.9181   19.2835 N.am    1  UNL1       -0.3012
     19 C         -14.8160   -3.4960   18.3437 C.2     1  UNL1        0.2668
     20 O         -14.5238   -3.5667   16.8742 O.2     1  UNL1       -0.2684
     21 H         -13.9916   -2.8717   20.2480 H       1  UNL1        0.1497
     22 C         -12.2513   -0.9347   18.6365 C.3     1  UNL1        0.0213
     23 C         -12.4914   -2.4107   18.7537 C.3     1  UNL1        0.0719
     24 C         -11.4230   -3.3794   18.3412 C.3     1  UNL1        0.0180
     25 C         -11.2985   -4.7009   19.0398 C.3     1  UNL1        0.0016
     26 C         -10.2301   -5.6696   18.6273 C.3     1  UNL1        0.0001
     27 C          -9.2862   -5.3169   17.5162 C.3     1  UNL1        0.0000
     28 C          -9.4107   -3.9953   16.8175 C.3     1  UNL1        0.0001
     29 C         -10.4791   -3.0266   17.2300 C.3     1  UNL1        0.0016
@<TRIPOS>BOND
     1    23    22    1
     2    23    18    1
     3    18    19   am
     4    19    20    2
     5    19     1    1
     6     1     2   ar
     7     2     3   ar
     8     3    11    1
     9    11    12   ar
    10    12    13   ar
    11    13    14    1
    12    13    15   ar
    13    15    16   ar
    14    16    17   ar
    15     3     4   ar
    16     4     5   ar
    17     5     6    1
    18     5     7   ar
    19     7     8    1
    20    23    24    1
    21    24    25    1
    22    25    26    1
    23    26    27    1
    24    27    28    1
    25    28    29    1
    26     7     1   ar
    27    29    24    1
    28    17    11   ar
    29    18    21    1
    30     6     9    1
    31     8    10    1
@<TRIPOS>MOLECULE
*****
 29 31 0 0 0
SMALL
GASTEIGER

@<TRIPOS>ATOM
      1 C           6.9144   -4.4473   25.3127 C.ar    1  UNL1        0.1743
      2 N           6.7221   -4.1465   26.7696 N.ar    1  UNL1       -0.2173
      3 C           7.1732   -5.1336   27.8050 C.ar    1  UNL1        0.1834
      4 N           7.8165   -6.4215   27.3836 N.ar    1  UNL1       -0.1885
      5 C           8.0088   -6.7222   25.9267 C.ar    1  UNL1        0.2596
      6 O           8.6521   -8.0100   25.5053 O.3     1  UNL1       -0.4898
      7 C           7.5577   -5.7351   24.8913 C.ar    1  UNL1        0.2098
      8 O           7.7500   -6.0358   23.4343 O.3     1  UNL1       -0.5007
      9 H           8.9338   -8.6267   26.1521 H       1  UNL1        0.2938
     10 H           8.1519   -6.8403   23.1710 H       1  UNL1        0.2924
     11 C           6.9809   -4.8329   29.2620 C.ar    1  UNL1        0.1179
     12 C           6.6040   -3.4482   29.6986 C.ar    1  UNL1        0.0337
     13 C           6.4118   -3.1475   31.1555 C.ar    1  UNL1        0.0608
     14 CL          6.0349   -1.7628   31.5921 Cl      1  UNL1       -0.0821
     15 C           6.5963   -4.2314   32.1758 C.ar    1  UNL1        0.0321
     16 C           6.9732   -5.6161   31.7392 C.ar    1  UNL1        0.0998
     17 N           7.1654   -5.9168   30.2822 N.ar    1  UNL1       -0.2407
     18 N           5.0362   -2.9993   24.2517 N.am    1  UNL1       -0.3012
     19 C           6.4634   -3.4601   24.2772 C.2     1  UNL1        0.2668
     20 O           7.4396   -2.9340   23.2672 O.2     1  UNL1       -0.2684
     21 H           4.3955   -3.3446   24.9146 H       1  UNL1        0.1497
     22 C           4.5431   -0.5488   23.5430 C.3     1  UNL1        0.0213
     23 C           4.5852   -2.0121   23.2162 C.3     1  UNL1        0.0719
     24 C           4.1762   -2.4884   21.8539 C.3     1  UNL1        0.0180
     25 C           3.4451   -1.5653   20.9248 C.3     1  UNL1        0.0016
     26 C           3.0361   -2.0416   19.5625 C.3     1  UNL1        0.0001
     27 C           3.3582   -3.4410   19.1293 C.3     1  UNL1        0.0000
     28 C           4.0892   -4.3643   20.0584 C.3     1  UNL1        0.0001
     29 C           4.4982   -3.8880   21.4207 C.3     1  UNL1        0.0016
@<TRIPOS>BOND
     1    23    22    1
     2    23    18    1
     3    18    19   am
     4    19    20    2
     5    19     1    1
     6     1     2   ar
     7     2     3   ar
     8     3    11    1
     9    11    12   ar
    10    12    13   ar
    11    13    14    1
    12    13    15   ar
    13    15    16   ar
    14    16    17   ar
    15     3     4   ar
    16     4     5   ar
    17     5     6    1
    18     5     7   ar
    19     7     8    1
    20    23    24    1
    21    24    25    1
    22    25    26    1
    23    26    27    1
    24    27    28    1
    25    28    29    1
    26     7     1   ar
    27    29    24    1
    28    17    11   ar
    29    18    21    1
    30     6     9    1
    31     8    10    1
@<TRIPOS>MOLECULE
*****
 29 31 0 0 0
SMALL
GASTEIGER

@<TRIPOS>ATOM
      1 C           3.0743   -0.1984   28.0370 C.ar    1  UNL1        0.1743
      2 N           3.6654   -0.4514   29.3922 N.ar    1  UNL1       -0.2173
      3 C           2.8423   -0.2196   30.6245 C.ar    1  UNL1        0.1834
      4 N           1.4281    0.2652   30.5017 N.ar    1  UNL1       -0.1885
      5 C           0.8371    0.5183   29.1465 C.ar    1  UNL1        0.2596
      6 O          -0.5771    1.0031   29.0237 O.3     1  UNL1       -0.4898
      7 C           1.6602    0.2865   27.9141 C.ar    1  UNL1        0.2098
      8 O           1.0691    0.5395   26.5589 O.3     1  UNL1       -0.5007
      9 H          -1.0913    1.1479   29.7935 H       1  UNL1        0.2938
     10 H           0.1857    0.8423   26.4821 H       1  UNL1        0.2924
     11 C           3.4334   -0.4726   31.9798 C.ar    1  UNL1        0.1179
     12 C           3.6178    0.6636   32.9416 C.ar    1  UNL1        0.0337
     13 C           4.2088    0.4106   34.2968 C.ar    1  UNL1        0.0608
     14 CL          4.3932    1.5469   35.2586 Cl      1  UNL1       -0.0821
     15 C           4.6154   -0.9786   34.6903 C.ar    1  UNL1        0.0321
     16 C           4.4310   -2.1148   33.7285 C.ar    1  UNL1        0.0998
     17 N           3.8400   -1.8618   32.3732 N.ar    1  UNL1       -0.2407
     18 N           3.6430   -1.6353   25.9485 N.am    1  UNL1       -0.3012
     19 C           3.8974   -0.4302   26.8045 C.2     1  UNL1        0.2668
     20 O           4.9749    0.5432   26.4282 O.2     1  UNL1       -0.2684
     21 H           2.9359   -2.2742   26.1955 H       1  UNL1        0.1497
     22 C           5.8668   -2.3900   24.8370 C.3     1  UNL1        0.0213
     23 C           4.4661   -1.8671   24.7160 C.3     1  UNL1        0.0719
     24 C           3.8885   -1.5761   23.3627 C.3     1  UNL1        0.0180
     25 C           4.2615   -2.4313   22.1882 C.3     1  UNL1        0.0016
     26 C           3.6839   -2.1402   20.8349 C.3     1  UNL1        0.0001
     27 C           2.7332   -0.9939   20.6559 C.3     1  UNL1        0.0000
     28 C           2.3601   -0.1386   21.8304 C.3     1  UNL1        0.0001
     29 C           2.9377   -0.4297   23.1838 C.3     1  UNL1        0.0016
@<TRIPOS>BOND
     1    23    22    1
     2    23    18    1
     3    18    19   am
     4    19    20    2
     5    19     1    1
     6     1     2   ar
     7     2     3   ar
     8     3    11    1
     9    11    12   ar
    10    12    13   ar
    11    13    14    1
    12    13    15   ar
    13    15    16   ar
    14    16    17   ar
    15     3     4   ar
    16     4     5   ar
    17     5     6    1
    18     5     7   ar
    19     7     8    1
    20    23    24    1
    21    24    25    1
    22    25    26    1
    23    26    27    1
    24    27    28    1
    25    28    29    1
    26     7     1   ar
    27    29    24    1
    28    17    11   ar
    29    18    21    1
    30     6     9    1
    31     8    10    1
@<TRIPOS>MOLECULE
*****
 29 31 0 0 0
SMALL
GASTEIGER

@<TRIPOS>ATOM
      1 C           2.7144    0.0616   27.4628 C.ar    1  UNL1        0.1743
      2 N           3.7060   -0.3432   28.5129 N.ar    1  UNL1       -0.2173
      3 C           3.2556   -0.5544   29.9280 C.ar    1  UNL1        0.1834
      4 N           1.8136   -0.3608   30.2930 N.ar    1  UNL1       -0.1885
      5 C           0.8220    0.0440   29.2428 C.ar    1  UNL1        0.2596
      6 O          -0.6200    0.2375   29.6078 O.3     1  UNL1       -0.4898
      7 C           1.2724    0.2552   27.8278 C.ar    1  UNL1        0.2098
      8 O           0.2807    0.6600   26.7776 O.3     1  UNL1       -0.5007
      9 H          -0.9013    0.1056   30.4918 H       1  UNL1        0.2938
     10 H          -0.6200    0.7809   27.0055 H       1  UNL1        0.2924
     11 C           4.2472   -0.9592   30.9782 C.ar    1  UNL1        0.1179
     12 C           3.9355   -0.7387   32.4288 C.ar    1  UNL1        0.0337
     13 C           4.9270   -1.1435   33.4790 C.ar    1  UNL1        0.0608
     14 CL          4.6153   -0.9229   34.9295 Cl      1  UNL1       -0.0821
     15 C           6.2304   -1.7688   33.0786 C.ar    1  UNL1        0.0321
     16 C           6.5421   -1.9894   31.6280 C.ar    1  UNL1        0.0998
     17 N           5.5505   -1.5846   30.5778 N.ar    1  UNL1       -0.2407
     18 N           2.3284   -0.2350   24.9107 N.am    1  UNL1       -0.3012
     19 C           3.1647    0.2729   26.0476 C.2     1  UNL1        0.2668
     20 O           4.4514    0.9921   25.7695 O.2     1  UNL1       -0.2684
     21 H           1.4840   -0.7070   25.0933 H       1  UNL1        0.1497
     22 C           2.6546    1.3308   22.8632 C.3     1  UNL1        0.0213
     23 C           2.7788   -0.0237   23.4955 C.3     1  UNL1        0.0719
     24 C           3.3533   -1.1670   22.7127 C.3     1  UNL1        0.0180
     25 C           3.1006   -1.2681   21.2377 C.3     1  UNL1        0.0016
     26 C           3.6751   -2.4114   20.4549 C.3     1  UNL1        0.0001
     27 C           4.5024   -3.4536   21.1471 C.3     1  UNL1        0.0000
     28 C           4.7552   -3.3526   22.6223 C.3     1  UNL1        0.0001
     29 C           4.1807   -2.2093   23.4051 C.3     1  UNL1        0.0016
@<TRIPOS>BOND
     1    23    22    1
     2    23    18    1
     3    18    19   am
     4    19    20    2
     5    19     1    1
     6     1     2   ar
     7     2     3   ar
     8     3    11    1
     9    11    12   ar
    10    12    13   ar
    11    13    14    1
    12    13    15   ar
    13    15    16   ar
    14    16    17   ar
    15     3     4   ar
    16     4     5   ar
    17     5     6    1
    18     5     7   ar
    19     7     8    1
    20    23    24    1
    21    24    25    1
    22    25    26    1
    23    26    27    1
    24    27    28    1
    25    28    29    1
    26     7     1   ar
    27    29    24    1
    28    17    11   ar
    29    18    21    1
    30     6     9    1
    31     8    10    1
@<TRIPOS>MOLECULE
*****
 29 31 0 0 0
SMALL
GASTEIGER

@<TRIPOS>ATOM
      1 C         -12.4059   -3.2945   18.3300 C.ar    1  UNL1        0.1743
      2 N         -13.6476   -2.5483   18.7190 N.ar    1  UNL1       -0.2173
      3 C         -13.6641   -1.0489   18.6815 C.ar    1  UNL1        0.1834
      4 N         -12.4390   -0.2957   18.2550 N.ar    1  UNL1       -0.1885
      5 C         -11.1974   -1.0419   17.8660 C.ar    1  UNL1        0.2596
      6 O          -9.9723   -0.2888   17.4395 O.3     1  UNL1       -0.4898
      7 C         -11.1808   -2.5414   17.9035 C.ar    1  UNL1        0.2098
      8 O          -9.9391   -3.2877   17.5144 O.3     1  UNL1       -0.5007
      9 H          -9.9827    0.6479   17.4161 H       1  UNL1        0.2938
     10 H          -9.1738   -2.8172   17.2480 H       1  UNL1        0.2924
     11 C         -14.9058   -0.3026   19.0705 C.ar    1  UNL1        0.1179
     12 C         -16.1265   -1.0553   19.5103 C.ar    1  UNL1        0.0337
     13 C         -17.3681   -0.3091   19.8993 C.ar    1  UNL1        0.0608
     14 CL        -18.5888   -1.0618   20.3390 Cl      1  UNL1       -0.0821
     15 C         -17.3892    1.1900   19.8486 C.ar    1  UNL1        0.0321
     16 C         -16.1685    1.9427   19.4088 C.ar    1  UNL1        0.0998
     17 N         -14.9268    1.1964   19.0198 N.ar    1  UNL1       -0.2407
     18 N         -13.3540   -5.5760   17.5261 N.am    1  UNL1       -0.3012
     19 C         -12.3893   -4.7940   18.3674 C.2     1  UNL1        0.2668
     20 O         -11.4079   -5.5114   19.2462 O.2     1  UNL1       -0.2684
     21 H         -13.9981   -5.1051   16.9494 H       1  UNL1        0.1497
     22 C         -12.1646   -7.8267   17.0067 C.3     1  UNL1        0.0213
     23 C         -13.3374   -7.0755   17.5636 C.3     1  UNL1        0.0719
     24 C         -14.4936   -7.8237   18.1580 C.3     1  UNL1        0.0180
     25 C         -15.3371   -7.1810   19.2189 C.3     1  UNL1        0.0016
     26 C         -16.4933   -7.9292   19.8133 C.3     1  UNL1        0.0001
     27 C         -16.8060   -9.3201   19.3469 C.3     1  UNL1        0.0000
     28 C         -15.9625   -9.9629   18.2860 C.3     1  UNL1        0.0001
     29 C         -14.8063   -9.2147   17.6916 C.3     1  UNL1        0.0016
@<TRIPOS>BOND
     1    23    22    1
     2    23    18    1
     3    18    19   am
     4    19    20    2
     5    19     1    1
     6     1     2   ar
     7     2     3   ar
     8     3    11    1
     9    11    12   ar
    10    12    13   ar
    11    13    14    1
    12    13    15   ar
    13    15    16   ar
    14    16    17   ar
    15     3     4   ar
    16     4     5   ar
    17     5     6    1
    18     5     7   ar
    19     7     8    1
    20    23    24    1
    21    24    25    1
    22    25    26    1
    23    26    27    1
    24    27    28    1
    25    28    29    1
    26     7     1   ar
    27    29    24    1
    28    17    11   ar
    29    18    21    1
    30     6     9    1
    31     8    10    1
@<TRIPOS>MOLECULE
*****
 29 31 0 0 0
SMALL
GASTEIGER

@<TRIPOS>ATOM
      1 C           5.0353   -2.7575   21.8419 C.ar    1  UNL1        0.1743
      2 N           4.0419   -1.6556   22.0625 N.ar    1  UNL1       -0.2173
      3 C           3.0145   -1.3509   21.0129 C.ar    1  UNL1        0.1834
      4 N           2.9806   -2.1482   19.7428 N.ar    1  UNL1       -0.1885
      5 C           3.9741   -3.2501   19.5223 C.ar    1  UNL1        0.2596
      6 O           3.9401   -4.0474   18.2522 O.3     1  UNL1       -0.4898
      7 C           5.0014   -3.5548   20.5718 C.ar    1  UNL1        0.2098
      8 O           5.9949   -4.6568   20.3513 O.3     1  UNL1       -0.5007
      9 H           3.2984   -3.8571   17.5965 H       1  UNL1        0.2938
     10 H           5.9738   -5.1549   19.5579 H       1  UNL1        0.2924
     11 C           2.0210   -0.2488   21.2334 C.ar    1  UNL1        0.1179
     12 C           2.0135    0.5058   22.5298 C.ar    1  UNL1        0.0337
     13 C           1.0200    1.6078   22.7503 C.ar    1  UNL1        0.0608
     14 CL          1.0125    2.3624   24.0466 Cl      1  UNL1       -0.0821
     15 C           0.0341    1.9551   21.6745 C.ar    1  UNL1        0.0321
     16 C           0.0416    1.2005   20.3782 C.ar    1  UNL1        0.0998
     17 N           1.0351    0.0985   20.1577 N.ar    1  UNL1       -0.2407
     18 N           5.6321   -3.5443   24.2451 N.am    1  UNL1       -0.3012
     19 C           6.0628   -3.0623   22.8915 C.2     1  UNL1        0.2668
     20 O           7.5209   -2.8850   22.5875 O.2     1  UNL1       -0.2684
     21 H           4.6751   -3.6607   24.4446 H       1  UNL1        0.1497
     22 C           7.1712   -2.7545   26.1835 C.3     1  UNL1        0.0213
     23 C           6.6595   -3.8491   25.2947 C.3     1  UNL1        0.0719
     24 C           7.1753   -5.2484   25.4554 C.3     1  UNL1        0.0180
     25 C           6.9901   -5.9712   26.7566 C.3     1  UNL1        0.0016
     26 C           7.5059   -7.3705   26.9173 C.3     1  UNL1        0.0001
     27 C           8.2067   -8.0471   25.7768 C.3     1  UNL1        0.0000
     28 C           8.3919   -7.3244   24.4754 C.3     1  UNL1        0.0001
     29 C           7.8762   -5.9250   24.3147 C.3     1  UNL1        0.0016
@<TRIPOS>BOND
     1    23    22    1
     2    23    18    1
     3    18    19   am
     4    19    20    2
     5    19     1    1
     6     1     2   ar
     7     2     3   ar
     8     3    11    1
     9    11    12   ar
    10    12    13   ar
    11    13    14    1
    12    13    15   ar
    13    15    16   ar
    14    16    17   ar
    15     3     4   ar
    16     4     5   ar
    17     5     6    1
    18     5     7   ar
    19     7     8    1
    20    23    24    1
    21    24    25    1
    22    25    26    1
    23    26    27    1
    24    27    28    1
    25    28    29    1
    26     7     1   ar
    27    29    24    1
    28    17    11   ar
    29    18    21    1
    30     6     9    1
    31     8    10    1
