@<TRIPOS>MOLECULE
*****
 27 29 0 0 0
SMALL
GASTEIGER

@<TRIPOS>ATOM
      1 C         -10.1029  -17.8603   21.1145 C.ar    1  UNL1        0.0231
      2 C         -10.9205  -16.9110   21.9393 C.ar    1  UNL1        0.0597
      3 C         -12.2129  -16.3717   21.4016 C.3     1  UNL1        0.0519
      4 N         -10.4459  -16.5011   23.3019 N.ar    1  UNL1       -0.2307
      5 C          -9.1537  -17.0404   23.8397 C.ar    1  UNL1        0.1693
      6 N          -8.3361  -17.9896   23.0149 N.ar    1  UNL1       -0.2116
      7 C          -8.8107  -18.3995   21.6523 C.ar    1  UNL1        0.1309
      8 C          -8.6791  -16.6304   25.2023 C.ar    1  UNL1        0.0661
      9 C          -9.0726  -17.2680   26.5018 C.ar    1  UNL1        0.0110
     10 C          -8.3644  -16.5425   27.6073 C.ar    1  UNL1        0.0186
     11 C          -7.5331  -15.4566   26.9911 C.ar    1  UNL1        0.0871
     12 CL         -6.6606  -14.4866   27.7312 Cl      1  UNL1       -0.0752
     13 S          -7.7276  -15.5109   25.5047 S.2     1  UNL1       -0.0724
     14 C         -10.5532  -19.7159   19.3528 C.3     1  UNL1        0.0052
     15 C         -10.5775  -18.2702   19.7519 C.3     1  UNL1        0.0304
     16 N          -7.9929  -19.3488   20.8275 N.pl3   1  UNL1       -0.2981
     17 H          -8.4384  -19.9817   20.2190 H       1  UNL1        0.1536
     18 C          -6.4965  -19.3337   20.9297 C.ar    1  UNL1        0.0493
     19 C          -5.8332  -19.5514   22.2573 C.ar    1  UNL1        0.0143
     20 C          -4.3368  -19.5363   22.3595 C.ar    1  UNL1       -0.0026
     21 C          -3.5036  -19.3036   21.1341 C.ar    1  UNL1       -0.0165
     22 C          -4.1669  -19.0859   19.8065 C.ar    1  UNL1       -0.0026
     23 C          -5.6634  -19.1010   19.7042 C.ar    1  UNL1        0.0143
     24 C          -2.0072  -19.2885   21.2363 C.3     1  UNL1        0.0679
     25 C          -1.2151  -18.2535   20.4937 C.2     1  UNL1        0.0547
     26 O          -0.0334  -18.6645   19.6663 O.co2   1  UNL1       -0.5488
     27 O          -1.6048  -16.8075   20.5785 O.co2   1  UNL1       -0.5488
@<TRIPOS>UNITY_ATOM_ATTR
26 1
charge -1
@<TRIPOS>BOND
     1    14    15    1
     2    15     1    1
     3     1     2   ar
     4     2     3    1
     5     2     4   ar
     6     4     5   ar
     7     5     8    1
     8     8     9   ar
     9     9    10   ar
    10    10    11   ar
    11    11    12    1
    12    11    13   ar
    13     5     6   ar
    14     6     7   ar
    15     7    16    1
    16    16    18    1
    17    18    19   ar
    18    19    20   ar
    19    20    21   ar
    20    21    24    1
    21    24    25    1
    22    25    26   ar
    23    25    27   ar
    24    21    22   ar
    25    22    23   ar
    26     7     1   ar
    27    23    18   ar
    28    13     8   ar
    29    16    17    1
@<TRIPOS>MOLECULE
*****
 27 29 0 0 0
SMALL
GASTEIGER

@<TRIPOS>ATOM
      1 C          -6.9264  -15.6935   25.5422 C.ar    1  UNL1        0.0231
      2 C          -8.2711  -16.1325   26.0411 C.ar    1  UNL1        0.0597
      3 C          -8.4920  -16.3509   27.5086 C.3     1  UNL1        0.0519
      4 N          -9.3950  -16.3530   25.0725 N.ar    1  UNL1       -0.2307
      5 C          -9.1742  -16.1346   23.6050 C.ar    1  UNL1        0.1693
      6 N          -7.8295  -15.6956   23.1062 N.ar    1  UNL1       -0.2116
      7 C          -6.7056  -15.4750   24.0748 C.ar    1  UNL1        0.1309
      8 C         -10.2981  -16.3552   22.6364 C.ar    1  UNL1        0.0661
      9 C         -11.5308  -17.1721   22.8874 C.ar    1  UNL1        0.0110
     10 C         -12.3812  -17.1194   21.6529 C.ar    1  UNL1        0.0186
     11 C         -11.6741  -16.2698   20.6389 C.ar    1  UNL1        0.0871
     12 CL        -12.1676  -15.9489   19.2592 Cl      1  UNL1       -0.0752
     13 S         -10.3866  -15.7975   21.2467 S.2     1  UNL1       -0.0724
     14 C          -4.7353  -16.5147   26.6713 C.3     1  UNL1        0.0052
     15 C          -5.8025  -15.4729   26.5108 C.3     1  UNL1        0.0304
     16 N          -5.3608  -15.0360   23.5758 N.pl3   1  UNL1       -0.2981
     17 H          -5.0996  -14.0885   23.6335 H       1  UNL1        0.1536
     18 C          -4.4139  -16.0405   22.9891 C.ar    1  UNL1        0.0493
     19 C          -4.7166  -17.5061   23.0923 C.ar    1  UNL1        0.0143
     20 C          -3.7698  -18.5106   22.5056 C.ar    1  UNL1       -0.0026
     21 C          -2.5201  -18.0497   21.8157 C.ar    1  UNL1       -0.0165
     22 C          -2.2174  -16.5842   21.7125 C.ar    1  UNL1       -0.0026
     23 C          -3.1643  -15.5796   22.2992 C.ar    1  UNL1        0.0143
     24 C          -1.5733  -19.0542   21.2290 C.3     1  UNL1        0.0679
     25 C          -0.8991  -18.7734   19.9187 C.2     1  UNL1        0.0547
     26 O          -1.7213  -18.4535   18.7056 O.co2   1  UNL1       -0.5488
     27 O           0.5972  -18.8126   19.8216 O.co2   1  UNL1       -0.5488
@<TRIPOS>UNITY_ATOM_ATTR
26 1
charge -1
@<TRIPOS>BOND
     1    14    15    1
     2    15     1    1
     3     1     2   ar
     4     2     3    1
     5     2     4   ar
     6     4     5   ar
     7     5     8    1
     8     8     9   ar
     9     9    10   ar
    10    10    11   ar
    11    11    12    1
    12    11    13   ar
    13     5     6   ar
    14     6     7   ar
    15     7    16    1
    16    16    18    1
    17    18    19   ar
    18    19    20   ar
    19    20    21   ar
    20    21    24    1
    21    24    25    1
    22    25    26   ar
    23    25    27   ar
    24    21    22   ar
    25    22    23   ar
    26     7     1   ar
    27    23    18   ar
    28    13     8   ar
    29    16    17    1
@<TRIPOS>MOLECULE
*****
 27 29 0 0 0
SMALL
GASTEIGER

@<TRIPOS>ATOM
      1 C           8.7855   -6.4856   26.2189 C.ar    1  UNL1        0.0231
      2 C           8.4796   -7.2886   27.4484 C.ar    1  UNL1        0.0597
      3 C           8.7153   -8.7700   27.4544 C.3     1  UNL1        0.0519
      4 N           7.9381   -6.6103   28.6718 N.ar    1  UNL1       -0.2307
      5 C           7.7025   -5.1290   28.6658 C.ar    1  UNL1        0.1693
      6 N           8.0084   -4.3260   27.4363 N.ar    1  UNL1       -0.2116
      7 C           8.5499   -5.0042   26.2129 C.ar    1  UNL1        0.1309
      8 C           7.1610   -4.4507   29.8892 C.ar    1  UNL1        0.0661
      9 C           7.1092   -5.0334   31.2704 C.ar    1  UNL1        0.0110
     10 C           6.4924   -4.0135   32.1810 C.ar    1  UNL1        0.0186
     11 C           6.1630   -2.8004   31.3626 C.ar    1  UNL1        0.0871
     12 CL          5.5313   -1.5386   31.8713 Cl      1  UNL1       -0.0752
     13 S           6.5762   -3.0706   29.9462 S.2     1  UNL1       -0.0724
     14 C           8.4013   -7.5493   23.8800 C.3     1  UNL1        0.0052
     15 C           9.3270   -7.1638   24.9955 C.3     1  UNL1        0.0304
     16 N           8.8557   -4.2011   24.9835 N.pl3   1  UNL1       -0.2981
     17 H           9.7399   -3.7815   24.8770 H       1  UNL1        0.1536
     18 C           7.8144   -4.0373   23.9164 C.ar    1  UNL1        0.0493
     19 C           6.3873   -3.7728   24.2953 C.ar    1  UNL1        0.0143
     20 C           5.3460   -3.6090   23.2282 C.ar    1  UNL1       -0.0026
     21 C           5.7317   -3.7097   21.7821 C.ar    1  UNL1       -0.0165
     22 C           7.1587   -3.9742   21.4031 C.ar    1  UNL1       -0.0026
     23 C           8.2001   -4.1380   22.4703 C.ar    1  UNL1        0.0143
     24 C           4.6904   -3.5459   20.7150 C.3     1  UNL1        0.0679
     25 C           4.8913   -4.1749   19.3681 C.2     1  UNL1        0.0547
     26 O           5.3457   -3.3375   18.2095 O.co2   1  UNL1       -0.5488
     27 O           4.6378   -5.6413   19.1798 O.co2   1  UNL1       -0.5488
@<TRIPOS>UNITY_ATOM_ATTR
26 1
charge -1
@<TRIPOS>BOND
     1    14    15    1
     2    15     1    1
     3     1     2   ar
     4     2     3    1
     5     2     4   ar
     6     4     5   ar
     7     5     8    1
     8     8     9   ar
     9     9    10   ar
    10    10    11   ar
    11    11    12    1
    12    11    13   ar
    13     5     6   ar
    14     6     7   ar
    15     7    16    1
    16    16    18    1
    17    18    19   ar
    18    19    20   ar
    19    20    21   ar
    20    21    24    1
    21    24    25    1
    22    25    26   ar
    23    25    27   ar
    24    21    22   ar
    25    22    23   ar
    26     7     1   ar
    27    23    18   ar
    28    13     8   ar
    29    16    17    1
@<TRIPOS>MOLECULE
*****
 27 29 0 0 0
SMALL
GASTEIGER

@<TRIPOS>ATOM
      1 C         -16.0262   -7.3625   18.8769 C.ar    1  UNL1        0.0231
      2 C         -15.0645   -8.3895   18.3570 C.ar    1  UNL1        0.0597
      3 C         -15.5379   -9.7841   18.0722 C.3     1  UNL1        0.0519
      4 N         -13.6293   -8.0220   18.1219 N.ar    1  UNL1       -0.2307
      5 C         -13.1559   -6.6274   18.4066 C.ar    1  UNL1        0.1693
      6 N         -14.1176   -5.6004   18.9265 N.ar    1  UNL1       -0.2116
      7 C         -15.5527   -5.9680   19.1617 C.ar    1  UNL1        0.1309
      8 C         -11.7207   -6.2599   18.1715 C.ar    1  UNL1        0.0661
      9 C         -10.5280   -6.9150   18.8026 C.ar    1  UNL1        0.0110
     10 C          -9.2965   -6.2328   18.2851 C.ar    1  UNL1        0.0186
     11 C          -9.7280   -5.1560   17.3341 C.ar    1  UNL1        0.0871
     12 CL         -8.8207   -4.2257   16.5849 Cl      1  UNL1       -0.0752
     13 S         -11.2263   -5.1728   17.2639 S.2     1  UNL1       -0.0724
     14 C         -17.8720   -8.3554   20.4121 C.3     1  UNL1        0.0052
     15 C         -17.4613   -7.7300   19.1121 C.3     1  UNL1        0.0304
     16 N         -16.5145   -4.9409   19.6816 N.pl3   1  UNL1       -0.2981
     17 H         -17.2572   -5.2139   20.2673 H       1  UNL1        0.1536
     18 C         -16.3445   -3.4979   19.3092 C.ar    1  UNL1        0.0493
     19 C         -15.4159   -2.6237   20.0990 C.ar    1  UNL1        0.0143
     20 C         -15.2460   -1.1807   19.7265 C.ar    1  UNL1       -0.0026
     21 C         -16.0046   -0.6117   18.5643 C.ar    1  UNL1       -0.0165
     22 C         -16.9332   -1.4858   17.7745 C.ar    1  UNL1       -0.0026
     23 C         -17.1031   -2.9289   18.1469 C.ar    1  UNL1        0.0143
     24 C         -15.8347    0.8313   18.1918 C.3     1  UNL1        0.0679
     25 C         -14.7022    1.6269   18.7703 C.2     1  UNL1        0.0547
     26 O         -14.9861    2.7682   19.7012 O.co2   1  UNL1       -0.5488
     27 O         -13.2858    1.2811   18.4177 O.co2   1  UNL1       -0.5488
@<TRIPOS>UNITY_ATOM_ATTR
26 1
charge -1
@<TRIPOS>BOND
     1    14    15    1
     2    15     1    1
     3     1     2   ar
     4     2     3    1
     5     2     4   ar
     6     4     5   ar
     7     5     8    1
     8     8     9   ar
     9     9    10   ar
    10    10    11   ar
    11    11    12    1
    12    11    13   ar
    13     5     6   ar
    14     6     7   ar
    15     7    16    1
    16    16    18    1
    17    18    19   ar
    18    19    20   ar
    19    20    21   ar
    20    21    24    1
    21    24    25    1
    22    25    26   ar
    23    25    27   ar
    24    21    22   ar
    25    22    23   ar
    26     7     1   ar
    27    23    18   ar
    28    13     8   ar
    29    16    17    1
@<TRIPOS>MOLECULE
*****
 27 29 0 0 0
SMALL
GASTEIGER

@<TRIPOS>ATOM
      1 C          -1.8625    3.8466   18.3345 C.ar    1  UNL1        0.0231
      2 C          -3.3468    3.8112   18.5478 C.ar    1  UNL1        0.0597
      3 C          -4.2748    3.8444   17.3697 C.3     1  UNL1        0.0519
      4 N          -3.9031    3.7425   19.9391 N.ar    1  UNL1       -0.2307
      5 C          -2.9752    3.7093   21.1171 C.ar    1  UNL1        0.1693
      6 N          -1.4909    3.7447   20.9038 N.ar    1  UNL1       -0.2116
      7 C          -0.9345    3.8134   19.5125 C.ar    1  UNL1        0.1309
      8 C          -3.5316    3.6406   22.5084 C.ar    1  UNL1        0.0661
      9 C          -4.9591    3.3611   22.8743 C.ar    1  UNL1        0.0110
     10 C          -5.0679    3.3871   24.3702 C.ar    1  UNL1        0.0186
     11 C          -3.7076    3.6828   24.9287 C.ar    1  UNL1        0.0871
     12 CL         -3.3581    3.8011   26.3826 Cl      1  UNL1       -0.0752
     13 S          -2.7581    3.8395   23.7781 S.2     1  UNL1       -0.0724
     14 C          -0.9498    5.2427   16.3426 C.3     1  UNL1        0.0052
     15 C          -1.3061    3.9152   16.9432 C.3     1  UNL1        0.0304
     16 N           0.5499    3.8488   19.2992 N.pl3   1  UNL1       -0.2981
     17 H           1.0182    4.7127   19.2402 H       1  UNL1        0.1536
     18 C           1.3206    2.5679   19.1760 C.ar    1  UNL1        0.0493
     19 C           0.6641    1.2620   19.5134 C.ar    1  UNL1        0.0143
     20 C           1.4348   -0.0188   19.3902 C.ar    1  UNL1       -0.0026
     21 C           2.8621    0.0060   18.9295 C.ar    1  UNL1       -0.0165
     22 C           3.5186    1.3118   18.5920 C.ar    1  UNL1       -0.0026
     23 C           2.7479    2.5928   18.7153 C.ar    1  UNL1        0.0143
     24 C           3.6329   -1.2748   18.8062 C.3     1  UNL1        0.0679
     25 C           4.4131   -1.5635   17.5580 C.2     1  UNL1        0.0547
     26 O           3.8848   -1.1239   16.2247 O.co2   1  UNL1       -0.5488
     27 O           5.7217   -2.2918   17.6431 O.co2   1  UNL1       -0.5488
@<TRIPOS>UNITY_ATOM_ATTR
26 1
charge -1
@<TRIPOS>BOND
     1    14    15    1
     2    15     1    1
     3     1     2   ar
     4     2     3    1
     5     2     4   ar
     6     4     5   ar
     7     5     8    1
     8     8     9   ar
     9     9    10   ar
    10    10    11   ar
    11    11    12    1
    12    11    13   ar
    13     5     6   ar
    14     6     7   ar
    15     7    16    1
    16    16    18    1
    17    18    19   ar
    18    19    20   ar
    19    20    21   ar
    20    21    24    1
    21    24    25    1
    22    25    26   ar
    23    25    27   ar
    24    21    22   ar
    25    22    23   ar
    26     7     1   ar
    27    23    18   ar
    28    13     8   ar
    29    16    17    1
@<TRIPOS>MOLECULE
*****
 27 29 0 0 0
SMALL
GASTEIGER

@<TRIPOS>ATOM
      1 C           0.8141    4.1928   19.1073 C.ar    1  UNL1        0.0231
      2 C           0.3522    5.3136   19.9905 C.ar    1  UNL1        0.0597
      3 C           1.0903    6.6195   19.9931 C.3     1  UNL1        0.0519
      4 N          -0.8479    5.1287   20.8713 N.ar    1  UNL1       -0.2307
      5 C          -1.5860    3.8229   20.8688 C.ar    1  UNL1        0.1693
      6 N          -1.1240    2.7020   19.9856 N.ar    1  UNL1       -0.2116
      7 C           0.0760    2.8870   19.1048 C.ar    1  UNL1        0.1309
      8 C          -2.7860    3.6380   21.7496 C.ar    1  UNL1        0.0661
      9 C          -4.1496    3.2022   21.3018 C.ar    1  UNL1        0.0110
     10 C          -5.0395    3.1513   22.5083 C.ar    1  UNL1        0.0186
     11 C          -4.2258    3.5556   23.7017 C.ar    1  UNL1        0.0871
     12 CL         -4.7183    3.6437   25.1158 Cl      1  UNL1       -0.0752
     13 S          -2.8331    3.8565   23.2329 S.2     1  UNL1       -0.0724
     14 C           3.3660    3.9298   18.6972 C.3     1  UNL1        0.0052
     15 C           2.0141    4.3777   18.2265 C.3     1  UNL1        0.0304
     16 N           0.5379    1.7660   18.2215 N.pl3   1  UNL1       -0.2981
     17 H           0.2629    1.7385   17.2766 H       1  UNL1        0.1536
     18 C           1.4187    0.6869   18.7779 C.ar    1  UNL1        0.0493
     19 C           2.6596    0.2773   18.0412 C.ar    1  UNL1        0.0143
     20 C           3.5404   -0.8018   18.5977 C.ar    1  UNL1       -0.0026
     21 C           3.1804   -1.4714   19.8907 C.ar    1  UNL1       -0.0165
     22 C           1.9396   -1.0619   20.6274 C.ar    1  UNL1       -0.0026
     23 C           1.0588    0.0173   20.0710 C.ar    1  UNL1        0.0143
     24 C           4.0612   -2.5505   20.4472 C.3     1  UNL1        0.0679
     25 C           4.1437   -3.8807   19.7587 C.2     1  UNL1        0.0547
     26 O           2.9724   -4.3931   18.9743 O.co2   1  UNL1       -0.5488
     27 O           5.3975   -4.6984   19.8548 O.co2   1  UNL1       -0.5488
@<TRIPOS>UNITY_ATOM_ATTR
26 1
charge -1
@<TRIPOS>BOND
     1    14    15    1
     2    15     1    1
     3     1     2   ar
     4     2     3    1
     5     2     4   ar
     6     4     5   ar
     7     5     8    1
     8     8     9   ar
     9     9    10   ar
    10    10    11   ar
    11    11    12    1
    12    11    13   ar
    13     5     6   ar
    14     6     7   ar
    15     7    16    1
    16    16    18    1
    17    18    19   ar
    18    19    20   ar
    19    20    21   ar
    20    21    24    1
    21    24    25    1
    22    25    26   ar
    23    25    27   ar
    24    21    22   ar
    25    22    23   ar
    26     7     1   ar
    27    23    18   ar
    28    13     8   ar
    29    16    17    1
@<TRIPOS>MOLECULE
*****
 27 29 0 0 0
SMALL
GASTEIGER

@<TRIPOS>ATOM
      1 C           0.1596    1.0952   27.4006 C.ar    1  UNL1        0.0231
      2 C          -0.1690    0.3448   28.6571 C.ar    1  UNL1        0.0597
      3 C          -1.5993    0.1687   29.0733 C.3     1  UNL1        0.0519
      4 N           0.9328   -0.2296   29.4975 N.ar    1  UNL1       -0.2307
      5 C           2.3631   -0.0535   29.0813 C.ar    1  UNL1        0.1693
      6 N           2.6916    0.6969   27.8248 N.ar    1  UNL1       -0.2116
      7 C           1.5899    1.2712   26.9844 C.ar    1  UNL1        0.1309
      8 C           3.4648   -0.6279   29.9217 C.ar    1  UNL1        0.0661
      9 C           4.8297   -1.0197   29.4384 C.ar    1  UNL1        0.0110
     10 C           5.6036   -1.5452   30.6109 C.ar    1  UNL1        0.0186
     11 C           4.7170   -1.4782   31.8190 C.ar    1  UNL1        0.0871
     12 CL          5.0872   -1.9035   33.2090 Cl      1  UNL1       -0.0752
     13 S           3.3952   -0.9113   31.3931 S.2     1  UNL1       -0.0724
     14 C          -1.3312    3.1098   26.7158 C.3     1  UNL1        0.0052
     15 C          -0.9422    1.6695   26.5602 C.3     1  UNL1        0.0304
     16 N           1.9184    2.0216   25.7278 N.pl3   1  UNL1       -0.2981
     17 H           2.1297    2.9823   25.7691 H       1  UNL1        0.1536
     18 C           1.9252    1.3083   24.4083 C.ar    1  UNL1        0.0493
     19 C           2.9163    0.2115   24.1537 C.ar    1  UNL1        0.0143
     20 C           2.9231   -0.5018   22.8342 C.ar    1  UNL1       -0.0026
     21 C           1.9387   -0.1183   21.7693 C.ar    1  UNL1       -0.0165
     22 C           0.9477    0.9784   22.0238 C.ar    1  UNL1       -0.0026
     23 C           0.9409    1.6918   23.3434 C.ar    1  UNL1        0.0143
     24 C           1.9455   -0.8316   20.4498 C.3     1  UNL1        0.0679
     25 C           2.0347   -0.0478   19.1739 C.2     1  UNL1        0.0547
     26 O           3.3679    0.1795   18.5251 O.co2   1  UNL1       -0.5488
     27 O           0.7908    0.5085   18.5469 O.co2   1  UNL1       -0.5488
@<TRIPOS>UNITY_ATOM_ATTR
26 1
charge -1
@<TRIPOS>BOND
     1    14    15    1
     2    15     1    1
     3     1     2   ar
     4     2     3    1
     5     2     4   ar
     6     4     5   ar
     7     5     8    1
     8     8     9   ar
     9     9    10   ar
    10    10    11   ar
    11    11    12    1
    12    11    13   ar
    13     5     6   ar
    14     6     7   ar
    15     7    16    1
    16    16    18    1
    17    18    19   ar
    18    19    20   ar
    19    20    21   ar
    20    21    24    1
    21    24    25    1
    22    25    26   ar
    23    25    27   ar
    24    21    22   ar
    25    22    23   ar
    26     7     1   ar
    27    23    18   ar
    28    13     8   ar
    29    16    17    1
@<TRIPOS>MOLECULE
*****
 27 29 0 0 0
SMALL
GASTEIGER

@<TRIPOS>ATOM
      1 C           1.5686    3.3847   19.8412 C.ar    1  UNL1        0.0231
      2 C           1.6471    4.4429   20.9013 C.ar    1  UNL1        0.0597
      3 C           2.2957    5.7611   20.5986 C.3     1  UNL1        0.0519
      4 N           1.0770    4.1829   22.2642 N.ar    1  UNL1       -0.2307
      5 C           0.4284    2.8647   22.5669 C.ar    1  UNL1        0.1693
      6 N           0.3499    1.8065   21.5068 N.ar    1  UNL1       -0.2116
      7 C           0.9200    2.0665   20.1439 C.ar    1  UNL1        0.1309
      8 C          -0.1417    2.6048   23.9298 C.ar    1  UNL1        0.0661
      9 C          -1.2929    3.3331   24.5576 C.ar    1  UNL1        0.0110
     10 C          -1.5234    2.7493   25.9200 C.ar    1  UNL1        0.0186
     11 C          -0.5145    1.6602   26.1342 C.ar    1  UNL1        0.0871
     12 CL         -0.3827    0.8096   27.3627 Cl      1  UNL1       -0.0752
     13 S           0.3394    1.5708   24.9042 S.2     1  UNL1       -0.0724
     14 C           3.6002    3.4249   18.2223 C.3     1  UNL1        0.0052
     15 C           2.1386    3.6446   18.4783 C.3     1  UNL1        0.0304
     16 N           0.8414    1.0082   19.0837 N.pl3   1  UNL1       -0.2981
     17 H           0.0782    0.9898   18.4621 H       1  UNL1        0.1536
     18 C           1.9257   -0.0221   18.9707 C.ar    1  UNL1        0.0493
     19 C           2.0976   -1.0514   20.0482 C.ar    1  UNL1        0.0143
     20 C           3.1819   -2.0816   19.9351 C.ar    1  UNL1       -0.0026
     21 C           4.0944   -2.0827   18.7446 C.ar    1  UNL1       -0.0165
     22 C           3.9225   -1.0534   17.6671 C.ar    1  UNL1       -0.0026
     23 C           2.8382   -0.0231   17.7801 C.ar    1  UNL1        0.0143
     24 C           5.1786   -3.1129   18.6315 C.3     1  UNL1        0.0679
     25 C           5.1928   -4.2918   19.5589 C.2     1  UNL1        0.0547
     26 O           6.0586   -4.2723   20.7836 O.co2   1  UNL1       -0.5488
     27 O           4.3410   -5.4902   19.2616 O.co2   1  UNL1       -0.5488
@<TRIPOS>UNITY_ATOM_ATTR
26 1
charge -1
@<TRIPOS>BOND
     1    14    15    1
     2    15     1    1
     3     1     2   ar
     4     2     3    1
     5     2     4   ar
     6     4     5   ar
     7     5     8    1
     8     8     9   ar
     9     9    10   ar
    10    10    11   ar
    11    11    12    1
    12    11    13   ar
    13     5     6   ar
    14     6     7   ar
    15     7    16    1
    16    16    18    1
    17    18    19   ar
    18    19    20   ar
    19    20    21   ar
    20    21    24    1
    21    24    25    1
    22    25    26   ar
    23    25    27   ar
    24    21    22   ar
    25    22    23   ar
    26     7     1   ar
    27    23    18   ar
    28    13     8   ar
    29    16    17    1
@<TRIPOS>MOLECULE
*****
 27 29 0 0 0
SMALL
GASTEIGER

@<TRIPOS>ATOM
      1 C          -4.1581    3.9100   19.2993 C.ar    1  UNL1        0.0231
      2 C          -3.1970    4.3375   18.2300 C.ar    1  UNL1        0.0597
      3 C          -3.6907    5.1105   17.0430 C.3     1  UNL1        0.0519
      4 N          -1.7420    3.9920   18.3476 N.ar    1  UNL1       -0.2307
      5 C          -1.2482    3.2191   19.5344 C.ar    1  UNL1        0.1693
      6 N          -2.2094    2.7916   20.6037 N.ar    1  UNL1       -0.2116
      7 C          -3.6643    3.1371   20.4861 C.ar    1  UNL1        0.1309
      8 C           0.2067    2.8737   19.6520 C.ar    1  UNL1        0.0661
      9 C           1.0691    3.0886   20.8603 C.ar    1  UNL1        0.0110
     10 C           2.4501    2.6004   20.5370 C.ar    1  UNL1        0.0186
     11 C           2.4412    2.0837   19.1289 C.ar    1  UNL1        0.0871
     12 CL          3.6131    1.5005   18.3963 Cl      1  UNL1       -0.0752
     13 S           1.0547    2.2526   18.5819 S.2     1  UNL1       -0.0724
     14 C          -6.5953    3.2187   18.7231 C.3     1  UNL1        0.0052
     15 C          -5.6130    4.2554   19.1817 C.3     1  UNL1        0.0304
     16 N          -4.6255    2.7095   21.5555 N.pl3   1  UNL1       -0.2981
     17 H          -4.9644    1.7853   21.5719 H       1  UNL1        0.1536
     18 C          -5.0702    3.6901   22.5998 C.ar    1  UNL1        0.0493
     19 C          -6.5328    3.9436   22.8162 C.ar    1  UNL1        0.0143
     20 C          -6.9775    4.9241   23.8605 C.ar    1  UNL1       -0.0026
     21 C          -5.9598    5.6512   24.6885 C.ar    1  UNL1       -0.0165
     22 C          -4.4973    5.3977   24.4722 C.ar    1  UNL1       -0.0026
     23 C          -4.0525    4.4171   23.4278 C.ar    1  UNL1        0.0143
     24 C          -6.4046    6.6317   25.7328 C.3     1  UNL1        0.0679
     25 C          -6.7258    6.1570   27.1191 C.2     1  UNL1        0.0547
     26 O          -5.6548    5.5360   27.9661 O.co2   1  UNL1       -0.5488
     27 O          -8.1178    6.3034   27.6582 O.co2   1  UNL1       -0.5488
@<TRIPOS>UNITY_ATOM_ATTR
26 1
charge -1
@<TRIPOS>BOND
     1    14    15    1
     2    15     1    1
     3     1     2   ar
     4     2     3    1
     5     2     4   ar
     6     4     5   ar
     7     5     8    1
     8     8     9   ar
     9     9    10   ar
    10    10    11   ar
    11    11    12    1
    12    11    13   ar
    13     5     6   ar
    14     6     7   ar
    15     7    16    1
    16    16    18    1
    17    18    19   ar
    18    19    20   ar
    19    20    21   ar
    20    21    24    1
    21    24    25    1
    22    25    26   ar
    23    25    27   ar
    24    21    22   ar
    25    22    23   ar
    26     7     1   ar
    27    23    18   ar
    28    13     8   ar
    29    16    17    1
