@<TRIPOS>MOLECULE
*****
 28 31 0 0 0
SMALL
GASTEIGER

@<TRIPOS>ATOM
      1 C           7.1310   -4.9508   26.7801 C.2     1  UNL1        0.0919
      2 C           8.0228   -5.9090   26.0476 C.2     1  UNL1        0.0183
      3 C           8.0694   -5.8937   24.5484 C.2     1  UNL1        0.0511
      4 C           7.2242   -4.9202   23.7817 C.2     1  UNL1        0.2322
      5 N           7.0613   -4.6734   22.3112 N.2     1  UNL1       -0.0308
      6 C           6.0687   -3.5626   22.1348 C.2     1  UNL1        0.3767
      7 N           5.6182   -3.1230   23.4963 N.2     1  UNL1       -0.0346
      8 C           6.3324   -3.9621   24.5142 C.2     1  UNL1        0.2191
      9 C           6.2858   -3.9774   26.0134 C.3     1  UNL1        0.1226
     10 C           5.6076   -2.9918   20.8265 C.ar    1  UNL1        0.1061
     11 C           6.2914   -3.3895   19.5520 C.ar    1  UNL1        0.0141
     12 C           5.8304   -2.8187   18.2438 C.ar    1  UNL1        0.0614
     13 C           4.6855   -1.8501   18.2100 C.ar    1  UNL1        0.2648
     14 O           4.2244   -1.2793   16.9017 O.2     1  UNL1       -0.2666
     15 N           4.0017   -1.4524   19.4844 N.ar    1  UNL1       -0.2729
     16 C           4.4627   -2.0232   20.7927 C.ar    1  UNL1        0.0906
     17 C           2.8568   -0.4838   19.4506 C.ar    1  UNL1        0.0669
     18 C           2.9819    0.7988   18.6830 C.ar    1  UNL1        0.0176
     19 C           1.8370    1.7673   18.6492 C.ar    1  UNL1        0.0015
     20 C           0.5670    1.4532   19.3829 C.ar    1  UNL1        0.0001
     21 C           0.4418    0.1706   20.1504 C.ar    1  UNL1        0.0015
     22 C           1.5867   -0.7979   20.1843 C.ar    1  UNL1        0.0176
     23 S           7.0844   -4.9661   28.2793 S.O2    1  UNL1        0.0054
     24 O           6.1712   -3.7763   28.2630 O.2     1  UNL1       -0.1689
     25 O           7.9977   -6.1560   28.2955 O.2     1  UNL1       -0.1689
     26 C           7.0378   -4.9814   29.7785 C.3     1  UNL1        0.1556
     27 C           6.6059   -3.7554   32.0280 C.3     1  UNL1        0.0019
     28 C           6.6058   -3.7560   30.5280 C.3     1  UNL1        0.0257
@<TRIPOS>BOND
     1    27    28    1
     2    28    26    1
     3    26    23    1
     4    23    24    2
     5    23    25    2
     6    23     1    1
     7     1     2    2
     8     2     3    1
     9     3     4    2
    10     4     5    1
    11     5     6    2
    12     6    10    1
    13    10    11   ar
    14    11    12   ar
    15    12    13   ar
    16    13    14    2
    17    13    15   ar
    18    15    17    1
    19    17    18   ar
    20    18    19   ar
    21    19    20   ar
    22    20    21   ar
    23    21    22   ar
    24    15    16   ar
    25     6     7    1
    26     7     8    2
    27     8     9    1
    28     9     1    1
    29     8     4    1
    30    16    10   ar
    31    22    17   ar
@<TRIPOS>MOLECULE
*****
 28 31 0 0 0
SMALL
GASTEIGER

@<TRIPOS>ATOM
      1 C           4.9848   -2.1067   20.4730 C.2     1  UNL1        0.0919
      2 C           6.1107   -2.6372   19.6360 C.2     1  UNL1        0.0183
      3 C           7.1013   -3.5938   20.2307 C.2     1  UNL1        0.0511
      4 C           6.9660   -4.0198   21.6625 C.2     1  UNL1        0.2322
      5 N           7.7835   -4.9429   22.5166 N.2     1  UNL1       -0.0308
      6 C           7.1629   -4.9829   23.8816 C.2     1  UNL1        0.3767
      7 N           5.9617   -4.0845   23.8711 N.2     1  UNL1       -0.0346
      8 C           5.8401   -3.4893   22.4996 C.2     1  UNL1        0.2191
      9 C           4.8494   -2.5327   21.9048 C.3     1  UNL1        0.1226
     10 C           7.6567   -5.7812   25.0517 C.ar    1  UNL1        0.1061
     11 C           8.1575   -7.1802   24.8473 C.ar    1  UNL1        0.0141
     12 C           8.6513   -7.9785   26.0172 C.ar    1  UNL1        0.0614
     13 C           8.6443   -7.3777   27.3916 C.ar    1  UNL1        0.2648
     14 O           9.1381   -8.1760   28.5617 O.2     1  UNL1       -0.2666
     15 N           8.1435   -5.9786   27.5960 N.ar    1  UNL1       -0.2729
     16 C           7.6497   -5.1803   26.4260 C.ar    1  UNL1        0.0906
     17 C           8.1366   -5.3778   28.9704 C.ar    1  UNL1        0.0669
     18 C           9.2831   -4.5218   29.4206 C.ar    1  UNL1        0.0176
     19 C           9.2761   -3.9210   30.7950 C.ar    1  UNL1        0.0015
     20 C           8.1225   -4.1763   31.7192 C.ar    1  UNL1        0.0001
     21 C           6.9760   -5.0323   31.2691 C.ar    1  UNL1        0.0015
     22 C           6.9830   -5.6331   29.8947 C.ar    1  UNL1        0.0176
     23 S           3.9942   -1.1502   19.8783 S.O2    1  UNL1        0.0054
     24 O           5.0084   -0.0481   19.9614 O.2     1  UNL1       -0.1689
     25 O           2.9799   -2.2522   19.7952 O.2     1  UNL1       -0.1689
     26 C           3.0035   -0.1936   19.2836 C.3     1  UNL1        0.1556
     27 C           3.7298   -0.7897   16.8614 C.3     1  UNL1        0.0019
     28 C           3.0806    0.1568   17.8271 C.3     1  UNL1        0.0257
@<TRIPOS>BOND
     1    27    28    1
     2    28    26    1
     3    26    23    1
     4    23    24    2
     5    23    25    2
     6    23     1    1
     7     1     2    2
     8     2     3    1
     9     3     4    2
    10     4     5    1
    11     5     6    2
    12     6    10    1
    13    10    11   ar
    14    11    12   ar
    15    12    13   ar
    16    13    14    2
    17    13    15   ar
    18    15    17    1
    19    17    18   ar
    20    18    19   ar
    21    19    20   ar
    22    20    21   ar
    23    21    22   ar
    24    15    16   ar
    25     6     7    1
    26     7     8    2
    27     8     9    1
    28     9     1    1
    29     8     4    1
    30    16    10   ar
    31    22    17   ar
@<TRIPOS>MOLECULE
*****
 28 31 0 0 0
SMALL
GASTEIGER

@<TRIPOS>ATOM
      1 C           2.8146   -0.3970   19.1095 C.2     1  UNL1        0.0919
      2 C           3.2467    0.8493   18.3954 C.2     1  UNL1        0.0183
      3 C           2.4126    2.0928   18.4856 C.2     1  UNL1        0.0511
      4 C           1.1465    2.0899   19.2898 C.2     1  UNL1        0.2322
      5 N           0.1268    3.1562   19.5603 N.2     1  UNL1       -0.0308
      6 C          -0.9355    2.5689   20.4416 C.2     1  UNL1        0.3767
      7 N          -0.5723    1.1396   20.7158 N.2     1  UNL1       -0.0346
      8 C           0.7144    0.8436   20.0039 C.2     1  UNL1        0.2191
      9 C           1.5485   -0.3999   19.9137 C.3     1  UNL1        0.1226
     10 C          -2.1481    3.2852   20.9580 C.ar    1  UNL1        0.1061
     11 C          -3.2726    3.6247   20.0251 C.ar    1  UNL1        0.0141
     12 C          -4.4851    4.3410   20.5415 C.ar    1  UNL1        0.0614
     13 C          -4.5732    4.7177   21.9907 C.ar    1  UNL1        0.2648
     14 O          -5.7858    5.4340   22.5071 O.2     1  UNL1       -0.2666
     15 N          -3.4487    4.3781   22.9236 N.ar    1  UNL1       -0.2729
     16 C          -2.2362    3.6619   22.4072 C.ar    1  UNL1        0.0906
     17 C          -3.5368    4.7549   24.3729 C.ar    1  UNL1        0.0669
     18 C          -2.8847    6.0142   24.8614 C.ar    1  UNL1        0.0176
     19 C          -2.9728    6.3909   26.3107 C.ar    1  UNL1        0.0015
     20 C          -3.7131    5.5082   27.2713 C.ar    1  UNL1        0.0001
     21 C          -4.3653    4.2489   26.7828 C.ar    1  UNL1        0.0015
     22 C          -4.2772    3.8722   25.3335 C.ar    1  UNL1        0.0176
     23 S           3.6487   -1.6405   19.0193 S.O2    1  UNL1        0.0054
     24 O           3.2812   -1.9894   20.4311 O.2     1  UNL1       -0.1689
     25 O           4.0162   -1.2916   17.6075 O.2     1  UNL1       -0.1689
     26 C           4.4828   -2.8839   18.9291 C.3     1  UNL1        0.1556
     27 C           4.6451   -5.4721   18.7713 C.3     1  UNL1        0.0019
     28 C           3.8272   -4.2321   18.9795 C.3     1  UNL1        0.0257
@<TRIPOS>BOND
     1    27    28    1
     2    28    26    1
     3    26    23    1
     4    23    24    2
     5    23    25    2
     6    23     1    1
     7     1     2    2
     8     2     3    1
     9     3     4    2
    10     4     5    1
    11     5     6    2
    12     6    10    1
    13    10    11   ar
    14    11    12   ar
    15    12    13   ar
    16    13    14    2
    17    13    15   ar
    18    15    17    1
    19    17    18   ar
    20    18    19   ar
    21    19    20   ar
    22    20    21   ar
    23    21    22   ar
    24    15    16   ar
    25     6     7    1
    26     7     8    2
    27     8     9    1
    28     9     1    1
    29     8     4    1
    30    16    10   ar
    31    22    17   ar
@<TRIPOS>MOLECULE
*****
 28 31 0 0 0
SMALL
GASTEIGER

@<TRIPOS>ATOM
      1 C           6.9185   -4.3929   26.5170 C.2     1  UNL1        0.0919
      2 C           6.4482   -3.0478   26.9855 C.2     1  UNL1        0.0183
      3 C           5.8964   -2.0610   25.9998 C.2     1  UNL1        0.0511
      4 C           5.8148   -2.4193   24.5455 C.2     1  UNL1        0.2322
      5 N           5.3217   -1.6586   23.3505 N.2     1  UNL1       -0.0308
      6 C           5.4872   -2.5335   22.1434 C.2     1  UNL1        0.3767
      7 N           6.0827   -3.8349   22.5923 N.2     1  UNL1       -0.0346
      8 C           6.2851   -3.7643   24.0770 C.2     1  UNL1        0.2191
      9 C           6.8370   -4.7511   25.0627 C.3     1  UNL1        0.1226
     10 C           5.1215   -2.1706   20.7346 C.ar    1  UNL1        0.1061
     11 C           5.5897   -3.0253   19.5943 C.ar    1  UNL1        0.0141
     12 C           5.2240   -2.6625   18.1856 C.ar    1  UNL1        0.0614
     13 C           4.3902   -1.4449   17.9171 C.ar    1  UNL1        0.2648
     14 O           4.0245   -1.0820   16.5083 O.2     1  UNL1       -0.2666
     15 N           3.9220   -0.5901   19.0574 N.ar    1  UNL1       -0.2729
     16 C           4.2877   -0.9530   20.4661 C.ar    1  UNL1        0.0906
     17 C           3.0881    0.6275   18.7888 C.ar    1  UNL1        0.0669
     18 C           3.7445    1.9678   18.6381 C.ar    1  UNL1        0.0176
     19 C           2.9106    3.1853   18.3696 C.ar    1  UNL1        0.0015
     20 C           1.4203    3.0626   18.2518 C.ar    1  UNL1        0.0001
     21 C           0.7639    1.7223   18.4026 C.ar    1  UNL1        0.0015
     22 C           1.5978    0.5048   18.6711 C.ar    1  UNL1        0.0176
     23 S           7.4704   -5.3797   27.5028 S.O2    1  UNL1        0.0054
     24 O           8.8415   -5.1906   26.9245 O.2     1  UNL1       -0.1689
     25 O           6.0993   -5.5688   28.0810 O.2     1  UNL1       -0.1689
     26 C           8.0222   -6.3665   28.4885 C.3     1  UNL1        0.1556
     27 C           7.8636   -8.4985   27.0123 C.3     1  UNL1        0.0019
     28 C           8.6105   -7.6593   28.0063 C.3     1  UNL1        0.0257
@<TRIPOS>BOND
     1    27    28    1
     2    28    26    1
     3    26    23    1
     4    23    24    2
     5    23    25    2
     6    23     1    1
     7     1     2    2
     8     2     3    1
     9     3     4    2
    10     4     5    1
    11     5     6    2
    12     6    10    1
    13    10    11   ar
    14    11    12   ar
    15    12    13   ar
    16    13    14    2
    17    13    15   ar
    18    15    17    1
    19    17    18   ar
    20    18    19   ar
    21    19    20   ar
    22    20    21   ar
    23    21    22   ar
    24    15    16   ar
    25     6     7    1
    26     7     8    2
    27     8     9    1
    28     9     1    1
    29     8     4    1
    30    16    10   ar
    31    22    17   ar
@<TRIPOS>MOLECULE
*****
 28 31 0 0 0
SMALL
GASTEIGER

@<TRIPOS>ATOM
      1 C           3.3605   -0.9047   19.3581 C.2     1  UNL1        0.0919
      2 C           3.5315    0.1327   18.2883 C.2     1  UNL1        0.0183
      3 C           2.6276    1.3292   18.2525 C.2     1  UNL1        0.0511
      4 C           1.5527    1.4883   19.2865 C.2     1  UNL1        0.2322
      5 N           0.5190    2.5533   19.5041 N.2     1  UNL1       -0.0308
      6 C          -0.2909    2.1740   20.7084 C.2     1  UNL1        0.3767
      7 N           0.2423    0.8747   21.2351 N.2     1  UNL1       -0.0346
      8 C           1.3817    0.4509   20.3563 C.2     1  UNL1        0.2191
      9 C           2.2856   -0.7456   20.3921 C.3     1  UNL1        0.1226
     10 C          -1.4334    2.9568   21.2847 C.ar    1  UNL1        0.1061
     11 C          -1.4022    3.3802   22.7234 C.ar    1  UNL1        0.0141
     12 C          -2.5446    4.1629   23.2998 C.ar    1  UNL1        0.0614
     13 C          -3.7182    4.5222   22.4375 C.ar    1  UNL1        0.2648
     14 O          -4.8607    5.3049   23.0138 O.2     1  UNL1       -0.2666
     15 N          -3.7494    4.0987   20.9988 N.ar    1  UNL1       -0.2729
     16 C          -2.6069    3.3160   20.4225 C.ar    1  UNL1        0.0906
     17 C          -4.9230    4.4580   20.1365 C.ar    1  UNL1        0.0669
     18 C          -5.7706    3.3765   19.5349 C.ar    1  UNL1        0.0176
     19 C          -6.9442    3.7358   18.6726 C.ar    1  UNL1        0.0015
     20 C          -7.2702    5.1766   18.4120 C.ar    1  UNL1        0.0001
     21 C          -6.4227    6.2581   19.0137 C.ar    1  UNL1        0.0015
     22 C          -5.2491    5.8988   19.8760 C.ar    1  UNL1        0.0176
     23 S           4.2644   -2.1013   19.3938 S.O2    1  UNL1        0.0054
     24 O           4.3929   -2.0488   17.9003 O.2     1  UNL1       -0.1689
     25 O           4.1359   -2.1537   20.8874 O.2     1  UNL1       -0.1689
     26 C           5.1683   -3.2978   19.4296 C.3     1  UNL1        0.1556
     27 C           3.3093   -5.1127   19.4484 C.3     1  UNL1        0.0019
     28 C           4.6565   -4.6377   18.9908 C.3     1  UNL1        0.0257
@<TRIPOS>BOND
     1    27    28    1
     2    28    26    1
     3    26    23    1
     4    23    24    2
     5    23    25    2
     6    23     1    1
     7     1     2    2
     8     2     3    1
     9     3     4    2
    10     4     5    1
    11     5     6    2
    12     6    10    1
    13    10    11   ar
    14    11    12   ar
    15    12    13   ar
    16    13    14    2
    17    13    15   ar
    18    15    17    1
    19    17    18   ar
    20    18    19   ar
    21    19    20   ar
    22    20    21   ar
    23    21    22   ar
    24    15    16   ar
    25     6     7    1
    26     7     8    2
    27     8     9    1
    28     9     1    1
    29     8     4    1
    30    16    10   ar
    31    22    17   ar
@<TRIPOS>MOLECULE
*****
 28 31 0 0 0
SMALL
GASTEIGER

@<TRIPOS>ATOM
      1 C           2.9826   -0.1213   18.9466 C.2     1  UNL1        0.0919
      2 C           2.2736   -0.9246   19.9963 C.2     1  UNL1        0.0183
      3 C           0.9891   -0.4216   20.5854 C.2     1  UNL1        0.0511
      4 C           0.4136    0.8848   20.1248 C.2     1  UNL1        0.2322
      5 N          -0.8268    1.6301   20.5198 N.2     1  UNL1       -0.0308
      6 C          -0.8844    2.8941   19.7141 C.2     1  UNL1        0.3767
      7 N           0.3204    2.9300   18.8213 N.2     1  UNL1       -0.0346
      8 C           1.1226    1.6881   19.0752 C.2     1  UNL1        0.2191
      9 C           2.4071    1.1851   18.4860 C.3     1  UNL1        0.1226
     10 C          -1.9583    3.9388   19.7883 C.ar    1  UNL1        0.1061
     11 C          -2.0380    5.0082   18.7396 C.ar    1  UNL1        0.0141
     12 C          -3.1118    6.0529   18.8138 C.ar    1  UNL1        0.0614
     13 C          -4.1060    6.0281   19.9367 C.ar    1  UNL1        0.2648
     14 O          -5.1799    7.0727   20.0109 O.2     1  UNL1       -0.2666
     15 N          -4.0263    4.9586   20.9854 N.ar    1  UNL1       -0.2729
     16 C          -2.9525    3.9139   20.9113 C.ar    1  UNL1        0.0906
     17 C          -5.0205    4.9338   22.1084 C.ar    1  UNL1        0.0669
     18 C          -4.6516    5.4958   23.4493 C.ar    1  UNL1        0.0176
     19 C          -5.6458    5.4710   24.5722 C.ar    1  UNL1        0.0015
     20 C          -7.0089    4.8842   24.3541 C.ar    1  UNL1        0.0001
     21 C          -7.3779    4.3222   23.0133 C.ar    1  UNL1        0.0015
     22 C          -6.3836    4.3470   21.8904 C.ar    1  UNL1        0.0176
     23 S           4.2671   -0.6243   18.3575 S.O2    1  UNL1        0.0054
     24 O           4.9442   -0.4492   19.6845 O.2     1  UNL1       -0.1689
     25 O           3.5899   -0.7994   17.0306 O.2     1  UNL1       -0.1689
     26 C           5.5515   -1.1273   17.7684 C.3     1  UNL1        0.1556
     27 C           5.1124   -3.5889   18.4738 C.3     1  UNL1        0.0019
     28 C           6.0711   -2.4821   18.1485 C.3     1  UNL1        0.0257
@<TRIPOS>BOND
     1    27    28    1
     2    28    26    1
     3    26    23    1
     4    23    24    2
     5    23    25    2
     6    23     1    1
     7     1     2    2
     8     2     3    1
     9     3     4    2
    10     4     5    1
    11     5     6    2
    12     6    10    1
    13    10    11   ar
    14    11    12   ar
    15    12    13   ar
    16    13    14    2
    17    13    15   ar
    18    15    17    1
    19    17    18   ar
    20    18    19   ar
    21    19    20   ar
    22    20    21   ar
    23    21    22   ar
    24    15    16   ar
    25     6     7    1
    26     7     8    2
    27     8     9    1
    28     9     1    1
    29     8     4    1
    30    16    10   ar
    31    22    17   ar
@<TRIPOS>MOLECULE
*****
 28 31 0 0 0
SMALL
GASTEIGER

@<TRIPOS>ATOM
      1 C         -15.0825   -7.7977   18.7467 C.2     1  UNL1        0.0919
      2 C         -13.7331   -8.1903   18.2223 C.2     1  UNL1        0.0183
      3 C         -12.7531   -7.1332   17.8074 C.2     1  UNL1        0.0511
      4 C         -13.1224   -5.6836   17.9168 C.2     1  UNL1        0.2322
      5 N         -12.3701   -4.4285   17.5871 N.2     1  UNL1       -0.0308
      6 C         -13.2545   -3.2601   17.9077 C.2     1  UNL1        0.3767
      7 N         -14.5534   -3.7931   18.4356 N.2     1  UNL1       -0.0346
      8 C         -14.4717   -5.2910   18.4413 C.2     1  UNL1        0.2191
      9 C         -15.4518   -6.3480   18.8562 C.3     1  UNL1        0.1226
     10 C         -12.9019   -1.8128   17.7313 C.ar    1  UNL1        0.1061
     11 C         -11.4954   -1.4200   17.3886 C.ar    1  UNL1        0.0141
     12 C         -11.1428    0.0273   17.2122 C.ar    1  UNL1        0.0614
     13 C         -12.1966    1.0816   17.3785 C.ar    1  UNL1        0.2648
     14 O         -11.8440    2.5289   17.2021 O.2     1  UNL1       -0.2666
     15 N         -13.6031    0.6888   17.7212 N.ar    1  UNL1       -0.2729
     16 C         -13.9557   -0.7585   17.8976 C.ar    1  UNL1        0.0906
     17 C         -14.6569    1.7432   17.8876 C.ar    1  UNL1        0.0669
     18 C         -15.1165    2.1342   19.2608 C.ar    1  UNL1        0.0176
     19 C         -16.1703    3.1886   19.4271 C.ar    1  UNL1        0.0015
     20 C         -16.7646    3.8520   18.2201 C.ar    1  UNL1        0.0001
     21 C         -16.3050    3.4610   16.8469 C.ar    1  UNL1        0.0015
     22 C         -15.2512    2.4066   16.6806 C.ar    1  UNL1        0.0176
     23 S         -16.0625   -8.8547   19.1617 S.O2    1  UNL1        0.0054
     24 O         -16.9678   -7.7966   19.7191 O.2     1  UNL1       -0.1689
     25 O         -15.1572   -9.9129   18.6043 O.2     1  UNL1       -0.1689
     26 C         -17.0425   -9.9118   19.5766 C.3     1  UNL1        0.1556
     27 C         -18.5442   -9.9977   17.4583 C.3     1  UNL1        0.0019
     28 C         -17.7763  -10.7043   18.5358 C.3     1  UNL1        0.0257
@<TRIPOS>BOND
     1    27    28    1
     2    28    26    1
     3    26    23    1
     4    23    24    2
     5    23    25    2
     6    23     1    1
     7     1     2    2
     8     2     3    1
     9     3     4    2
    10     4     5    1
    11     5     6    2
    12     6    10    1
    13    10    11   ar
    14    11    12   ar
    15    12    13   ar
    16    13    14    2
    17    13    15   ar
    18    15    17    1
    19    17    18   ar
    20    18    19   ar
    21    19    20   ar
    22    20    21   ar
    23    21    22   ar
    24    15    16   ar
    25     6     7    1
    26     7     8    2
    27     8     9    1
    28     9     1    1
    29     8     4    1
    30    16    10   ar
    31    22    17   ar
@<TRIPOS>MOLECULE
*****
 28 31 0 0 0
SMALL
GASTEIGER

@<TRIPOS>ATOM
      1 C           4.5767   -2.7405   22.2137 C.2     1  UNL1        0.0919
      2 C           4.4505   -3.3711   20.8586 C.2     1  UNL1        0.0183
      3 C           3.5760   -2.7399   19.8161 C.2     1  UNL1        0.0511
      4 C           2.8276   -1.4781   20.1287 C.2     1  UNL1        0.2322
      5 N           1.8976   -0.6335   19.3092 N.2     1  UNL1       -0.0308
      6 C           1.4489    0.5192   20.1579 C.2     1  UNL1        0.3767
      7 N           2.1017    0.3869   21.5019 N.2     1  UNL1       -0.0346
      8 C           2.9539   -0.8475   21.4838 C.2     1  UNL1        0.2191
      9 C           3.8284   -1.4787   22.5263 C.3     1  UNL1        0.1226
     10 C           0.5120    1.6121   19.7365 C.ar    1  UNL1        0.1061
     11 C           0.6825    2.2725   18.4005 C.ar    1  UNL1        0.0141
     12 C          -0.2544    3.3655   17.9791 C.ar    1  UNL1        0.0614
     13 C          -1.3619    3.7980   18.8936 C.ar    1  UNL1        0.2648
     14 O          -2.2988    4.8910   18.4722 O.2     1  UNL1       -0.2666
     15 N          -1.5324    3.1376   20.2296 N.ar    1  UNL1       -0.2729
     16 C          -0.5955    2.0447   20.6510 C.ar    1  UNL1        0.0906
     17 C          -2.6399    3.5703   21.1441 C.ar    1  UNL1        0.0669
     18 C          -4.0526    3.1533   20.8607 C.ar    1  UNL1        0.0176
     19 C          -5.1600    3.5860   21.7752 C.ar    1  UNL1        0.0015
     20 C          -4.8547    4.4355   22.9732 C.ar    1  UNL1        0.0001
     21 C          -3.4420    4.8524   23.2566 C.ar    1  UNL1        0.0015
     22 C          -2.3346    4.4198   22.3421 C.ar    1  UNL1        0.0176
     23 S           5.4512   -3.3718   23.2562 S.O2    1  UNL1        0.0054
     24 O           4.8178   -2.5109   24.3087 O.2     1  UNL1       -0.1689
     25 O           6.0846   -4.2326   22.2036 O.2     1  UNL1       -0.1689
     26 C           6.3257   -4.0030   24.2986 C.3     1  UNL1        0.1556
     27 C           7.8204   -6.0444   24.8891 C.3     1  UNL1        0.0019
     28 C           7.3560   -5.0174   23.8993 C.3     1  UNL1        0.0257
@<TRIPOS>BOND
     1    27    28    1
     2    28    26    1
     3    26    23    1
     4    23    24    2
     5    23    25    2
     6    23     1    1
     7     1     2    2
     8     2     3    1
     9     3     4    2
    10     4     5    1
    11     5     6    2
    12     6    10    1
    13    10    11   ar
    14    11    12   ar
    15    12    13   ar
    16    13    14    2
    17    13    15   ar
    18    15    17    1
    19    17    18   ar
    20    18    19   ar
    21    19    20   ar
    22    20    21   ar
    23    21    22   ar
    24    15    16   ar
    25     6     7    1
    26     7     8    2
    27     8     9    1
    28     9     1    1
    29     8     4    1
    30    16    10   ar
    31    22    17   ar
@<TRIPOS>MOLECULE
*****
 28 31 0 0 0
SMALL
GASTEIGER

@<TRIPOS>ATOM
      1 C           2.9164   -0.9815   20.8357 C.2     1  UNL1        0.0919
      2 C           3.2168   -1.9961   19.7726 C.2     1  UNL1        0.0183
      3 C           4.1360   -3.1436   20.0693 C.2     1  UNL1        0.0511
      4 C           4.7550   -3.2766   21.4291 C.2     1  UNL1        0.2322
      5 N           5.6924   -4.2933   22.0102 N.2     1  UNL1       -0.0308
      6 C           5.9714   -3.9070   23.4325 C.2     1  UNL1        0.3767
      7 N           5.2064   -2.6516   23.7305 N.2     1  UNL1       -0.0346
      8 C           4.4546   -2.2620   22.4923 C.2     1  UNL1        0.2191
      9 C           3.5354   -1.1144   22.1956 C.3     1  UNL1        0.1226
     10 C           6.8595   -4.6463   24.3890 C.ar    1  UNL1        0.1061
     11 C           7.8202   -5.6777   23.8758 C.ar    1  UNL1        0.0141
     12 C           8.7083   -6.4171   24.8322 C.ar    1  UNL1        0.0614
     13 C           8.6356   -6.1250   26.3017 C.ar    1  UNL1        0.2648
     14 O           9.5238   -6.8644   27.2581 O.2     1  UNL1       -0.2666
     15 N           7.6749   -5.0937   26.8148 N.ar    1  UNL1       -0.2729
     16 C           6.7869   -4.3543   25.8584 C.ar    1  UNL1        0.0906
     17 C           7.6023   -4.8017   28.2844 C.ar    1  UNL1        0.0669
     18 C           8.1646   -3.5196   28.8229 C.ar    1  UNL1        0.0176
     19 C           8.0919   -3.2277   30.2924 C.ar    1  UNL1        0.0015
     20 C           7.4571   -4.2178   31.2233 C.ar    1  UNL1        0.0001
     21 C           6.8948   -5.4999   30.6847 C.ar    1  UNL1        0.0015
     22 C           6.9675   -5.7918   29.2153 C.ar    1  UNL1        0.0176
     23 S           1.9972    0.1661   20.5391 S.O2    1  UNL1        0.0054
     24 O           1.1575   -0.7294   19.6771 O.2     1  UNL1       -0.1689
     25 O           2.8369    1.0616   21.4010 O.2     1  UNL1       -0.1689
     26 C           1.0779    1.3137   20.2424 C.3     1  UNL1        0.1556
     27 C           2.3861    2.5691   18.3816 C.3     1  UNL1        0.0019
     28 C           1.1097    1.9710   18.8944 C.3     1  UNL1        0.0257
@<TRIPOS>BOND
     1    27    28    1
     2    28    26    1
     3    26    23    1
     4    23    24    2
     5    23    25    2
     6    23     1    1
     7     1     2    2
     8     2     3    1
     9     3     4    2
    10     4     5    1
    11     5     6    2
    12     6    10    1
    13    10    11   ar
    14    11    12   ar
    15    12    13   ar
    16    13    14    2
    17    13    15   ar
    18    15    17    1
    19    17    18   ar
    20    18    19   ar
    21    19    20   ar
    22    20    21   ar
    23    21    22   ar
    24    15    16   ar
    25     6     7    1
    26     7     8    2
    27     8     9    1
    28     9     1    1
    29     8     4    1
    30    16    10   ar
    31    22    17   ar
