@<TRIPOS>MOLECULE
*****
 27 29 0 0 0
SMALL
GASTEIGER

@<TRIPOS>ATOM
      1 C          -8.5416  -18.8223   21.6420 C.2     1  UNL1        0.2252
      2 O          -8.1943  -18.5785   20.2034 O.2     1  UNL1       -0.2750
      3 N          -7.7192  -19.7722   22.4615 N.am    1  UNL1       -0.3004
      4 H          -7.9472  -19.9322   23.4058 H       1  UNL1        0.1497
      5 C          -9.7112  -18.1162   22.2613 C.3     1  UNL1        0.1154
      6 C         -11.0323  -19.1573   23.3570 C.3     1  UNL1        0.0335
      7 C          -9.9414  -18.2021   23.7410 C.3     1  UNL1        0.1377
      8 C          -8.8023  -17.2289   23.8157 C.3     1  UNL1        0.0613
      9 C          -8.5565  -16.9130   25.2613 C.3     1  UNL1        0.1290
     10 C          -8.4289  -16.6951   26.7399 C.3     1  UNL1        0.0305
     11 C          -7.3801  -15.7647   27.2731 C.3     1  UNL1        0.0025
     12 C          -6.4590  -15.0521   26.3277 C.3     1  UNL1        0.0002
     13 C          -6.5866  -15.2700   24.8491 C.3     1  UNL1        0.0025
     14 C          -7.6353  -16.2005   24.3160 C.3     1  UNL1        0.0305
     15 O          -9.5436  -17.6910   26.0801 O.3     1  UNL1       -0.2256
     16 O         -10.3995  -18.4877   25.1405 O.3     1  UNL1       -0.2251
     17 C          -6.5496  -20.4782   21.8422 C.3     1  UNL1        0.1163
     18 C          -5.2952  -19.7181   21.5282 C.ar    1  UNL1       -0.0026
     19 C          -4.6359  -18.8877   22.5893 C.ar    1  UNL1       -0.0029
     20 C          -3.3815  -18.1276   22.2753 C.ar    1  UNL1       -0.0046
     21 C          -2.7864  -18.1978   20.9002 C.ar    1  UNL1       -0.0228
     22 C          -3.4456  -19.0282   19.8392 C.ar    1  UNL1       -0.0046
     23 C          -4.7001  -19.7884   20.1532 C.ar    1  UNL1       -0.0029
     24 C          -1.5319  -17.4377   20.5862 C.3     1  UNL1        0.0189
     25 C          -1.9530  -16.3520   21.5317 C.3     1  UNL1        0.0044
     26 C          -1.1107  -18.5233   19.6407 C.3     1  UNL1        0.0044
     27 C          -0.2774  -16.6776   20.2722 C.3     1  UNL1        0.0044
@<TRIPOS>BOND
     1     6     7    1
     2     7     5    1
     3     5     1    1
     4     1     2    2
     5     1     3   am
     6     3    17    1
     7    17    18    1
     8    18    19   ar
     9    19    20   ar
    10    20    21   ar
    11    21    24    1
    12    24    25    1
    13    24    26    1
    14    24    27    1
    15    21    22   ar
    16    22    23   ar
    17     7     8    1
    18     8     9    1
    19     9    10    1
    20    10    11    1
    21    11    12    1
    22    12    13    1
    23    13    14    1
    24     9    15    1
    25    15    16    1
    26    16     7    1
    27    23    18   ar
    28    14     9    1
    29     3     4    1
@<TRIPOS>MOLECULE
*****
 27 29 0 0 0
SMALL
GASTEIGER

@<TRIPOS>ATOM
      1 C          -5.4441  -19.2586   20.9321 C.2     1  UNL1        0.2252
      2 O          -5.7230  -20.4939   21.7359 O.2     1  UNL1       -0.2750
      3 N          -6.4532  -18.7679   19.9365 N.am    1  UNL1       -0.3004
      4 H          -6.2701  -17.9571   19.4089 H       1  UNL1        0.1497
      5 C          -4.1562  -18.5137   21.1239 C.3     1  UNL1        0.1154
      6 C          -2.4771  -19.0534   22.0825 C.3     1  UNL1        0.0335
      7 C          -3.6546  -18.2273   22.5081 C.3     1  UNL1        0.1377
      8 C          -4.9369  -17.4612   22.6444 C.3     1  UNL1        0.0613
      9 C          -4.9817  -16.8739   24.0240 C.3     1  UNL1        0.1290
     10 C          -4.8867  -16.3541   25.4278 C.3     1  UNL1        0.0305
     11 C          -5.9921  -15.5116   25.9920 C.3     1  UNL1        0.0025
     12 C          -7.1924  -15.1888   25.1523 C.3     1  UNL1        0.0002
     13 C          -7.2873  -15.7086   23.7484 C.3     1  UNL1        0.0025
     14 C          -6.1820  -16.5511   23.1843 C.3     1  UNL1        0.0305
     15 O          -3.7270  -17.2771   24.7404 O.3     1  UNL1       -0.2256
     16 O          -2.9067  -18.1136   23.8035 O.3     1  UNL1       -0.2251
     17 C          -7.7410  -19.5127   19.7447 C.3     1  UNL1        0.1163
     18 C          -8.9294  -19.1886   20.6006 C.ar    1  UNL1       -0.0026
     19 C          -8.7467  -18.9094   22.0630 C.ar    1  UNL1       -0.0029
     20 C          -9.9351  -18.5853   22.9189 C.ar    1  UNL1       -0.0046
     21 C         -11.3063  -18.5404   22.3124 C.ar    1  UNL1       -0.0228
     22 C         -11.4890  -18.8196   20.8500 C.ar    1  UNL1       -0.0046
     23 C         -10.3005  -19.1438   19.9940 C.ar    1  UNL1       -0.0029
     24 C         -12.4947  -18.2163   23.1683 C.3     1  UNL1        0.0189
     25 C         -11.7703  -18.7405   24.3727 C.3     1  UNL1        0.0044
     26 C         -13.2191  -17.6922   21.9640 C.3     1  UNL1        0.0044
     27 C         -13.6831  -17.8922   24.0242 C.3     1  UNL1        0.0044
@<TRIPOS>BOND
     1     6     7    1
     2     7     5    1
     3     5     1    1
     4     1     2    2
     5     1     3   am
     6     3    17    1
     7    17    18    1
     8    18    19   ar
     9    19    20   ar
    10    20    21   ar
    11    21    24    1
    12    24    25    1
    13    24    26    1
    14    24    27    1
    15    21    22   ar
    16    22    23   ar
    17     7     8    1
    18     8     9    1
    19     9    10    1
    20    10    11    1
    21    11    12    1
    22    12    13    1
    23    13    14    1
    24     9    15    1
    25    15    16    1
    26    16     7    1
    27    23    18   ar
    28    14     9    1
    29     3     4    1
@<TRIPOS>MOLECULE
*****
 27 29 0 0 0
SMALL
GASTEIGER

@<TRIPOS>ATOM
      1 C          -4.1437  -15.8569   23.2630 C.2     1  UNL1        0.2252
      2 O          -4.3778  -14.6051   22.4705 O.2     1  UNL1       -0.2750
      3 N          -5.1517  -16.2988   24.2824 N.am    1  UNL1       -0.3004
      4 H          -4.9980  -17.1204   24.8025 H       1  UNL1        0.1497
      5 C          -2.9017  -16.6669   23.0363 C.3     1  UNL1        0.1154
      6 C          -1.5345  -16.3768   21.5954 C.3     1  UNL1        0.0335
      7 C          -2.6769  -17.3414   21.7156 C.3     1  UNL1        0.1377
      8 C          -3.8664  -18.1649   22.1118 C.3     1  UNL1        0.0613
      9 C          -4.1380  -19.1468   21.0108 C.3     1  UNL1        0.1290
     10 C          -4.2865  -20.0661   19.8348 C.3     1  UNL1        0.0305
     11 C          -5.3865  -21.0856   19.8142 C.3     1  UNL1        0.0025
     12 C          -6.3380  -21.1859   20.9695 C.3     1  UNL1        0.0002
     13 C          -6.1894  -20.2666   22.1454 C.3     1  UNL1        0.0025
     14 C          -5.0894  -19.2471   22.1660 C.3     1  UNL1        0.0305
     15 O          -3.1163  -18.9301   19.9340 O.3     1  UNL1       -0.2256
     16 O          -2.2133  -17.8142   20.3696 O.3     1  UNL1       -0.2251
     17 C          -6.3936  -15.4887   24.5090 C.3     1  UNL1        0.1163
     18 C          -7.7107  -15.9705   23.9770 C.ar    1  UNL1       -0.0026
     19 C          -8.0738  -15.7282   22.5419 C.ar    1  UNL1       -0.0029
     20 C          -9.3909  -16.2099   22.0098 C.ar    1  UNL1       -0.0046
     21 C         -10.3449  -16.9340   22.9129 C.ar    1  UNL1       -0.0228
     22 C          -9.9819  -17.1764   24.3479 C.ar    1  UNL1       -0.0046
     23 C          -8.6647  -16.6946   24.8800 C.ar    1  UNL1       -0.0029
     24 C         -11.6621  -17.4158   22.3807 C.3     1  UNL1        0.0189
     25 C         -12.1875  -16.0111   22.4092 C.3     1  UNL1        0.0044
     26 C         -11.1368  -18.8205   22.3523 C.3     1  UNL1        0.0044
     27 C         -12.9792  -17.8976   21.8486 C.3     1  UNL1        0.0044
@<TRIPOS>BOND
     1     6     7    1
     2     7     5    1
     3     5     1    1
     4     1     2    2
     5     1     3   am
     6     3    17    1
     7    17    18    1
     8    18    19   ar
     9    19    20   ar
    10    20    21   ar
    11    21    24    1
    12    24    25    1
    13    24    26    1
    14    24    27    1
    15    21    22   ar
    16    22    23   ar
    17     7     8    1
    18     8     9    1
    19     9    10    1
    20    10    11    1
    21    11    12    1
    22    12    13    1
    23    13    14    1
    24     9    15    1
    25    15    16    1
    26    16     7    1
    27    23    18   ar
    28    14     9    1
    29     3     4    1
@<TRIPOS>MOLECULE
*****
 27 29 0 0 0
SMALL
GASTEIGER

@<TRIPOS>ATOM
      1 C         -10.2938  -17.8014   24.6759 C.2     1  UNL1        0.2252
      2 O          -9.4438  -18.4312   25.7391 O.2     1  UNL1       -0.2750
      3 N          -9.8673  -16.5108   24.0413 N.am    1  UNL1       -0.3004
      4 H         -10.4253  -16.0974   23.3434 H       1  UNL1        0.1497
      5 C         -11.5705  -18.4620   24.2470 C.3     1  UNL1        0.1154
      6 C         -13.2909  -17.7118   23.5351 C.3     1  UNL1        0.0335
      7 C         -12.0804  -18.2721   22.8492 C.3     1  UNL1        0.1377
      8 C         -10.7632  -18.8722   22.4555 C.3     1  UNL1        0.0613
      9 C         -10.7120  -18.9360   20.9577 C.3     1  UNL1        0.1290
     10 C         -10.8043  -18.9357   19.4606 C.3     1  UNL1        0.0305
     11 C          -9.6672  -19.4668   18.6390 C.3     1  UNL1        0.0025
     12 C          -8.4380  -19.9983   19.3146 C.3     1  UNL1        0.0002
     13 C          -8.3458  -19.9987   20.8118 C.3     1  UNL1        0.0025
     14 C          -9.4828  -19.4675   21.6333 C.3     1  UNL1        0.0305
     15 O         -11.9976  -18.3754   20.4257 O.3     1  UNL1       -0.2256
     16 O         -12.8433  -17.9651   21.5948 O.3     1  UNL1       -0.2251
     17 C          -8.5908  -15.8501   24.4702 C.3     1  UNL1        0.1163
     18 C          -7.2734  -16.3765   23.9828 C.ar    1  UNL1       -0.0026
     19 C          -7.2358  -17.4573   22.9434 C.ar    1  UNL1       -0.0029
     20 C          -5.9185  -17.9837   22.4560 C.ar    1  UNL1       -0.0046
     21 C          -4.6387  -17.4293   23.0082 C.ar    1  UNL1       -0.0228
     22 C          -4.6763  -16.3485   24.0476 C.ar    1  UNL1       -0.0046
     23 C          -5.9937  -15.8221   24.5350 C.ar    1  UNL1       -0.0029
     24 C          -3.3213  -17.9557   22.5208 C.3     1  UNL1        0.0189
     25 C          -3.8679  -19.3522   22.5518 C.3     1  UNL1        0.0044
     26 C          -2.7748  -16.5592   22.4899 C.3     1  UNL1        0.0044
     27 C          -2.0040  -18.4820   22.0335 C.3     1  UNL1        0.0044
@<TRIPOS>BOND
     1     6     7    1
     2     7     5    1
     3     5     1    1
     4     1     2    2
     5     1     3   am
     6     3    17    1
     7    17    18    1
     8    18    19   ar
     9    19    20   ar
    10    20    21   ar
    11    21    24    1
    12    24    25    1
    13    24    26    1
    14    24    27    1
    15    21    22   ar
    16    22    23   ar
    17     7     8    1
    18     8     9    1
    19     9    10    1
    20    10    11    1
    21    11    12    1
    22    12    13    1
    23    13    14    1
    24     9    15    1
    25    15    16    1
    26    16     7    1
    27    23    18   ar
    28    14     9    1
    29     3     4    1
@<TRIPOS>MOLECULE
*****
 27 29 0 0 0
SMALL
GASTEIGER

@<TRIPOS>ATOM
      1 C          -7.1640  -15.2707   24.8419 C.2     1  UNL1        0.2252
      2 O          -7.3013  -14.6930   23.4645 O.2     1  UNL1       -0.2750
      3 N          -5.8270  -15.7500   25.3244 N.am    1  UNL1       -0.3004
      4 H          -5.7369  -16.1291   26.2285 H       1  UNL1        0.1497
      5 C          -8.3637  -15.3690   25.7370 C.3     1  UNL1        0.1154
      6 C          -8.4897  -16.2550   27.5339 C.3     1  UNL1        0.0335
      7 C          -8.8761  -16.7140   26.1592 C.3     1  UNL1        0.1377
      8 C          -9.1554  -16.8919   24.6962 C.3     1  UNL1        0.0613
      9 C          -9.7597  -18.2510   24.5015 C.3     1  UNL1        0.1290
     10 C         -10.3504  -19.6292   24.4621 C.3     1  UNL1        0.0305
     11 C         -10.7843  -20.2221   23.1544 C.3     1  UNL1        0.0025
     12 C         -10.6275  -19.4368   21.8861 C.3     1  UNL1        0.0002
     13 C         -10.0368  -18.0586   21.9255 C.3     1  UNL1        0.0025
     14 C          -9.6029  -17.4657   23.2332 C.3     1  UNL1        0.0305
     15 O          -9.8538  -18.9131   25.8442 O.3     1  UNL1       -0.2256
     16 O          -9.3077  -17.9632   26.8688 O.3     1  UNL1       -0.2251
     17 C          -4.6273  -15.6516   24.4294 C.3     1  UNL1        0.1163
     18 C          -4.3727  -16.7100   23.3975 C.ar    1  UNL1       -0.0026
     19 C          -3.0450  -16.7759   22.7025 C.ar    1  UNL1       -0.0029
     20 C          -2.7904  -17.8343   21.6705 C.ar    1  UNL1       -0.0046
     21 C          -3.8635  -18.8268   21.3336 C.ar    1  UNL1       -0.0228
     22 C          -5.1910  -18.7610   22.0285 C.ar    1  UNL1       -0.0046
     23 C          -5.4457  -17.7025   23.0605 C.ar    1  UNL1       -0.0029
     24 C          -3.6088  -19.8853   20.3016 C.3     1  UNL1        0.0189
     25 C          -2.1996  -19.3952   20.1466 C.3     1  UNL1        0.0044
     26 C          -5.0179  -20.3754   20.4566 C.3     1  UNL1        0.0044
     27 C          -3.3541  -20.9437   19.2697 C.3     1  UNL1        0.0044
@<TRIPOS>BOND
     1     6     7    1
     2     7     5    1
     3     5     1    1
     4     1     2    2
     5     1     3   am
     6     3    17    1
     7    17    18    1
     8    18    19   ar
     9    19    20   ar
    10    20    21   ar
    11    21    24    1
    12    24    25    1
    13    24    26    1
    14    24    27    1
    15    21    22   ar
    16    22    23   ar
    17     7     8    1
    18     8     9    1
    19     9    10    1
    20    10    11    1
    21    11    12    1
    22    12    13    1
    23    13    14    1
    24     9    15    1
    25    15    16    1
    26    16     7    1
    27    23    18   ar
    28    14     9    1
    29     3     4    1
@<TRIPOS>MOLECULE
*****
 27 29 0 0 0
SMALL
GASTEIGER

@<TRIPOS>ATOM
      1 C          -8.1193  -15.9983   23.4622 C.2     1  UNL1        0.2252
      2 O          -7.7410  -15.1116   22.3131 O.2     1  UNL1       -0.2750
      3 N          -7.1221  -16.2903   24.5442 N.am    1  UNL1       -0.3004
      4 H          -7.3704  -16.8723   25.2984 H       1  UNL1        0.1497
      5 C          -9.4948  -16.5930   23.5296 C.3     1  UNL1        0.1154
      6 C         -11.2607  -16.0845   22.7219 C.3     1  UNL1        0.0335
      7 C         -10.1858  -17.0288   22.2716 C.3     1  UNL1        0.1377
      8 C          -8.9663  -17.8819   22.0843 C.3     1  UNL1        0.0613
      9 C          -9.1284  -18.6477   20.8046 C.3     1  UNL1        0.1290
     10 C          -9.4291  -19.3414   19.5092 C.3     1  UNL1        0.0305
     11 C          -8.4444  -20.3159   18.9341 C.3     1  UNL1        0.0025
     12 C          -7.1591  -20.5967   19.6545 C.3     1  UNL1        0.0002
     13 C          -6.8584  -19.9030   20.9500 C.3     1  UNL1        0.0025
     14 C          -7.8430  -18.9285   21.5251 C.3     1  UNL1        0.0305
     15 O         -10.4480  -18.2677   20.2011 O.3     1  UNL1       -0.2256
     16 O         -11.1015  -17.2671   21.1077 O.3     1  UNL1       -0.2251
     17 C          -5.7467  -15.6956   24.4769 C.3     1  UNL1        0.1163
     18 C          -4.7161  -16.2909   23.5640 C.ar    1  UNL1       -0.0026
     19 C          -3.6919  -15.4093   22.9129 C.ar    1  UNL1       -0.0029
     20 C          -2.6613  -16.0046   22.0001 C.ar    1  UNL1       -0.0046
     21 C          -2.6548  -17.4816   21.7382 C.ar    1  UNL1       -0.0228
     22 C          -3.6789  -18.3631   22.3892 C.ar    1  UNL1       -0.0046
     23 C          -4.7096  -17.7679   23.3022 C.ar    1  UNL1       -0.0029
     24 C          -1.6241  -18.0769   20.8253 C.3     1  UNL1        0.0189
     25 C          -2.1953  -19.4420   21.0705 C.3     1  UNL1        0.0044
     26 C          -1.0529  -16.7117   20.5801 C.3     1  UNL1        0.0044
     27 C          -0.5934  -18.6721   19.9124 C.3     1  UNL1        0.0044
@<TRIPOS>BOND
     1     6     7    1
     2     7     5    1
     3     5     1    1
     4     1     2    2
     5     1     3   am
     6     3    17    1
     7    17    18    1
     8    18    19   ar
     9    19    20   ar
    10    20    21   ar
    11    21    24    1
    12    24    25    1
    13    24    26    1
    14    24    27    1
    15    21    22   ar
    16    22    23   ar
    17     7     8    1
    18     8     9    1
    19     9    10    1
    20    10    11    1
    21    11    12    1
    22    12    13    1
    23    13    14    1
    24     9    15    1
    25    15    16    1
    26    16     7    1
    27    23    18   ar
    28    14     9    1
    29     3     4    1
@<TRIPOS>MOLECULE
*****
 27 29 0 0 0
SMALL
GASTEIGER

@<TRIPOS>ATOM
      1 C          -6.0734  -15.5639   25.2473 C.2     1  UNL1        0.2252
      2 O          -5.0998  -14.5585   25.7870 O.2     1  UNL1       -0.2750
      3 N          -5.5720  -16.8111   24.5815 N.am    1  UNL1       -0.3004
      4 H          -6.2111  -17.4709   24.2273 H       1  UNL1        0.1497
      5 C          -7.5485  -15.3222   25.3735 C.3     1  UNL1        0.1154
      6 C          -7.8986  -16.1024   27.1896 C.3     1  UNL1        0.0335
      7 C          -8.4527  -16.4267   25.8339 C.3     1  UNL1        0.1377
      8 C          -8.8178  -16.5202   24.3821 C.3     1  UNL1        0.0613
      9 C          -9.8320  -17.6148   24.2286 C.3     1  UNL1        0.1290
     10 C         -10.8348  -18.7302   24.2303 C.3     1  UNL1        0.0305
     11 C         -11.4748  -19.1653   22.9454 C.3     1  UNL1        0.0025
     12 C         -11.1120  -18.4850   21.6588 C.3     1  UNL1        0.0002
     13 C         -10.1092  -17.3695   21.6570 C.3     1  UNL1        0.0025
     14 C          -9.4692  -16.9344   22.9419 C.3     1  UNL1        0.0305
     15 O         -10.0936  -18.1978   25.5856 O.3     1  UNL1       -0.2256
     16 O          -9.2412  -17.4636   26.5779 O.3     1  UNL1       -0.2251
     17 C          -4.0970  -17.0528   24.4554 C.3     1  UNL1        0.1163
     18 C          -3.4791  -17.2290   23.1000 C.ar    1  UNL1       -0.0026
     19 C          -3.6238  -18.5334   22.3736 C.ar    1  UNL1       -0.0029
     20 C          -3.0059  -18.7096   21.0182 C.ar    1  UNL1       -0.0046
     21 C          -2.2433  -17.5814   20.3892 C.ar    1  UNL1       -0.0228
     22 C          -2.0986  -16.2771   21.1155 C.ar    1  UNL1       -0.0046
     23 C          -2.7165  -16.1008   22.4710 C.ar    1  UNL1       -0.0029
     24 C          -1.6253  -17.7577   19.0337 C.3     1  UNL1        0.0189
     25 C          -2.9011  -17.2984   18.3923 C.3     1  UNL1        0.0044
     26 C          -0.3496  -18.2171   19.6752 C.3     1  UNL1        0.0044
     27 C          -1.0074  -17.9340   17.6784 C.3     1  UNL1        0.0044
@<TRIPOS>BOND
     1     6     7    1
     2     7     5    1
     3     5     1    1
     4     1     2    2
     5     1     3   am
     6     3    17    1
     7    17    18    1
     8    18    19   ar
     9    19    20   ar
    10    20    21   ar
    11    21    24    1
    12    24    25    1
    13    24    26    1
    14    24    27    1
    15    21    22   ar
    16    22    23   ar
    17     7     8    1
    18     8     9    1
    19     9    10    1
    20    10    11    1
    21    11    12    1
    22    12    13    1
    23    13    14    1
    24     9    15    1
    25    15    16    1
    26    16     7    1
    27    23    18   ar
    28    14     9    1
    29     3     4    1
@<TRIPOS>MOLECULE
*****
 27 29 0 0 0
SMALL
GASTEIGER

@<TRIPOS>ATOM
      1 C          -7.8404  -15.5960   24.5330 C.2     1  UNL1        0.2252
      2 O          -7.6039  -14.9503   23.2000 O.2     1  UNL1       -0.2750
      3 N          -6.7085  -15.7436   25.5063 N.am    1  UNL1       -0.3004
      4 H          -6.8638  -16.1675   26.3812 H       1  UNL1        0.1497
      5 C          -9.2088  -16.0942   24.8928 C.3     1  UNL1        0.1154
      6 C          -9.1864  -17.5833   26.2388 C.3     1  UNL1        0.0335
      7 C          -9.5289  -17.5552   24.7787 C.3     1  UNL1        0.1377
      8 C          -9.8045  -17.2216   23.3425 C.3     1  UNL1        0.0613
      9 C         -10.2234  -18.4824   22.6459 C.3     1  UNL1        0.1290
     10 C         -10.6239  -19.8156   22.0874 C.3     1  UNL1        0.0305
     11 C         -10.9944  -19.9415   20.6394 C.3     1  UNL1        0.0025
     12 C         -10.9644  -18.7341   19.7498 C.3     1  UNL1        0.0002
     13 C         -10.5639  -17.4008   20.3083 C.3     1  UNL1        0.0025
     14 C         -10.1934  -17.2750   21.7563 C.3     1  UNL1        0.0305
     15 O         -10.2067  -19.5951   23.6517 O.3     1  UNL1       -0.2256
     16 O          -9.7775  -19.0221   24.9699 O.3     1  UNL1       -0.2251
     17 C          -5.3402  -15.2454   25.1465 C.3     1  UNL1        0.1163
     18 C          -4.5164  -15.9824   24.1325 C.ar    1  UNL1       -0.0026
     19 C          -4.3493  -17.4692   24.2393 C.ar    1  UNL1       -0.0029
     20 C          -3.5255  -18.2062   23.2253 C.ar    1  UNL1       -0.0046
     21 C          -2.8688  -17.4563   22.1044 C.ar    1  UNL1       -0.0228
     22 C          -3.0358  -15.9695   21.9976 C.ar    1  UNL1       -0.0046
     23 C          -3.8597  -15.2325   23.0116 C.ar    1  UNL1       -0.0029
     24 C          -2.0449  -18.1933   21.0904 C.3     1  UNL1        0.0189
     25 C          -1.4400  -16.8969   20.6395 C.3     1  UNL1        0.0044
     26 C          -2.6499  -19.4897   21.5413 C.3     1  UNL1        0.0044
     27 C          -1.2212  -18.9304   20.0765 C.3     1  UNL1        0.0044
@<TRIPOS>BOND
     1     6     7    1
     2     7     5    1
     3     5     1    1
     4     1     2    2
     5     1     3   am
     6     3    17    1
     7    17    18    1
     8    18    19   ar
     9    19    20   ar
    10    20    21   ar
    11    21    24    1
    12    24    25    1
    13    24    26    1
    14    24    27    1
    15    21    22   ar
    16    22    23   ar
    17     7     8    1
    18     8     9    1
    19     9    10    1
    20    10    11    1
    21    11    12    1
    22    12    13    1
    23    13    14    1
    24     9    15    1
    25    15    16    1
    26    16     7    1
    27    23    18   ar
    28    14     9    1
    29     3     4    1
@<TRIPOS>MOLECULE
*****
 27 29 0 0 0
SMALL
GASTEIGER

@<TRIPOS>ATOM
      1 C          -7.8863  -18.3105   22.6605 C.2     1  UNL1        0.2252
      2 O          -7.2898  -17.4411   21.5936 O.2     1  UNL1       -0.2750
      3 N          -7.6464  -19.7911   22.6426 N.am    1  UNL1       -0.3004
      4 H          -8.0379  -20.3618   23.3428 H       1  UNL1        0.1497
      5 C          -8.7228  -17.6993   23.7454 C.3     1  UNL1        0.1154
      6 C         -10.0689  -18.5020   24.9997 C.3     1  UNL1        0.0335
      7 C         -10.2183  -17.7970   23.6842 C.3     1  UNL1        0.1377
      8 C         -10.0551  -17.0715   22.3815 C.3     1  UNL1        0.0613
      9 C         -11.4186  -16.8682   21.7901 C.3     1  UNL1        0.1290
     10 C         -12.8388  -16.7388   21.3251 C.3     1  UNL1        0.0305
     11 C         -13.1429  -16.0557   20.0248 C.3     1  UNL1        0.0025
     12 C         -12.0268  -15.5019   19.1895 C.3     1  UNL1        0.0002
     13 C         -10.6066  -15.6312   19.6545 C.3     1  UNL1        0.0025
     14 C         -10.3025  -16.3144   20.9548 C.3     1  UNL1        0.0305
     15 O         -12.4245  -17.4680   22.7274 O.3     1  UNL1       -0.2256
     16 O         -11.6826  -18.0420   23.8980 O.3     1  UNL1       -0.2251
     17 C          -6.8099  -20.4023   21.5577 C.3     1  UNL1        0.1163
     18 C          -5.4661  -19.8220   21.2301 C.ar    1  UNL1       -0.0026
     19 C          -5.0723  -19.6033   19.7993 C.ar    1  UNL1       -0.0029
     20 C          -3.7284  -19.0230   19.4716 C.ar    1  UNL1       -0.0046
     21 C          -2.7784  -18.6616   20.5747 C.ar    1  UNL1       -0.0228
     22 C          -3.1721  -18.8804   22.0054 C.ar    1  UNL1       -0.0046
     23 C          -4.5161  -19.4606   22.3331 C.ar    1  UNL1       -0.0029
     24 C          -1.4345  -18.0814   20.2469 C.3     1  UNL1        0.0189
     25 C          -1.8273  -17.9875   18.8023 C.3     1  UNL1        0.0044
     26 C          -1.0417  -18.1753   21.6915 C.3     1  UNL1        0.0044
     27 C          -0.0906  -17.5012   19.9192 C.3     1  UNL1        0.0044
@<TRIPOS>BOND
     1     6     7    1
     2     7     5    1
     3     5     1    1
     4     1     2    2
     5     1     3   am
     6     3    17    1
     7    17    18    1
     8    18    19   ar
     9    19    20   ar
    10    20    21   ar
    11    21    24    1
    12    24    25    1
    13    24    26    1
    14    24    27    1
    15    21    22   ar
    16    22    23   ar
    17     7     8    1
    18     8     9    1
    19     9    10    1
    20    10    11    1
    21    11    12    1
    22    12    13    1
    23    13    14    1
    24     9    15    1
    25    15    16    1
    26    16     7    1
    27    23    18   ar
    28    14     9    1
    29     3     4    1
