@<TRIPOS>MOLECULE
*****
 28 30 0 0 0
SMALL
GASTEIGER

@<TRIPOS>ATOM
      1 N          -6.9612  -20.2309   21.1218 N.am    1  UNL1       -0.2996
      2 C          -7.9569  -19.4591   20.3074 C.2     1  UNL1        0.2651
      3 O          -7.7693  -19.3233   18.8255 O.2     1  UNL1       -0.2684
      4 H          -7.0843  -20.3201   22.0944 H       1  UNL1        0.1498
      5 C          -9.1401  -18.8233   20.9751 C.ar    1  UNL1        0.1517
      6 N          -9.9975  -17.7351   20.4001 N.ar    1  UNL1       -0.2260
      7 C         -11.0609  -17.4033   21.4047 C.ar    1  UNL1        0.1239
      8 N         -10.8606  -18.2864   22.6005 N.ar    1  UNL1       -0.2921
      9 C         -11.6058  -18.4049   23.8969 C.ar    1  UNL1        0.0811
     10 C         -11.1640  -19.4009   24.9277 C.ar    1  UNL1        0.0191
     11 C          -9.9768  -20.2785   24.6622 C.ar    1  UNL1        0.0031
     12 C          -9.2316  -20.1601   23.3658 C.ar    1  UNL1        0.0193
     13 C          -9.6735  -19.1641   22.3350 C.ar    1  UNL1        0.0872
     14 C         -12.1358  -16.3698   21.2421 C.3     1  UNL1        0.0573
     15 C         -12.5369  -15.9143   19.8703 C.3     1  UNL1        0.0079
     16 C         -12.8097  -15.7919   22.4510 C.3     1  UNL1        0.0079
     17 C          -5.7780  -20.8668   20.4540 C.3     1  UNL1        0.0898
     18 N          -1.9198  -18.5839   20.0626 N.3     1  UNL1       -0.2726
     19 C          -2.0587  -19.6480   21.1107 C.3     1  UNL1        0.0721
     20 C          -3.3448  -20.4090   21.2411 C.3     1  UNL1        0.0191
     21 C          -4.4920  -20.1058   20.3235 C.3     1  UNL1        0.0224
     22 C          -4.3532  -19.0417   19.2755 C.3     1  UNL1        0.0191
     23 C          -3.0671  -18.2808   19.1451 C.3     1  UNL1        0.0721
     24 C          -0.6338  -17.8230   19.9321 C.3     1  UNL1        0.0747
     25 C          -0.5591  -16.3939   20.3819 C.3     1  UNL1        0.0494
     26 C          -1.2606  -15.9648   21.6364 C.3     1  UNL1        0.1437
     27 C          -3.4605  -16.7273   22.7892 C.3     1  UNL1        0.1741
     28 O          -2.7594  -15.9738   21.6981 O.3     1  UNL1       -0.3511
@<TRIPOS>BOND
     1    27    28    1
     2    28    26    1
     3    26    25    1
     4    25    24    1
     5    24    18    1
     6    18    19    1
     7    19    20    1
     8    20    21    1
     9    21    17    1
    10    17     1    1
    11     1     2   am
    12     2     3    2
    13     2     5    1
    14     5     6   ar
    15     6     7   ar
    16     7    14    1
    17    14    15    1
    18    14    16    1
    19     7     8   ar
    20     8     9   ar
    21     9    10   ar
    22    10    11   ar
    23    11    12   ar
    24    12    13   ar
    25    21    22    1
    26    22    23    1
    27    23    18    1
    28    13     5   ar
    29    13     8   ar
    30     1     4    1
@<TRIPOS>MOLECULE
*****
 28 30 0 0 0
SMALL
GASTEIGER

@<TRIPOS>ATOM
      1 N          -7.2506  -19.0787   19.3286 N.am    1  UNL1       -0.2996
      2 C          -6.1193  -19.8649   19.9222 C.2     1  UNL1        0.2651
      3 O          -6.3236  -21.3006   20.3052 O.2     1  UNL1       -0.2684
      4 H          -7.1166  -18.1364   19.0771 H       1  UNL1        0.1498
      5 C          -4.7838  -19.2151   20.1327 C.ar    1  UNL1        0.1517
      6 N          -3.7175  -19.0346   19.0933 N.ar    1  UNL1       -0.2260
      7 C          -2.5549  -18.3398   19.7378 C.ar    1  UNL1        0.1239
      8 N          -2.9026  -18.0908   21.1755 N.ar    1  UNL1       -0.2921
      9 C          -2.1429  -17.4413   22.2940 C.ar    1  UNL1        0.0811
     10 C          -2.7608  -17.3329   23.6565 C.ar    1  UNL1        0.0191
     11 C          -4.1383  -17.8739   23.9005 C.ar    1  UNL1        0.0031
     12 C          -4.8981  -18.5233   22.7821 C.ar    1  UNL1        0.0193
     13 C          -4.2802  -18.6318   21.4196 C.ar    1  UNL1        0.0872
     14 C          -1.2700  -17.9604   19.0631 C.3     1  UNL1        0.0573
     15 C          -1.2496  -17.6869   17.5883 C.3     1  UNL1        0.0079
     16 C          -0.0056  -17.8546   19.8629 C.3     1  UNL1        0.0079
     17 C          -8.5861  -19.7285   19.1180 C.3     1  UNL1        0.0898
     18 N         -12.1632  -18.3296   21.4629 N.3     1  UNL1       -0.2726
     19 C         -11.4961  -17.4041   20.4890 C.3     1  UNL1        0.0721
     20 C         -10.3037  -17.8705   19.7073 C.3     1  UNL1        0.0191
     21 C          -9.7784  -19.2623   19.8997 C.3     1  UNL1        0.0224
     22 C         -10.4455  -20.1877   20.8736 C.3     1  UNL1        0.0191
     23 C         -11.6378  -19.7214   21.6552 C.3     1  UNL1        0.0721
     24 C         -13.3555  -17.8634   22.2445 C.3     1  UNL1        0.0747
     25 C         -13.2480  -17.6611   23.7269 C.3     1  UNL1        0.0494
     26 C         -12.4550  -18.6242   24.5597 C.3     1  UNL1        0.1437
     27 C         -10.0781  -19.5911   24.9665 C.3     1  UNL1        0.1741
     28 O         -10.9822  -18.4137   24.7518 O.3     1  UNL1       -0.3511
@<TRIPOS>BOND
     1    27    28    1
     2    28    26    1
     3    26    25    1
     4    25    24    1
     5    24    18    1
     6    18    19    1
     7    19    20    1
     8    20    21    1
     9    21    17    1
    10    17     1    1
    11     1     2   am
    12     2     3    2
    13     2     5    1
    14     5     6   ar
    15     6     7   ar
    16     7    14    1
    17    14    15    1
    18    14    16    1
    19     7     8   ar
    20     8     9   ar
    21     9    10   ar
    22    10    11   ar
    23    11    12   ar
    24    12    13   ar
    25    21    22    1
    26    22    23    1
    27    23    18    1
    28    13     5   ar
    29    13     8   ar
    30     1     4    1
@<TRIPOS>MOLECULE
*****
 28 30 0 0 0
SMALL
GASTEIGER

@<TRIPOS>ATOM
      1 N           6.3724   -4.6841   25.6542 N.am    1  UNL1       -0.2996
      2 C           6.9348   -4.2979   24.3183 C.2     1  UNL1        0.2651
      3 O           8.4071   -4.4223   24.0601 O.2     1  UNL1       -0.2684
      4 H           5.4060   -4.6025   25.8237 H       1  UNL1        0.1498
      5 C           6.0248   -3.7874   23.2406 C.ar    1  UNL1        0.1517
      6 N           5.9640   -4.2877   21.8278 N.ar    1  UNL1       -0.2260
      7 C           4.9175   -3.4964   21.1006 C.ar    1  UNL1        0.1239
      8 N           4.3315   -2.5072   22.0640 N.ar    1  UNL1       -0.2921
      9 C           3.2633   -1.4659   21.9078 C.ar    1  UNL1        0.0811
     10 C           2.8794   -0.6045   23.0742 C.ar    1  UNL1        0.0191
     11 C           3.5637   -0.7843   24.3968 C.ar    1  UNL1        0.0031
     12 C           4.6320   -1.8256   24.5530 C.ar    1  UNL1        0.0193
     13 C           5.0159   -2.6870   23.3866 C.ar    1  UNL1        0.0872
     14 C           4.5257   -3.6649   19.6625 C.3     1  UNL1        0.0573
     15 C           3.4437   -4.6343   19.2885 C.3     1  UNL1        0.0079
     16 C           5.2157   -2.8640   18.5984 C.3     1  UNL1        0.0079
     17 C           7.2823   -5.1946   26.7319 C.3     1  UNL1        0.0898
     18 N           6.5957   -3.9913   31.0133 N.3     1  UNL1       -0.2726
     19 C           6.9637   -5.4072   30.6820 C.3     1  UNL1        0.0721
     20 C           7.1926   -5.8083   29.2548 C.3     1  UNL1        0.0191
     21 C           7.0534   -4.7935   28.1590 C.3     1  UNL1        0.0224
     22 C           6.6855   -3.3776   28.4903 C.3     1  UNL1        0.0191
     23 C           6.4566   -2.9765   29.9175 C.3     1  UNL1        0.0721
     24 C           6.3668   -3.5902   32.4404 C.3     1  UNL1        0.0747
     25 C           5.8760   -2.2097   32.7619 C.3     1  UNL1        0.0494
     26 C           4.5591   -2.0245   33.4558 C.3     1  UNL1        0.1437
     27 C           3.4342   -0.9182   31.3916 C.3     1  UNL1        0.1741
     28 O           3.5302   -1.0986   32.8776 O.3     1  UNL1       -0.3511
@<TRIPOS>BOND
     1    27    28    1
     2    28    26    1
     3    26    25    1
     4    25    24    1
     5    24    18    1
     6    18    19    1
     7    19    20    1
     8    20    21    1
     9    21    17    1
    10    17     1    1
    11     1     2   am
    12     2     3    2
    13     2     5    1
    14     5     6   ar
    15     6     7   ar
    16     7    14    1
    17    14    15    1
    18    14    16    1
    19     7     8   ar
    20     8     9   ar
    21     9    10   ar
    22    10    11   ar
    23    11    12   ar
    24    12    13   ar
    25    21    22    1
    26    22    23    1
    27    23    18    1
    28    13     5   ar
    29    13     8   ar
    30     1     4    1
@<TRIPOS>MOLECULE
*****
 28 30 0 0 0
SMALL
GASTEIGER

@<TRIPOS>ATOM
      1 N           4.4081   -2.1436   25.9820 N.am    1  UNL1       -0.2996
      2 C           5.8431   -2.0248   26.4029 C.2     1  UNL1        0.2651
      3 O           6.7306   -1.0005   25.7604 O.2     1  UNL1       -0.2684
      4 H           3.8255   -2.8159   26.4037 H       1  UNL1        0.1498
      5 C           6.3902   -2.9303   27.4662 C.ar    1  UNL1        0.1517
      6 N           6.5962   -2.5728   28.9084 N.ar    1  UNL1       -0.2260
      7 C           7.1608   -3.7738   29.6075 C.ar    1  UNL1        0.1239
      8 N           7.3037   -4.8736   28.5974 N.ar    1  UNL1       -0.2921
      9 C           7.8059   -6.2823   28.7118 C.ar    1  UNL1        0.0811
     10 C           7.8319   -7.1697   27.5028 C.ar    1  UNL1        0.0191
     11 C           7.3557   -6.6483   26.1794 C.ar    1  UNL1        0.0031
     12 C           6.8535   -5.2396   26.0650 C.ar    1  UNL1        0.0193
     13 C           6.8274   -4.3522   27.2740 C.ar    1  UNL1        0.0872
     14 C           7.5194   -3.8601   31.0614 C.3     1  UNL1        0.0573
     15 C           6.4413   -3.8185   32.1036 C.3     1  UNL1        0.0079
     16 C           8.9561   -3.9878   31.4732 C.3     1  UNL1        0.0079
     17 C           3.8610   -1.2381   24.9187 C.3     1  UNL1        0.0898
     18 N           3.8870   -2.5504   20.6143 N.3     1  UNL1       -0.2726
     19 C           4.5935   -3.3705   21.6527 C.3     1  UNL1        0.0721
     20 C           4.5848   -2.9330   23.0876 C.3     1  UNL1        0.0191
     21 C           3.8696   -1.6755   23.4839 C.3     1  UNL1        0.0224
     22 C           3.1632   -0.8554   22.4455 C.3     1  UNL1        0.0191
     23 C           3.1719   -1.2928   21.0107 C.3     1  UNL1        0.0721
     24 C           3.8957   -2.9878   19.1795 C.3     1  UNL1        0.0747
     25 C           5.1790   -3.4220   18.5357 C.3     1  UNL1        0.0494
     26 C           6.3541   -2.4904   18.5021 C.3     1  UNL1        0.1437
     27 C           6.3486   -0.2142   17.2496 C.3     1  UNL1        0.1741
     28 O           6.6384   -1.6858   17.2685 O.3     1  UNL1       -0.3511
@<TRIPOS>BOND
     1    27    28    1
     2    28    26    1
     3    26    25    1
     4    25    24    1
     5    24    18    1
     6    18    19    1
     7    19    20    1
     8    20    21    1
     9    21    17    1
    10    17     1    1
    11     1     2   am
    12     2     3    2
    13     2     5    1
    14     5     6   ar
    15     6     7   ar
    16     7    14    1
    17    14    15    1
    18    14    16    1
    19     7     8   ar
    20     8     9   ar
    21     9    10   ar
    22    10    11   ar
    23    11    12   ar
    24    12    13   ar
    25    21    22    1
    26    22    23    1
    27    23    18    1
    28    13     5   ar
    29    13     8   ar
    30     1     4    1
@<TRIPOS>MOLECULE
*****
 28 30 0 0 0
SMALL
GASTEIGER

@<TRIPOS>ATOM
      1 N           6.5767   -4.3481   25.2711 N.am    1  UNL1       -0.2996
      2 C           6.7868   -4.6527   23.8173 C.2     1  UNL1        0.2651
      3 O           7.5808   -5.8586   23.4110 O.2     1  UNL1       -0.2684
      4 H           6.0555   -3.5566   25.5379 H       1  UNL1        0.1498
      5 C           6.2028   -3.7514   22.7702 C.ar    1  UNL1        0.1517
      6 N           4.8154   -3.1811   22.7718 N.ar    1  UNL1       -0.2260
      7 C           4.6588   -2.3394   21.5402 C.ar    1  UNL1        0.1239
      8 N           5.9494   -2.3895   20.7773 N.ar    1  UNL1       -0.2921
      9 C           6.3790   -1.7532   19.4887 C.ar    1  UNL1        0.0811
     10 C           7.7627   -1.9896   18.9603 C.ar    1  UNL1        0.0191
     11 C           8.7169   -2.8622   19.7205 C.ar    1  UNL1        0.0031
     12 C           8.2874   -3.4985   21.0091 C.ar    1  UNL1        0.0193
     13 C           6.9036   -3.2621   21.5375 C.ar    1  UNL1        0.0872
     14 C           3.4278   -1.5808   21.1413 C.3     1  UNL1        0.0573
     15 C           2.7984   -1.8235   19.8015 C.3     1  UNL1        0.0079
     16 C           2.8261   -0.5795   22.0822 C.3     1  UNL1        0.0079
     17 C           7.1607   -5.2494   26.3182 C.3     1  UNL1        0.0898
     18 N           6.7133   -4.2202   30.6761 N.3     1  UNL1       -0.2726
     19 C           6.5292   -3.1590   29.6321 C.3     1  UNL1        0.0721
     20 C           6.6783   -3.5021   28.1794 C.3     1  UNL1        0.0191
     21 C           7.0116   -4.9064   27.7708 C.3     1  UNL1        0.0224
     22 C           7.1957   -5.9676   28.8148 C.3     1  UNL1        0.0191
     23 C           7.0466   -5.6245   30.2674 C.3     1  UNL1        0.0721
     24 C           6.5642   -3.8772   32.1287 C.3     1  UNL1        0.0747
     25 C           5.8586   -2.6168   32.5330 C.3     1  UNL1        0.0494
     26 C           4.5638   -2.6908   33.2866 C.3     1  UNL1        0.1437
     27 C           3.6354   -0.3356   32.7026 C.3     1  UNL1        0.1741
     28 O           3.8645   -1.4305   33.7020 O.3     1  UNL1       -0.3511
@<TRIPOS>BOND
     1    27    28    1
     2    28    26    1
     3    26    25    1
     4    25    24    1
     5    24    18    1
     6    18    19    1
     7    19    20    1
     8    20    21    1
     9    21    17    1
    10    17     1    1
    11     1     2   am
    12     2     3    2
    13     2     5    1
    14     5     6   ar
    15     6     7   ar
    16     7    14    1
    17    14    15    1
    18    14    16    1
    19     7     8   ar
    20     8     9   ar
    21     9    10   ar
    22    10    11   ar
    23    11    12   ar
    24    12    13   ar
    25    21    22    1
    26    22    23    1
    27    23    18    1
    28    13     5   ar
    29    13     8   ar
    30     1     4    1
@<TRIPOS>MOLECULE
*****
 28 30 0 0 0
SMALL
GASTEIGER

@<TRIPOS>ATOM
      1 N          -0.7701    2.1868   20.7064 N.am    1  UNL1       -0.2996
      2 C          -1.5289    3.4541   20.9682 C.2     1  UNL1        0.2651
      3 O          -1.4416    4.5945   19.9978 O.2     1  UNL1       -0.2684
      4 H          -0.8274    1.4383   21.3433 H       1  UNL1        0.1498
      5 C          -2.3748    3.5808   22.2004 C.ar    1  UNL1        0.1517
      6 N          -1.8860    3.5088   23.6167 N.ar    1  UNL1       -0.2260
      7 C          -3.0672    3.6852   24.5242 C.ar    1  UNL1        0.1239
      8 N          -4.2860    3.8663   23.6688 N.ar    1  UNL1       -0.2921
      9 C          -5.7302    4.0816   24.0122 C.ar    1  UNL1        0.0811
     10 C          -6.7465    4.2324   22.9193 C.ar    1  UNL1        0.0191
     11 C          -6.3185    4.1679   21.4831 C.ar    1  UNL1        0.0031
     12 C          -4.8744    3.9526   21.1397 C.ar    1  UNL1        0.0193
     13 C          -3.8581    3.8018   22.2326 C.ar    1  UNL1        0.0872
     14 C          -3.0352    3.6813   26.0239 C.3     1  UNL1        0.0573
     15 C          -1.8734    3.0676   26.7477 C.3     1  UNL1        0.0079
     16 C          -4.1649    4.2909   26.7998 C.3     1  UNL1        0.0079
     17 C           0.0758    2.0601   19.4741 C.3     1  UNL1        0.0898
     18 N           3.1111   -1.2472   19.1594 N.3     1  UNL1       -0.2726
     19 C           2.0809   -1.2758   20.2493 C.3     1  UNL1        0.0721
     20 C           1.0691   -0.1733   20.3542 C.3     1  UNL1        0.0191
     21 C           1.0876    0.9578   19.3692 C.3     1  UNL1        0.0224
     22 C           2.1177    0.9864   18.2793 C.3     1  UNL1        0.0191
     23 C           3.1295   -0.1160   18.1744 C.3     1  UNL1        0.0721
     24 C           4.1228   -2.3496   19.0545 C.3     1  UNL1        0.0747
     25 C           5.5726   -2.0640   19.3127 C.3     1  UNL1        0.0494
     26 C           6.5788   -2.2390   18.2141 C.3     1  UNL1        0.1437
     27 C           6.8671    0.2322   17.4657 C.3     1  UNL1        0.1741
     28 O           6.6823   -1.2161   17.1219 O.3     1  UNL1       -0.3511
@<TRIPOS>BOND
     1    27    28    1
     2    28    26    1
     3    26    25    1
     4    25    24    1
     5    24    18    1
     6    18    19    1
     7    19    20    1
     8    20    21    1
     9    21    17    1
    10    17     1    1
    11     1     2   am
    12     2     3    2
    13     2     5    1
    14     5     6   ar
    15     6     7   ar
    16     7    14    1
    17    14    15    1
    18    14    16    1
    19     7     8   ar
    20     8     9   ar
    21     9    10   ar
    22    10    11   ar
    23    11    12   ar
    24    12    13   ar
    25    21    22    1
    26    22    23    1
    27    23    18    1
    28    13     5   ar
    29    13     8   ar
    30     1     4    1
@<TRIPOS>MOLECULE
*****
 28 30 0 0 0
SMALL
GASTEIGER

@<TRIPOS>ATOM
      1 N           1.8601    1.8320   21.2193 N.am    1  UNL1       -0.2996
      2 C           1.5378    0.5185   20.5703 C.2     1  UNL1        0.2651
      3 O           0.1127    0.0618   20.4691 O.2     1  UNL1       -0.2684
      4 H           2.7955    2.1318   21.2857 H       1  UNL1        0.1498
      5 C           2.6407   -0.3381   20.0227 C.ar    1  UNL1        0.1517
      6 N           2.8586   -1.7919   20.3207 N.ar    1  UNL1       -0.2260
      7 C           4.0719   -2.2435   19.5631 C.ar    1  UNL1        0.1239
      8 N           4.6039   -1.0688   18.7969 N.ar    1  UNL1       -0.2921
      9 C           5.7794   -0.9193   17.8773 C.ar    1  UNL1        0.0811
     10 C           6.0704    0.4078   17.2417 C.ar    1  UNL1        0.0191
     11 C           5.1858    1.5855   17.5258 C.ar    1  UNL1        0.0031
     12 C           4.0103    1.4360   18.4454 C.ar    1  UNL1        0.0193
     13 C           3.7193    0.1089   19.0810 C.ar    1  UNL1        0.0872
     14 C           4.6516   -3.6270   19.5704 C.3     1  UNL1        0.0573
     15 C           6.0209   -3.8635   20.1354 C.3     1  UNL1        0.0079
     16 C           3.8621   -4.7739   19.0127 C.3     1  UNL1        0.0079
     17 C           0.7572    2.6886   21.7669 C.3     1  UNL1        0.0898
     18 N          -0.7143    2.0459   25.9707 N.3     1  UNL1       -0.2726
     19 C           0.4905    1.3019   25.4758 C.3     1  UNL1        0.0721
     20 C           0.9810    1.5162   24.0745 C.3     1  UNL1        0.0191
     21 C           0.2667    2.4744   23.1681 C.3     1  UNL1        0.0224
     22 C          -0.9381    3.2184   23.6630 C.3     1  UNL1        0.0191
     23 C          -1.4286    3.0041   25.0642 C.3     1  UNL1        0.0721
     24 C          -1.2048    1.8317   27.3719 C.3     1  UNL1        0.0747
     25 C          -0.2395    1.4472   28.4538 C.3     1  UNL1        0.0494
     26 C          -0.1359    0.0166   28.8927 C.3     1  UNL1        0.1437
     27 C           2.3884   -0.3856   29.3575 C.3     1  UNL1        0.1741
     28 O           0.9627   -0.4048   29.8231 O.3     1  UNL1       -0.3511
@<TRIPOS>BOND
     1    27    28    1
     2    28    26    1
     3    26    25    1
     4    25    24    1
     5    24    18    1
     6    18    19    1
     7    19    20    1
     8    20    21    1
     9    21    17    1
    10    17     1    1
    11     1     2   am
    12     2     3    2
    13     2     5    1
    14     5     6   ar
    15     6     7   ar
    16     7    14    1
    17    14    15    1
    18    14    16    1
    19     7     8   ar
    20     8     9   ar
    21     9    10   ar
    22    10    11   ar
    23    11    12   ar
    24    12    13   ar
    25    21    22    1
    26    22    23    1
    27    23    18    1
    28    13     5   ar
    29    13     8   ar
    30     1     4    1
@<TRIPOS>MOLECULE
*****
 28 30 0 0 0
SMALL
GASTEIGER

@<TRIPOS>ATOM
      1 N          -0.3946    1.7271   21.1061 N.am    1  UNL1       -0.2996
      2 C          -0.8775    3.0753   21.5529 C.2     1  UNL1        0.2651
      3 O          -0.8350    4.2384   20.6067 O.2     1  UNL1       -0.2684
      4 H          -0.4225    0.9637   21.7271 H       1  UNL1        0.1498
      5 C          -1.4027    3.2601   22.9457 C.ar    1  UNL1        0.1517
      6 N          -0.5886    3.2371   24.2053 N.ar    1  UNL1       -0.2260
      7 C          -1.5171    3.4632   25.3615 C.ar    1  UNL1        0.1239
      8 N          -2.9051    3.6260   24.8164 N.ar    1  UNL1       -0.2921
      9 C          -4.2241    3.8723   25.4868 C.ar    1  UNL1        0.0811
     10 C          -5.4725    3.9930   24.6640 C.ar    1  UNL1        0.0191
     11 C          -5.4018    3.8675   23.1710 C.ar    1  UNL1        0.0031
     12 C          -4.0828    3.6212   22.5006 C.ar    1  UNL1        0.0193
     13 C          -2.8344    3.5005   23.3234 C.ar    1  UNL1        0.0872
     14 C          -1.1263    3.5171   26.8087 C.3     1  UNL1        0.0573
     15 C          -0.9374    4.8423   27.4857 C.3     1  UNL1        0.0079
     16 C          -0.9242    2.2460   27.5788 C.3     1  UNL1        0.0079
     17 C           0.1306    1.5423   19.7133 C.3     1  UNL1        0.0898
     18 N           3.4587   -1.3847   18.9341 N.3     1  UNL1       -0.2726
     19 C           2.5868   -1.5451   20.1441 C.3     1  UNL1        0.0721
     20 C           1.4774   -0.5693   20.4038 C.3     1  UNL1        0.0191
     21 C           1.2400    0.5667   19.4535 C.3     1  UNL1        0.0224
     22 C           2.1118    0.7270   18.2435 C.3     1  UNL1        0.0191
     23 C           3.2211   -0.2487   17.9838 C.3     1  UNL1        0.0721
     24 C           4.5680   -2.3603   18.6743 C.3     1  UNL1        0.0747
     25 C           4.2797   -3.8320   18.6399 C.3     1  UNL1        0.0494
     26 C           4.0756   -4.5864   19.9202 C.3     1  UNL1        0.1437
     27 C           4.6829   -3.6997   22.2855 C.3     1  UNL1        0.1741
     28 O           5.0632   -4.4443   21.0402 O.3     1  UNL1       -0.3511
@<TRIPOS>BOND
     1    27    28    1
     2    28    26    1
     3    26    25    1
     4    25    24    1
     5    24    18    1
     6    18    19    1
     7    19    20    1
     8    20    21    1
     9    21    17    1
    10    17     1    1
    11     1     2   am
    12     2     3    2
    13     2     5    1
    14     5     6   ar
    15     6     7   ar
    16     7    14    1
    17    14    15    1
    18    14    16    1
    19     7     8   ar
    20     8     9   ar
    21     9    10   ar
    22    10    11   ar
    23    11    12   ar
    24    12    13   ar
    25    21    22    1
    26    22    23    1
    27    23    18    1
    28    13     5   ar
    29    13     8   ar
    30     1     4    1
@<TRIPOS>MOLECULE
*****
 28 30 0 0 0
SMALL
GASTEIGER

@<TRIPOS>ATOM
      1 N           5.4656   -0.2238   32.6407 N.am    1  UNL1       -0.2996
      2 C           4.0416   -0.6930   32.6892 C.2     1  UNL1        0.2651
      3 O           3.6815   -1.9160   33.4793 O.2     1  UNL1       -0.2684
      4 H           5.7020    0.5790   32.1221 H       1  UNL1        0.1498
      5 C           2.9779    0.0610   31.9475 C.ar    1  UNL1        0.1517
      6 N           2.3641   -0.3385   30.6385 N.ar    1  UNL1       -0.2260
      7 C           1.3481    0.7004   30.2667 C.ar    1  UNL1        0.1239
      8 N           1.3339    1.7421   31.3459 N.ar    1  UNL1       -0.2921
      9 C           0.5340    2.9994   31.5169 C.ar    1  UNL1        0.0811
     10 C           0.7413    3.8615   32.7268 C.ar    1  UNL1        0.0191
     11 C           1.7486    3.4663   33.7656 C.ar    1  UNL1        0.0031
     12 C           2.5485    2.2090   33.5946 C.ar    1  UNL1        0.0193
     13 C           2.3412    1.3469   32.3848 C.ar    1  UNL1        0.0872
     14 C           0.4958    0.6982   29.0323 C.3     1  UNL1        0.0573
     15 C          -0.5907   -0.3238   28.8729 C.3     1  UNL1        0.0079
     16 C           0.7299    1.7178   27.9574 C.3     1  UNL1        0.0079
     17 C           6.5293   -0.9778   33.3823 C.3     1  UNL1        0.0898
     18 N           8.7667   -4.3056   31.3403 N.3     1  UNL1       -0.2726
     19 C           7.2717   -4.3623   31.4475 C.3     1  UNL1        0.0721
     20 C           6.5258   -3.2530   32.1282 C.3     1  UNL1        0.0191
     21 C           7.2751   -2.0870   32.7017 C.3     1  UNL1        0.0224
     22 C           8.7702   -2.0302   32.5945 C.3     1  UNL1        0.0191
     23 C           9.5160   -3.1395   31.9138 C.3     1  UNL1        0.0721
     24 C           9.5126   -5.4148   30.6596 C.3     1  UNL1        0.0747
     25 C           8.7831   -6.6493   30.2195 C.3     1  UNL1        0.0494
     26 C           8.3341   -6.7874   28.7950 C.3     1  UNL1        0.1437
     27 C           6.7060   -6.1356   26.8781 C.3     1  UNL1        0.1741
     28 O           7.2104   -5.9395   28.2771 O.3     1  UNL1       -0.3511
@<TRIPOS>BOND
     1    27    28    1
     2    28    26    1
     3    26    25    1
     4    25    24    1
     5    24    18    1
     6    18    19    1
     7    19    20    1
     8    20    21    1
     9    21    17    1
    10    17     1    1
    11     1     2   am
    12     2     3    2
    13     2     5    1
    14     5     6   ar
    15     6     7   ar
    16     7    14    1
    17    14    15    1
    18    14    16    1
    19     7     8   ar
    20     8     9   ar
    21     9    10   ar
    22    10    11   ar
    23    11    12   ar
    24    12    13   ar
    25    21    22    1
    26    22    23    1
    27    23    18    1
    28    13     5   ar
    29    13     8   ar
    30     1     4    1
