@<TRIPOS>MOLECULE
*****
 34 37 0 0 0
SMALL
GASTEIGER

@<TRIPOS>ATOM
      1 O           3.0686    3.0320   35.3219 O.2     1  UNL1       -0.2522
      2 C           3.6738    1.7180   34.9256 C.2     1  UNL1        0.3088
      3 N           4.6132    1.0132   35.8586 N.am    1  UNL1       -0.2522
      4 N           3.3395    1.1088   33.5962 N.am    1  UNL1       -0.2633
      5 C           2.4000    1.8136   32.6632 C.3     1  UNL1        0.0993
      6 C           2.0657    1.2044   31.3339 C.3     1  UNL1        0.0436
      7 C           2.6709   -0.1097   30.9376 C.2     1  UNL1       -0.0408
      8 C           2.3366   -0.7189   29.6082 C.2     1  UNL1       -0.0083
      9 C           3.6104   -0.8145   31.8706 C.3     1  UNL1        0.0436
     10 C           3.9447   -0.2053   33.1999 C.3     1  UNL1        0.0993
     11 H           5.0104    0.1507   35.5985 H       1  UNL1        0.1579
     12 C           4.9475    1.6224   37.1880 C.ar    1  UNL1        0.1547
     13 C           3.9837    1.5036   38.3311 C.ar    1  UNL1        0.1333
     14 N           4.3180    2.1128   39.6604 N.ar    1  UNL1       -0.2378
     15 C           5.6162    2.8408   39.8466 C.ar    1  UNL1        0.1196
     16 C           6.5801    2.9596   38.7034 C.ar    1  UNL1        0.1210
     17 N           6.2458    2.3504   37.3742 N.ar    1  UNL1       -0.2257
     18 C           1.3971   -0.0141   28.6752 C.ar    1  UNL1        0.0024
     19 C          -0.0689    0.0416   28.9877 C.ar    1  UNL1        0.0002
     20 C          -1.0084    0.7464   28.0546 C.ar    1  UNL1        0.0031
     21 C          -0.4818    1.3956   26.8091 C.ar    1  UNL1        0.0376
     22 C           0.9842    1.3400   26.4966 C.ar    1  UNL1        0.1472
     23 C           1.9237    0.6351   27.4297 C.ar    1  UNL1        0.0375
     24 O           1.5108    1.9891   25.2512 O.3     1  UNL1       -0.4361
     25 C           1.8159    1.1552   24.0422 C.ar    1  UNL1        0.2297
     26 C           2.7641   -0.0021   24.1492 C.ar    1  UNL1        0.0581
     27 C           3.0692   -0.8361   22.9403 C.ar    1  UNL1        0.0102
     28 C           2.4260   -0.5127   21.6244 C.ar    1  UNL1        0.0907
     29 C           1.4778    0.6447   21.5174 C.ar    1  UNL1        0.1059
     30 N           1.1727    1.4786   22.7263 N.ar    1  UNL1       -0.2099
     31 C           2.7311   -1.3466   20.4154 C.3     1  UNL1        0.4200
     32 F           3.0361   -2.1805   19.2065 F       1  UNL1       -0.1658
     33 F           1.2975   -1.2474   19.9853 F       1  UNL1       -0.1658
     34 F           4.1646   -1.4458   20.8455 F       1  UNL1       -0.1658
@<TRIPOS>BOND
     1     1     2    2
     2     2     3   am
     3     3    12    1
     4    12    13   ar
     5    13    14   ar
     6    14    15   ar
     7    15    16   ar
     8    16    17   ar
     9     2     4   am
    10     4     5    1
    11     5     6    1
    12     6     7    1
    13     7     8    2
    14     8    18    1
    15    18    19   ar
    16    19    20   ar
    17    20    21   ar
    18    21    22   ar
    19    22    24    1
    20    24    25    1
    21    25    26   ar
    22    26    27   ar
    23    27    28   ar
    24    28    31    1
    25    31    32    1
    26    31    33    1
    27    31    34    1
    28    28    29   ar
    29    29    30   ar
    30    22    23   ar
    31     7     9    1
    32     9    10    1
    33    17    12   ar
    34    10     4    1
    35    23    18   ar
    36    30    25   ar
    37     3    11    1
@<TRIPOS>MOLECULE
*****
 34 37 0 0 0
SMALL
GASTEIGER

@<TRIPOS>ATOM
      1 O           2.6394   -0.5534   27.8182 O.2     1  UNL1       -0.2522
      2 C           2.4358    0.5940   26.8738 C.2     1  UNL1        0.3088
      3 N           1.9256    1.9074   27.3882 N.am    1  UNL1       -0.2522
      4 N           2.7426    0.4280   25.4148 N.am    1  UNL1       -0.2633
      5 C           3.2528   -0.8853   24.9004 C.3     1  UNL1        0.0993
      6 C           3.5595   -1.0513   23.4415 C.3     1  UNL1        0.0436
      7 C           3.3560    0.0962   22.4971 C.2     1  UNL1       -0.0408
      8 C           3.6627   -0.0698   21.0382 C.2     1  UNL1       -0.0083
      9 C           2.8457    1.4095   23.0115 C.3     1  UNL1        0.0436
     10 C           2.5390    1.5755   24.4704 C.3     1  UNL1        0.0993
     11 H           1.7920    2.6605   26.7684 H       1  UNL1        0.1579
     12 C           1.6188    2.0733   28.8472 C.ar    1  UNL1        0.1547
     13 C           0.4433    1.3645   29.4518 C.ar    1  UNL1        0.1333
     14 N           0.1366    1.5305   30.9107 N.ar    1  UNL1       -0.2378
     15 C           1.0055    2.4053   31.7649 C.ar    1  UNL1        0.1196
     16 C           2.1810    3.1142   31.1603 C.ar    1  UNL1        0.1210
     17 N           2.4877    2.9482   29.7014 N.ar    1  UNL1       -0.2257
     18 C           4.1730   -1.3832   20.5237 C.ar    1  UNL1        0.0024
     19 C           3.2801   -2.2647   19.7017 C.ar    1  UNL1        0.0002
     20 C           3.7903   -3.5780   19.1873 C.ar    1  UNL1        0.0031
     21 C           5.1935   -4.0099   19.4949 C.ar    1  UNL1        0.0376
     22 C           6.0864   -3.1284   20.3168 C.ar    1  UNL1        0.1472
     23 C           5.5761   -1.8150   20.8313 C.ar    1  UNL1        0.0375
     24 O           7.4896   -3.5603   20.6244 O.3     1  UNL1       -0.4361
     25 C           7.7469   -4.5435   21.7277 C.ar    1  UNL1        0.2297
     26 C           7.1569   -4.3158   23.0878 C.ar    1  UNL1        0.0581
     27 C           7.4143   -5.2990   24.1911 C.ar    1  UNL1        0.0102
     28 C           8.2616   -6.5097   23.9342 C.ar    1  UNL1        0.0907
     29 C           8.8516   -6.7374   22.5740 C.ar    1  UNL1        0.1059
     30 N           8.5943   -5.7542   21.4707 N.ar    1  UNL1       -0.2099
     31 C           8.5189   -7.4929   25.0375 C.3     1  UNL1        0.4200
     32 F           8.7763   -8.4760   26.1407 F       1  UNL1       -0.1658
     33 F           7.5026   -6.7977   25.8940 F       1  UNL1       -0.1658
     34 F           9.5353   -8.1881   24.1809 F       1  UNL1       -0.1658
@<TRIPOS>BOND
     1     1     2    2
     2     2     3   am
     3     3    12    1
     4    12    13   ar
     5    13    14   ar
     6    14    15   ar
     7    15    16   ar
     8    16    17   ar
     9     2     4   am
    10     4     5    1
    11     5     6    1
    12     6     7    1
    13     7     8    2
    14     8    18    1
    15    18    19   ar
    16    19    20   ar
    17    20    21   ar
    18    21    22   ar
    19    22    24    1
    20    24    25    1
    21    25    26   ar
    22    26    27   ar
    23    27    28   ar
    24    28    31    1
    25    31    32    1
    26    31    33    1
    27    31    34    1
    28    28    29   ar
    29    29    30   ar
    30    22    23   ar
    31     7     9    1
    32     9    10    1
    33    17    12   ar
    34    10     4    1
    35    23    18   ar
    36    30    25   ar
    37     3    11    1
@<TRIPOS>MOLECULE
*****
 34 37 0 0 0
SMALL
GASTEIGER

@<TRIPOS>ATOM
      1 O          -5.9866    4.3471   25.0780 O.2     1  UNL1       -0.2522
      2 C          -6.0942    4.0782   23.6062 C.2     1  UNL1        0.3088
      3 N          -7.4358    4.1011   22.9358 N.am    1  UNL1       -0.2522
      4 N          -4.8602    3.7866   22.8048 N.am    1  UNL1       -0.2633
      5 C          -3.5186    3.7637   23.4753 C.3     1  UNL1        0.0993
      6 C          -2.2846    3.4721   22.6739 C.3     1  UNL1        0.0436
      7 C          -2.3922    3.2032   21.2022 C.2     1  UNL1       -0.0408
      8 C          -1.1582    2.9116   20.4008 C.2     1  UNL1       -0.0083
      9 C          -3.7338    3.2261   20.5317 C.3     1  UNL1        0.0436
     10 C          -4.9678    3.5177   21.3331 C.3     1  UNL1        0.0993
     11 H          -7.5065    3.9246   21.9698 H       1  UNL1        0.1579
     12 C          -8.6699    4.3928   23.7371 C.ar    1  UNL1        0.1547
     13 C          -8.8572    5.7440   24.3609 C.ar    1  UNL1        0.1333
     14 N         -10.0912    6.0356   25.1621 N.ar    1  UNL1       -0.2378
     15 C         -11.1379    4.9760   25.3397 C.ar    1  UNL1        0.1196
     16 C         -10.9507    3.6248   24.7159 C.ar    1  UNL1        0.1210
     17 N          -9.7167    3.3332   23.9146 N.ar    1  UNL1       -0.2257
     18 C           0.1834    2.8887   21.0712 C.ar    1  UNL1        0.0024
     19 C           0.9897    4.1490   21.1788 C.ar    1  UNL1        0.0002
     20 C           2.3313    4.1262   21.8492 C.ar    1  UNL1        0.0031
     21 C           2.8667    2.8430   22.4122 C.ar    1  UNL1        0.0376
     22 C           2.0604    1.5827   22.3047 C.ar    1  UNL1        0.1472
     23 C           0.7188    1.6056   21.6342 C.ar    1  UNL1        0.0375
     24 O           2.5958    0.2996   22.8676 O.3     1  UNL1       -0.4361
     25 C           3.0204   -0.8046   21.9453 C.ar    1  UNL1        0.2297
     26 C           3.8551   -1.9371   22.4657 C.ar    1  UNL1        0.0581
     27 C           4.2797   -3.0413   21.5436 C.ar    1  UNL1        0.0102
     28 C           3.8696   -3.0130   20.1010 C.ar    1  UNL1        0.0907
     29 C           3.0349   -1.8806   19.5806 C.ar    1  UNL1        0.1059
     30 N           2.6103   -0.7764   20.5028 N.ar    1  UNL1       -0.2099
     31 C           4.2943   -4.1172   19.1788 C.3     1  UNL1        0.4200
     32 F           4.7189   -5.2214   18.2566 F       1  UNL1       -0.1658
     33 F           5.6831   -3.5519   19.1414 F       1  UNL1       -0.1658
     34 F           2.9054   -4.6826   19.2162 F       1  UNL1       -0.1658
@<TRIPOS>BOND
     1     1     2    2
     2     2     3   am
     3     3    12    1
     4    12    13   ar
     5    13    14   ar
     6    14    15   ar
     7    15    16   ar
     8    16    17   ar
     9     2     4   am
    10     4     5    1
    11     5     6    1
    12     6     7    1
    13     7     8    2
    14     8    18    1
    15    18    19   ar
    16    19    20   ar
    17    20    21   ar
    18    21    22   ar
    19    22    24    1
    20    24    25    1
    21    25    26   ar
    22    26    27   ar
    23    27    28   ar
    24    28    31    1
    25    31    32    1
    26    31    33    1
    27    31    34    1
    28    28    29   ar
    29    29    30   ar
    30    22    23   ar
    31     7     9    1
    32     9    10    1
    33    17    12   ar
    34    10     4    1
    35    23    18   ar
    36    30    25   ar
    37     3    11    1
@<TRIPOS>MOLECULE
*****
 34 37 0 0 0
SMALL
GASTEIGER

@<TRIPOS>ATOM
      1 O           3.2527   -1.6370   27.7095 O.2     1  UNL1       -0.2522
      2 C           3.3634   -0.1604   27.9491 C.2     1  UNL1        0.3088
      3 N           3.8829    0.3497   29.2605 N.am    1  UNL1       -0.2522
      4 N           2.9544    0.8061   26.8773 N.am    1  UNL1       -0.2633
      5 C           2.4348    0.2959   25.5659 C.3     1  UNL1        0.0993
      6 C           2.0259    1.2624   24.4942 C.3     1  UNL1        0.0436
      7 C           2.1365    2.7390   24.7338 C.2     1  UNL1       -0.0408
      8 C           1.7275    3.7055   23.6620 C.2     1  UNL1       -0.0083
      9 C           2.6561    3.2491   26.0452 C.3     1  UNL1        0.0436
     10 C           3.0650    2.2827   27.1169 C.3     1  UNL1        0.0993
     11 H           3.9555    1.3189   29.4178 H       1  UNL1        0.1579
     12 C           4.2919   -0.6167   30.3324 C.ar    1  UNL1        0.1547
     13 C           3.3848   -0.8700   31.4998 C.ar    1  UNL1        0.1333
     14 N           3.7937   -1.8364   32.5715 N.ar    1  UNL1       -0.2378
     15 C           5.1099   -2.5496   32.4759 C.ar    1  UNL1        0.1196
     16 C           6.0170   -2.2963   31.3084 C.ar    1  UNL1        0.1210
     17 N           5.6080   -1.3299   30.2367 N.ar    1  UNL1       -0.2257
     18 C           1.2080    3.1953   22.3506 C.ar    1  UNL1        0.0024
     19 C          -0.2701    3.1303   22.1037 C.ar    1  UNL1        0.0002
     20 C          -0.7897    2.6201   20.7923 C.ar    1  UNL1        0.0031
     21 C           0.1688    2.1750   19.7278 C.ar    1  UNL1        0.0376
     22 C           1.6469    2.2401   19.9747 C.ar    1  UNL1        0.1472
     23 C           2.1665    2.7502   21.2862 C.ar    1  UNL1        0.0375
     24 O           2.6055    1.7950   18.9103 O.3     1  UNL1       -0.4361
     25 C           3.0340    0.3592   18.8396 C.ar    1  UNL1        0.2297
     26 C           2.6011   -0.6059   19.9032 C.ar    1  UNL1        0.0581
     27 C           3.0296   -2.0417   19.8326 C.ar    1  UNL1        0.0102
     28 C           3.8910   -2.5123   18.6984 C.ar    1  UNL1        0.0907
     29 C           4.3240   -1.5472   17.6349 C.ar    1  UNL1        0.1059
     30 N           3.8955   -0.1115   17.7055 N.ar    1  UNL1       -0.2099
     31 C           4.3196   -3.9481   18.6278 C.3     1  UNL1        0.4200
     32 F           4.7481   -5.3838   18.5572 F       1  UNL1       -0.1658
     33 F           2.9253   -4.3811   18.9716 F       1  UNL1       -0.1658
     34 F           5.7139   -3.5150   18.2839 F       1  UNL1       -0.1658
@<TRIPOS>BOND
     1     1     2    2
     2     2     3   am
     3     3    12    1
     4    12    13   ar
     5    13    14   ar
     6    14    15   ar
     7    15    16   ar
     8    16    17   ar
     9     2     4   am
    10     4     5    1
    11     5     6    1
    12     6     7    1
    13     7     8    2
    14     8    18    1
    15    18    19   ar
    16    19    20   ar
    17    20    21   ar
    18    21    22   ar
    19    22    24    1
    20    24    25    1
    21    25    26   ar
    22    26    27   ar
    23    27    28   ar
    24    28    31    1
    25    31    32    1
    26    31    33    1
    27    31    34    1
    28    28    29   ar
    29    29    30   ar
    30    22    23   ar
    31     7     9    1
    32     9    10    1
    33    17    12   ar
    34    10     4    1
    35    23    18   ar
    36    30    25   ar
    37     3    11    1
@<TRIPOS>MOLECULE
*****
 34 37 0 0 0
SMALL
GASTEIGER

@<TRIPOS>ATOM
      1 O           2.9772    0.3646   26.7650 O.2     1  UNL1       -0.2522
      2 C           1.8272    1.0035   26.0443 C.2     1  UNL1        0.3088
      3 N           0.8009    1.7828   26.8119 N.am    1  UNL1       -0.2522
      4 N           1.7036    0.8630   24.5560 N.am    1  UNL1       -0.2633
      5 C           2.7300    0.0837   23.7884 C.3     1  UNL1        0.0993
      6 C           2.6063   -0.0568   22.3001 C.3     1  UNL1        0.0436
      7 C           1.4564    0.5821   21.5795 C.2     1  UNL1       -0.0408
      8 C           1.3328    0.4417   20.0911 C.2     1  UNL1       -0.0083
      9 C           0.4301    1.3615   22.3470 C.3     1  UNL1        0.0436
     10 C           0.5537    1.5019   23.8353 C.3     1  UNL1        0.0993
     11 H           0.0461    2.2022   26.3388 H       1  UNL1        0.1579
     12 C           0.9245    1.9233   28.3002 C.ar    1  UNL1        0.1547
     13 C           0.0220    1.1381   29.2051 C.ar    1  UNL1        0.1333
     14 N           0.1456    1.2786   30.6934 N.ar    1  UNL1       -0.2378
     15 C           1.1717    2.2043   31.2767 C.ar    1  UNL1        0.1196
     16 C           2.0742    2.9895   30.3717 C.ar    1  UNL1        0.1210
     17 N           1.9505    2.8490   28.8835 N.ar    1  UNL1       -0.2257
     18 C           2.3591   -0.3377   19.3236 C.ar    1  UNL1        0.0024
     19 C           2.9150    0.2117   18.0432 C.ar    1  UNL1        0.0002
     20 C           3.9413   -0.5676   17.2757 C.ar    1  UNL1        0.0031
     21 C           4.4119   -1.8965   17.7884 C.ar    1  UNL1        0.0376
     22 C           3.8561   -2.4459   19.0687 C.ar    1  UNL1        0.1472
     23 C           2.8297   -1.6665   19.8363 C.ar    1  UNL1        0.0375
     24 O           4.3266   -3.7746   19.5815 O.3     1  UNL1       -0.4361
     25 C           5.1561   -3.8461   20.8293 C.ar    1  UNL1        0.2297
     26 C           4.5387   -3.5309   22.1594 C.ar    1  UNL1        0.0581
     27 C           5.3681   -3.6023   23.4071 C.ar    1  UNL1        0.0102
     28 C           6.8151   -3.9889   23.3247 C.ar    1  UNL1        0.0907
     29 C           7.4325   -4.3041   21.9945 C.ar    1  UNL1        0.1059
     30 N           6.6031   -4.2327   20.7468 N.ar    1  UNL1       -0.2099
     31 C           7.6446   -4.0603   24.5724 C.3     1  UNL1        0.4200
     32 F           8.4742   -4.1318   25.8201 F       1  UNL1       -0.1658
     33 F           8.8475   -3.6088   23.7985 F       1  UNL1       -0.1658
     34 F           6.4417   -4.5119   25.3464 F       1  UNL1       -0.1658
@<TRIPOS>BOND
     1     1     2    2
     2     2     3   am
     3     3    12    1
     4    12    13   ar
     5    13    14   ar
     6    14    15   ar
     7    15    16   ar
     8    16    17   ar
     9     2     4   am
    10     4     5    1
    11     5     6    1
    12     6     7    1
    13     7     8    2
    14     8    18    1
    15    18    19   ar
    16    19    20   ar
    17    20    21   ar
    18    21    22   ar
    19    22    24    1
    20    24    25    1
    21    25    26   ar
    22    26    27   ar
    23    27    28   ar
    24    28    31    1
    25    31    32    1
    26    31    33    1
    27    31    34    1
    28    28    29   ar
    29    29    30   ar
    30    22    23   ar
    31     7     9    1
    32     9    10    1
    33    17    12   ar
    34    10     4    1
    35    23    18   ar
    36    30    25   ar
    37     3    11    1
@<TRIPOS>MOLECULE
*****
 34 37 0 0 0
SMALL
GASTEIGER

@<TRIPOS>ATOM
      1 O           2.7178    3.9688   30.5493 O.2     1  UNL1       -0.2522
      2 C           1.5679    3.0185   30.3918 C.2     1  UNL1        0.3088
      3 N           0.8232    2.5354   31.6008 N.am    1  UNL1       -0.2522
      4 N           1.1628    2.5514   29.0251 N.am    1  UNL1       -0.2633
      5 C           1.9076    3.0346   27.8160 C.3     1  UNL1        0.0993
      6 C           1.5025    2.5674   26.4494 C.3     1  UNL1        0.0436
      7 C           0.3527    1.6171   26.2919 C.2     1  UNL1       -0.0408
      8 C          -0.0524    1.1500   24.9252 C.2     1  UNL1       -0.0083
      9 C          -0.3921    1.1340   27.5009 C.3     1  UNL1        0.0436
     10 C           0.0130    1.6011   28.8675 C.3     1  UNL1        0.0993
     11 H           0.0685    1.9117   31.4974 H       1  UNL1        0.1579
     12 C           1.2282    3.0025   32.9675 C.ar    1  UNL1        0.1547
     13 C           2.0534    2.1135   33.8500 C.ar    1  UNL1        0.1333
     14 N           2.4584    2.5807   35.2166 N.ar    1  UNL1       -0.2378
     15 C           2.0383    3.9368   35.7007 C.ar    1  UNL1        0.1196
     16 C           1.2132    4.8258   34.8183 C.ar    1  UNL1        0.1210
     17 N           0.8081    4.3587   33.4517 N.ar    1  UNL1       -0.2257
     18 C           0.6923    1.6331   23.7161 C.ar    1  UNL1        0.0024
     19 C           0.0854    2.6805   22.8303 C.ar    1  UNL1        0.0002
     20 C           0.8302    3.1637   21.6213 C.ar    1  UNL1        0.0031
     21 C           2.1819    2.5994   21.2980 C.ar    1  UNL1        0.0376
     22 C           2.7889    1.5521   22.1838 C.ar    1  UNL1        0.1472
     23 C           2.0440    1.0689   23.3929 C.ar    1  UNL1        0.0375
     24 O           4.1405    0.9878   21.8605 O.3     1  UNL1       -0.4361
     25 C           4.2532   -0.3118   21.1200 C.ar    1  UNL1        0.2297
     26 C           3.0142   -1.0434   20.6961 C.ar    1  UNL1        0.0581
     27 C           3.1269   -2.3429   19.9556 C.ar    1  UNL1        0.0102
     28 C           4.4786   -2.9110   19.6390 C.ar    1  UNL1        0.0907
     29 C           5.7176   -2.1794   20.0629 C.ar    1  UNL1        0.1059
     30 N           5.6049   -0.8799   20.8034 N.ar    1  UNL1       -0.2099
     31 C           4.5913   -4.2106   18.8985 C.3     1  UNL1        0.4200
     32 F           4.7040   -5.5102   18.1580 F       1  UNL1       -0.1658
     33 F           5.5706   -3.5852   17.9500 F       1  UNL1       -0.1658
     34 F           3.6119   -4.8361   19.8470 F       1  UNL1       -0.1658
@<TRIPOS>BOND
     1     1     2    2
     2     2     3   am
     3     3    12    1
     4    12    13   ar
     5    13    14   ar
     6    14    15   ar
     7    15    16   ar
     8    16    17   ar
     9     2     4   am
    10     4     5    1
    11     5     6    1
    12     6     7    1
    13     7     8    2
    14     8    18    1
    15    18    19   ar
    16    19    20   ar
    17    20    21   ar
    18    21    22   ar
    19    22    24    1
    20    24    25    1
    21    25    26   ar
    22    26    27   ar
    23    27    28   ar
    24    28    31    1
    25    31    32    1
    26    31    33    1
    27    31    34    1
    28    28    29   ar
    29    29    30   ar
    30    22    23   ar
    31     7     9    1
    32     9    10    1
    33    17    12   ar
    34    10     4    1
    35    23    18   ar
    36    30    25   ar
    37     3    11    1
@<TRIPOS>MOLECULE
*****
 34 37 0 0 0
SMALL
GASTEIGER

@<TRIPOS>ATOM
      1 O           2.0157   -0.0212   27.6116 O.2     1  UNL1       -0.2522
      2 C           1.4975    1.2677   28.1774 C.2     1  UNL1        0.3088
      3 N           1.9803    1.7478   29.5139 N.am    1  UNL1       -0.2522
      4 N           0.4965    2.0765   27.4067 N.am    1  UNL1       -0.2633
      5 C           0.0137    1.5963   26.0702 C.3     1  UNL1        0.0993
      6 C          -0.9873    2.4051   25.2996 C.3     1  UNL1        0.0436
      7 C          -1.5054    3.6940   25.8654 C.2     1  UNL1       -0.0408
      8 C          -2.5064    4.5028   25.0947 C.2     1  UNL1       -0.0083
      9 C          -1.0226    4.1741   27.2019 C.3     1  UNL1        0.0436
     10 C          -0.0216    3.3654   27.9726 C.3     1  UNL1        0.0993
     11 H           1.6403    2.5938   29.8853 H       1  UNL1        0.1579
     12 C           2.9814    0.9391   30.2847 C.ar    1  UNL1        0.1547
     13 C           4.4126    1.3828   30.3511 C.ar    1  UNL1        0.1333
     14 N           5.4136    0.5741   31.1218 N.ar    1  UNL1       -0.2378
     15 C           4.9832   -0.6785   31.8260 C.ar    1  UNL1        0.1196
     16 C           3.5519   -1.1222   31.7596 C.ar    1  UNL1        0.1210
     17 N           2.5510   -0.3135   30.9889 N.ar    1  UNL1       -0.2257
     18 C          -2.9892    4.0226   23.7582 C.ar    1  UNL1        0.0024
     19 C          -4.3871    3.4993   23.6095 C.ar    1  UNL1        0.0002
     20 C          -4.8699    3.0191   22.2730 C.ar    1  UNL1        0.0031
     21 C          -3.9548    3.0623   21.0851 C.ar    1  UNL1        0.0376
     22 C          -2.5570    3.5856   21.2339 C.ar    1  UNL1        0.1472
     23 C          -2.0742    4.0658   22.5705 C.ar    1  UNL1        0.0375
     24 O          -1.6420    3.6288   20.0461 O.3     1  UNL1       -0.4361
     25 C          -0.6228    2.5467   19.8447 C.ar    1  UNL1        0.2297
     26 C           0.3469    2.6328   18.7036 C.ar    1  UNL1        0.0581
     27 C           1.3660    1.5508   18.5022 C.ar    1  UNL1        0.0102
     28 C           1.4154    0.3827   19.4419 C.ar    1  UNL1        0.0907
     29 C           0.4457    0.2967   20.5831 C.ar    1  UNL1        0.1059
     30 N          -0.5734    1.3787   20.7845 N.ar    1  UNL1       -0.2099
     31 C           2.4346   -0.6994   19.2405 C.3     1  UNL1        0.4200
     32 F           3.4537   -1.7814   19.0392 F       1  UNL1       -0.1658
     33 F           2.0933   -1.2709   20.5846 F       1  UNL1       -0.1658
     34 F           2.7759   -0.1278   17.8964 F       1  UNL1       -0.1658
@<TRIPOS>BOND
     1     1     2    2
     2     2     3   am
     3     3    12    1
     4    12    13   ar
     5    13    14   ar
     6    14    15   ar
     7    15    16   ar
     8    16    17   ar
     9     2     4   am
    10     4     5    1
    11     5     6    1
    12     6     7    1
    13     7     8    2
    14     8    18    1
    15    18    19   ar
    16    19    20   ar
    17    20    21   ar
    18    21    22   ar
    19    22    24    1
    20    24    25    1
    21    25    26   ar
    22    26    27   ar
    23    27    28   ar
    24    28    31    1
    25    31    32    1
    26    31    33    1
    27    31    34    1
    28    28    29   ar
    29    29    30   ar
    30    22    23   ar
    31     7     9    1
    32     9    10    1
    33    17    12   ar
    34    10     4    1
    35    23    18   ar
    36    30    25   ar
    37     3    11    1
@<TRIPOS>MOLECULE
*****
 34 37 0 0 0
SMALL
GASTEIGER

@<TRIPOS>ATOM
      1 O           2.7826    1.0601   27.3808 O.2     1  UNL1       -0.2522
      2 C           2.3874    0.9607   28.8244 C.2     1  UNL1        0.3088
      3 N           1.1623    1.6721   29.3173 N.am    1  UNL1       -0.2522
      4 N           3.2174    0.1499   29.7751 N.am    1  UNL1       -0.2633
      5 C           4.4425   -0.5615   29.2822 C.3     1  UNL1        0.0993
      6 C           5.2724   -1.3723   30.2328 C.3     1  UNL1        0.0436
      7 C           4.8772   -1.4717   31.6764 C.2     1  UNL1       -0.0408
      8 C           5.7072   -2.2825   32.6271 C.2     1  UNL1       -0.0083
      9 C           3.6522   -0.7603   32.1693 C.3     1  UNL1        0.0436
     10 C           2.8222    0.0505   31.2187 C.3     1  UNL1        0.0993
     11 H           0.9030    1.6069   30.2648 H       1  UNL1        0.1579
     12 C           0.3323    2.4830   28.3667 C.ar    1  UNL1        0.1547
     13 C          -0.8214    1.8478   27.6488 C.ar    1  UNL1        0.1333
     14 N          -1.6514    2.6586   26.6982 N.ar    1  UNL1       -0.2378
     15 C          -1.3276    4.1046   26.4654 C.ar    1  UNL1        0.1196
     16 C          -0.1738    4.7398   27.1833 C.ar    1  UNL1        0.1210
     17 N           0.6561    3.9290   28.1339 N.ar    1  UNL1       -0.2257
     18 C           6.9323   -2.9939   32.1342 C.ar    1  UNL1        0.0024
     19 C           8.2754   -2.3341   32.2377 C.ar    1  UNL1        0.0002
     20 C           9.5005   -3.0455   31.7448 C.ar    1  UNL1        0.0031
     21 C           9.3826   -4.4168   31.1483 C.ar    1  UNL1        0.0376
     22 C           8.0395   -5.0766   31.0447 C.ar    1  UNL1        0.1472
     23 C           6.8143   -4.3651   31.5377 C.ar    1  UNL1        0.0375
     24 O           7.9214   -6.4478   30.4483 O.3     1  UNL1       -0.4361
     25 C           8.0370   -6.6326   28.9641 C.ar    1  UNL1        0.2297
     26 C           7.1167   -5.8892   28.0419 C.ar    1  UNL1        0.0581
     27 C           7.2322   -6.0740   26.5578 C.ar    1  UNL1        0.0102
     28 C           8.2679   -7.0022   25.9960 C.ar    1  UNL1        0.0907
     29 C           9.1882   -7.7455   26.9182 C.ar    1  UNL1        0.1059
     30 N           9.0727   -7.5607   28.4023 N.ar    1  UNL1       -0.2099
     31 C           8.3835   -7.1870   24.5119 C.3     1  UNL1        0.4200
     32 F           8.4989   -7.3718   23.0278 F       1  UNL1       -0.1658
     33 F           7.4078   -6.0682   24.2967 F       1  UNL1       -0.1658
     34 F           9.3591   -8.3058   24.7271 F       1  UNL1       -0.1658
@<TRIPOS>BOND
     1     1     2    2
     2     2     3   am
     3     3    12    1
     4    12    13   ar
     5    13    14   ar
     6    14    15   ar
     7    15    16   ar
     8    16    17   ar
     9     2     4   am
    10     4     5    1
    11     5     6    1
    12     6     7    1
    13     7     8    2
    14     8    18    1
    15    18    19   ar
    16    19    20   ar
    17    20    21   ar
    18    21    22   ar
    19    22    24    1
    20    24    25    1
    21    25    26   ar
    22    26    27   ar
    23    27    28   ar
    24    28    31    1
    25    31    32    1
    26    31    33    1
    27    31    34    1
    28    28    29   ar
    29    29    30   ar
    30    22    23   ar
    31     7     9    1
    32     9    10    1
    33    17    12   ar
    34    10     4    1
    35    23    18   ar
    36    30    25   ar
    37     3    11    1
@<TRIPOS>MOLECULE
*****
 34 37 0 0 0
SMALL
GASTEIGER

@<TRIPOS>ATOM
      1 O           3.2949   -1.4063   22.5257 O.2     1  UNL1       -0.2522
      2 C           4.4082   -1.8722   21.6349 C.2     1  UNL1        0.3088
      3 N           4.4987   -1.3723   20.2236 N.am    1  UNL1       -0.2522
      4 N           5.4312   -2.8380   22.1555 N.am    1  UNL1       -0.2633
      5 C           5.3407   -3.3378   23.5668 C.3     1  UNL1        0.0993
      6 C           6.3636   -4.3036   24.0874 C.3     1  UNL1        0.0436
      7 C           7.4769   -4.7695   23.1966 C.2     1  UNL1       -0.0408
      8 C           8.4998   -5.7353   23.7172 C.2     1  UNL1       -0.0083
      9 C           7.5673   -4.2696   21.7853 C.3     1  UNL1        0.0436
     10 C           6.5444   -3.3039   21.2647 C.3     1  UNL1        0.0993
     11 H           5.2294   -1.6781   19.6389 H       1  UNL1        0.1579
     12 C           3.4757   -0.4065   19.7029 C.ar    1  UNL1        0.1547
     13 C           3.9117    0.9006   19.1104 C.ar    1  UNL1        0.1333
     14 N           2.8888    1.8664   18.5898 N.ar    1  UNL1       -0.2378
     15 C           1.4300    1.5249   18.6618 C.ar    1  UNL1        0.1196
     16 C           0.9940    0.2177   19.2544 C.ar    1  UNL1        0.1210
     17 N           2.0169   -0.7480   19.7749 N.ar    1  UNL1       -0.2257
     18 C           8.4094   -6.2351   25.1285 C.ar    1  UNL1        0.0024
     19 C           7.8952   -7.6172   25.4032 C.ar    1  UNL1        0.0002
     20 C           7.8048   -8.1171   26.8146 C.ar    1  UNL1        0.0031
     21 C           8.2286   -7.2348   27.9513 C.ar    1  UNL1        0.0376
     22 C           8.7428   -5.8527   27.6766 C.ar    1  UNL1        0.1472
     23 C           8.8332   -5.3529   26.2652 C.ar    1  UNL1        0.0375
     24 O           9.1666   -4.9705   28.8133 O.3     1  UNL1       -0.4361
     25 C           8.1326   -4.2836   29.6554 C.ar    1  UNL1        0.2297
     26 C           7.7493   -4.8561   30.9878 C.ar    1  UNL1        0.0581
     27 C           6.7154   -4.1693   31.8299 C.ar    1  UNL1        0.0102
     28 C           6.0647   -2.9099   31.3396 C.ar    1  UNL1        0.0907
     29 C           6.4480   -2.3373   30.0072 C.ar    1  UNL1        0.1059
     30 N           7.4819   -3.0242   29.1651 N.ar    1  UNL1       -0.2099
     31 C           5.0308   -2.2230   32.1817 C.3     1  UNL1        0.4200
     32 F           3.9968   -1.5360   33.0238 F       1  UNL1       -0.1658
     33 F           4.8369   -1.1959   31.1058 F       1  UNL1       -0.1658
     34 F           5.2246   -3.2500   33.2576 F       1  UNL1       -0.1658
@<TRIPOS>BOND
     1     1     2    2
     2     2     3   am
     3     3    12    1
     4    12    13   ar
     5    13    14   ar
     6    14    15   ar
     7    15    16   ar
     8    16    17   ar
     9     2     4   am
    10     4     5    1
    11     5     6    1
    12     6     7    1
    13     7     8    2
    14     8    18    1
    15    18    19   ar
    16    19    20   ar
    17    20    21   ar
    18    21    22   ar
    19    22    24    1
    20    24    25    1
    21    25    26   ar
    22    26    27   ar
    23    27    28   ar
    24    28    31    1
    25    31    32    1
    26    31    33    1
    27    31    34    1
    28    28    29   ar
    29    29    30   ar
    30    22    23   ar
    31     7     9    1
    32     9    10    1
    33    17    12   ar
    34    10     4    1
    35    23    18   ar
    36    30    25   ar
    37     3    11    1
