@<TRIPOS>MOLECULE
*****
 30 33 0 0 0
SMALL
GASTEIGER

@<TRIPOS>ATOM
      1 C          -9.8151  -19.1662   19.4126 C.3     1  UNL1        0.0646
      2 C          -8.7132  -20.1834   19.3768 C.3     1  UNL1        0.0759
      3 C          -4.8693  -19.4153   21.5868 C.3     1  UNL1        0.0087
      4 C          -6.1029  -18.6359   21.9344 C.3     1  UNL1        0.0178
      5 C          -7.3842  -18.8920   21.1977 C.3     1  UNL1        0.0721
      6 N          -7.4319  -19.9274   20.1134 N.3     1  UNL1       -0.2726
      7 C          -6.1983  -20.7067   19.7658 C.3     1  UNL1        0.0721
      8 C          -4.9170  -20.4506   20.5025 C.3     1  UNL1        0.0178
      9 C          -3.5879  -19.1592   22.3234 C.3     1  UNL1        0.0475
     10 C          -0.5347  -17.8197   20.3364 C.ar    1  UNL1        0.1747
     11 N          -1.4241  -18.9476   20.7685 N.ar    1  UNL1       -0.2285
     12 C          -2.4863  -18.3832   21.6647 C.ar    1  UNL1        0.0776
     13 C          -2.2534  -16.9063   21.7864 C.ar    1  UNL1        0.0885
     14 N          -1.0472  -16.5581   20.9655 N.ar    1  UNL1       -0.3340
     15 H          -0.6600  -15.6593   20.8584 H       1  UNL1        0.1675
     16 C         -11.1113  -19.4884   20.0954 C.3     1  UNL1        0.2068
     17 O         -11.6624  -18.5586   21.1355 O.3     1  UNL1       -0.4754
     18 C         -10.7440  -17.9277   22.1397 C.ar    1  UNL1        0.1386
     19 C         -10.4969  -18.6010   23.4572 C.ar    1  UNL1        0.0382
     20 C          -9.5785  -17.9700   24.4613 C.ar    1  UNL1        0.0176
     21 C          -8.9071  -16.6657   24.1480 C.ar    1  UNL1        0.0481
     22 C          -9.1541  -15.9924   22.8306 C.ar    1  UNL1        0.0176
     23 C         -10.0726  -16.6234   21.8264 C.ar    1  UNL1        0.0382
     24 N          -7.9887  -16.0348   25.1522 N.pl3   1  UNL1       -0.3047
     25 C          -8.4792  -15.7469   26.5403 C.3     1  UNL1        0.1079
     26 C          -7.5607  -15.1160   27.5444 C.3     1  UNL1        0.0903
     27 N          -6.1519  -14.7728   27.1606 N.3     1  UNL1       -0.2946
     28 C          -5.6614  -15.0606   25.7726 C.3     1  UNL1        0.0903
     29 C          -6.5798  -15.6916   24.7684 C.3     1  UNL1        0.1079
     30 H          -5.5405  -15.2804   27.8001 H       1  UNL1        0.1233
@<TRIPOS>BOND
     1    10    11   ar
     2    11    12   ar
     3    12     9    1
     4     9     3    1
     5     3     4    1
     6     4     5    1
     7     5     6    1
     8     6     2    1
     9     2     1    1
    10     1    16    1
    11    16    17    1
    12    17    18    1
    13    18    19   ar
    14    19    20   ar
    15    20    21   ar
    16    21    24    1
    17    24    25    1
    18    25    26    1
    19    26    27    1
    20    27    28    1
    21    28    29    1
    22    21    22   ar
    23    22    23   ar
    24     6     7    1
    25     7     8    1
    26    12    13   ar
    27    13    14   ar
    28    14    10   ar
    29     8     3    1
    30    23    18   ar
    31    29    24    1
    32    27    30    1
    33    14    15    1
@<TRIPOS>MOLECULE
*****
 30 33 0 0 0
SMALL
GASTEIGER

@<TRIPOS>ATOM
      1 C         -11.7842  -17.6958   20.1367 C.3     1  UNL1        0.0646
      2 C         -12.2860  -17.8788   21.5384 C.3     1  UNL1        0.0759
      3 C          -9.5402  -17.1384   25.0259 C.3     1  UNL1        0.0087
      4 C         -10.3104  -18.4225   24.9372 C.3     1  UNL1        0.0178
      5 C         -11.2256  -18.6692   23.7747 C.3     1  UNL1        0.0721
      6 N         -11.3707  -17.6319   22.7009 N.3     1  UNL1       -0.2726
      7 C         -10.6005  -16.3478   22.7897 C.3     1  UNL1        0.0721
      8 C          -9.6853  -16.1010   23.9521 C.3     1  UNL1        0.0178
      9 C          -8.6249  -16.8915   26.1884 C.3     1  UNL1        0.0475
     10 C          -5.3982  -15.1075   24.9756 C.ar    1  UNL1        0.1747
     11 N          -6.5891  -15.9814   24.7146 N.ar    1  UNL1       -0.2285
     12 C          -7.3611  -16.1073   25.9946 C.ar    1  UNL1        0.0776
     13 C          -6.6473  -15.3112   27.0466 C.ar    1  UNL1        0.0885
     14 N          -5.4342  -14.6933   26.4169 N.ar    1  UNL1       -0.3340
     15 H          -4.7770  -14.1171   26.8700 H       1  UNL1        0.1675
     16 C         -10.8553  -18.7080   19.5345 C.3     1  UNL1        0.2068
     17 O         -10.1072  -19.6598   20.4200 O.3     1  UNL1       -0.4754
     18 C          -8.6435  -19.4538   20.6750 C.ar    1  UNL1        0.1386
     19 C          -7.6626  -19.5633   19.5453 C.ar    1  UNL1        0.0382
     20 C          -6.1989  -19.3574   19.8003 C.ar    1  UNL1        0.0176
     21 C          -5.7159  -19.0420   21.1849 C.ar    1  UNL1        0.0481
     22 C          -6.6966  -18.9325   22.3146 C.ar    1  UNL1        0.0176
     23 C          -8.1604  -19.1384   22.0597 C.ar    1  UNL1        0.0382
     24 N          -4.2522  -18.8361   21.4399 N.pl3   1  UNL1       -0.3047
     25 C          -3.7964  -18.1920   22.7157 C.3     1  UNL1        0.1079
     26 C          -2.3327  -17.9861   22.9707 C.3     1  UNL1        0.0903
     27 N          -1.3247  -18.4242   21.9499 N.3     1  UNL1       -0.2946
     28 C          -1.7804  -19.0682   20.6742 C.3     1  UNL1        0.0903
     29 C          -3.2442  -19.2742   20.4192 C.3     1  UNL1        0.1079
     30 H          -0.7079  -19.0918   22.4129 H       1  UNL1        0.1233
@<TRIPOS>BOND
     1    10    11   ar
     2    11    12   ar
     3    12     9    1
     4     9     3    1
     5     3     4    1
     6     4     5    1
     7     5     6    1
     8     6     2    1
     9     2     1    1
    10     1    16    1
    11    16    17    1
    12    17    18    1
    13    18    19   ar
    14    19    20   ar
    15    20    21   ar
    16    21    24    1
    17    24    25    1
    18    25    26    1
    19    26    27    1
    20    27    28    1
    21    28    29    1
    22    21    22   ar
    23    22    23   ar
    24     6     7    1
    25     7     8    1
    26    12    13   ar
    27    13    14   ar
    28    14    10   ar
    29     8     3    1
    30    23    18   ar
    31    29    24    1
    32    27    30    1
    33    14    15    1
@<TRIPOS>MOLECULE
*****
 30 33 0 0 0
SMALL
GASTEIGER

@<TRIPOS>ATOM
      1 C         -12.3464  -17.8194   21.4777 C.3     1  UNL1        0.0646
      2 C         -11.7569  -16.4504   21.6455 C.3     1  UNL1        0.0759
      3 C          -7.8299  -15.9381   23.7824 C.3     1  UNL1        0.0087
      4 C          -9.0059  -16.5253   24.5050 C.3     1  UNL1        0.0178
      5 C         -10.3149  -16.6960   23.7927 C.3     1  UNL1        0.0721
      6 N         -10.4478  -16.2796   22.3578 N.3     1  UNL1       -0.2726
      7 C          -9.2718  -15.6925   21.6352 C.3     1  UNL1        0.0721
      8 C          -7.9628  -15.5217   22.3475 C.3     1  UNL1        0.0178
      9 C          -6.5209  -15.7674   24.4947 C.3     1  UNL1        0.0475
     10 C          -3.2974  -15.3942   22.3652 C.ar    1  UNL1        0.1747
     11 N          -4.5522  -14.8210   22.9540 N.ar    1  UNL1       -0.2285
     12 C          -5.2324  -15.9033   23.7389 C.ar    1  UNL1        0.0776
     13 C          -4.3979  -17.1454   23.6351 C.ar    1  UNL1        0.0885
     14 N          -3.2019  -16.8308   22.7862 N.ar    1  UNL1       -0.3340
     15 H          -2.4810  -17.4572   22.5472 H       1  UNL1        0.1675
     16 C         -11.5264  -18.9201   20.8726 C.3     1  UNL1        0.2068
     17 O         -10.5499  -19.6806   21.7200 O.3     1  UNL1       -0.4754
     18 C          -9.0787  -19.5739   21.4480 C.ar    1  UNL1        0.1386
     19 C          -8.5892  -19.3483   20.0481 C.ar    1  UNL1        0.0382
     20 C          -7.1180  -19.2416   19.7760 C.ar    1  UNL1        0.0176
     21 C          -6.1362  -19.3605   20.9038 C.ar    1  UNL1        0.0481
     22 C          -6.6256  -19.5862   22.3036 C.ar    1  UNL1        0.0176
     23 C          -8.0969  -19.6929   22.5757 C.ar    1  UNL1        0.0382
     24 N          -4.6650  -19.2538   20.6318 N.pl3   1  UNL1       -0.3047
     25 C          -4.1729  -18.4250   19.4824 C.3     1  UNL1        0.1079
     26 C          -2.7017  -18.3183   19.2103 C.3     1  UNL1        0.0903
     27 N          -1.7224  -19.0404   20.0876 N.3     1  UNL1       -0.2946
     28 C          -2.2144  -19.8692   21.2370 C.3     1  UNL1        0.0903
     29 C          -3.6857  -19.9759   21.5091 C.3     1  UNL1        0.1079
     30 H          -1.1009  -18.3330   20.4795 H       1  UNL1        0.1233
@<TRIPOS>BOND
     1    10    11   ar
     2    11    12   ar
     3    12     9    1
     4     9     3    1
     5     3     4    1
     6     4     5    1
     7     5     6    1
     8     6     2    1
     9     2     1    1
    10     1    16    1
    11    16    17    1
    12    17    18    1
    13    18    19   ar
    14    19    20   ar
    15    20    21   ar
    16    21    24    1
    17    24    25    1
    18    25    26    1
    19    26    27    1
    20    27    28    1
    21    28    29    1
    22    21    22   ar
    23    22    23   ar
    24     6     7    1
    25     7     8    1
    26    12    13   ar
    27    13    14   ar
    28    14    10   ar
    29     8     3    1
    30    23    18   ar
    31    29    24    1
    32    27    30    1
    33    14    15    1
@<TRIPOS>MOLECULE
*****
 30 33 0 0 0
SMALL
GASTEIGER

@<TRIPOS>ATOM
      1 C          -8.4221  -16.0145   27.5104 C.3     1  UNL1        0.0646
      2 C          -8.9035  -17.3702   27.0856 C.3     1  UNL1        0.0759
      3 C         -10.0743  -18.1023   22.8027 C.3     1  UNL1        0.0087
      4 C         -10.3827  -19.1302   23.8507 C.3     1  UNL1        0.0178
      5 C          -9.9924  -18.8861   25.2783 C.3     1  UNL1        0.0721
      6 N          -9.2938  -17.6142   25.6579 N.3     1  UNL1       -0.2726
      7 C          -8.9854  -16.5863   24.6100 C.3     1  UNL1        0.0721
      8 C          -9.3756  -16.8304   23.1824 C.3     1  UNL1        0.0178
      9 C         -10.4645  -18.3463   21.3750 C.3     1  UNL1        0.0475
     10 C         -11.7886  -15.5815   18.9944 C.ar    1  UNL1        0.1747
     11 N         -10.7044  -16.5170   19.4409 N.ar    1  UNL1       -0.2285
     12 C         -11.2194  -17.2970   20.6140 C.ar    1  UNL1        0.0776
     13 C         -12.6218  -16.8436   20.8926 C.ar    1  UNL1        0.0885
     14 N         -12.9736  -15.7833   19.8916 N.ar    1  UNL1       -0.3340
     15 H         -13.8317  -15.3040   19.8336 H       1  UNL1        0.1675
     16 C          -6.9549  -15.7642   27.6971 C.3     1  UNL1        0.2068
     17 O          -6.2016  -14.9388   26.6965 O.3     1  UNL1       -0.4754
     18 C          -5.4054  -15.6106   25.6175 C.ar    1  UNL1        0.1386
     19 C          -4.5634  -16.8089   25.9422 C.ar    1  UNL1        0.0382
     20 C          -3.7671  -17.4807   24.8631 C.ar    1  UNL1        0.0176
     21 C          -3.8128  -16.9544   23.4592 C.ar    1  UNL1        0.0481
     22 C          -4.6546  -15.7563   23.1344 C.ar    1  UNL1        0.0176
     23 C          -5.4510  -15.0843   24.2136 C.ar    1  UNL1        0.0382
     24 N          -3.0165  -17.6263   22.3802 N.pl3   1  UNL1       -0.3047
     25 C          -3.2256  -19.0832   22.0903 C.3     1  UNL1        0.1079
     26 C          -2.4294  -19.7550   21.0112 C.3     1  UNL1        0.0903
     27 N          -1.4239  -18.9702   20.2219 N.3     1  UNL1       -0.2946
     28 C          -1.2147  -17.5134   20.5117 C.3     1  UNL1        0.0903
     29 C          -2.0110  -16.8414   21.5909 C.3     1  UNL1        0.1079
     30 H          -1.7000  -19.0388   19.2424 H       1  UNL1        0.1233
@<TRIPOS>BOND
     1    10    11   ar
     2    11    12   ar
     3    12     9    1
     4     9     3    1
     5     3     4    1
     6     4     5    1
     7     5     6    1
     8     6     2    1
     9     2     1    1
    10     1    16    1
    11    16    17    1
    12    17    18    1
    13    18    19   ar
    14    19    20   ar
    15    20    21   ar
    16    21    24    1
    17    24    25    1
    18    25    26    1
    19    26    27    1
    20    27    28    1
    21    28    29    1
    22    21    22   ar
    23    22    23   ar
    24     6     7    1
    25     7     8    1
    26    12    13   ar
    27    13    14   ar
    28    14    10   ar
    29     8     3    1
    30    23    18   ar
    31    29    24    1
    32    27    30    1
    33    14    15    1
@<TRIPOS>MOLECULE
*****
 30 33 0 0 0
SMALL
GASTEIGER

@<TRIPOS>ATOM
      1 C          -6.9006  -15.9941   27.3660 C.3     1  UNL1        0.0646
      2 C          -8.3815  -16.2220   27.2973 C.3     1  UNL1        0.0759
      3 C         -10.2464  -17.7675   23.5047 C.3     1  UNL1        0.0087
      4 C          -9.9852  -18.7033   24.6474 C.3     1  UNL1        0.0178
      5 C          -9.3635  -18.1882   25.9116 C.3     1  UNL1        0.0721
      6 N          -9.0032  -16.7372   26.0330 N.3     1  UNL1       -0.2726
      7 C          -9.2644  -15.8013   24.8903 C.3     1  UNL1        0.0721
      8 C          -9.8860  -16.3165   23.6261 C.3     1  UNL1        0.0178
      9 C         -10.8681  -18.2826   22.2404 C.3     1  UNL1        0.0475
     10 C         -11.3986  -15.7845   19.3177 C.ar    1  UNL1        0.1747
     11 N         -10.5081  -16.6654   20.1429 N.ar    1  UNL1       -0.2285
     12 C         -11.3515  -17.3204   21.1962 C.ar    1  UNL1        0.0776
     13 C         -12.7633  -16.8444   21.0220 C.ar    1  UNL1        0.0885
     14 N         -12.7924  -15.8951   19.8610 N.ar    1  UNL1       -0.3340
     15 H         -13.5868  -15.4269   19.5161 H       1  UNL1        0.1675
     16 C          -6.3225  -14.6817   26.9259 C.3     1  UNL1        0.2068
     17 O          -5.2783  -14.6454   25.8496 O.3     1  UNL1       -0.4754
     18 C          -5.2048  -15.7509   24.8385 C.ar    1  UNL1        0.1386
     19 C          -6.3403  -15.9704   23.8832 C.ar    1  UNL1        0.0382
     20 C          -6.2668  -17.0760   22.8721 C.ar    1  UNL1        0.0176
     21 C          -5.0577  -17.9620   22.8162 C.ar    1  UNL1        0.0481
     22 C          -3.9222  -17.7425   23.7713 C.ar    1  UNL1        0.0176
     23 C          -3.9957  -16.6369   24.7825 C.ar    1  UNL1        0.0382
     24 N          -4.9841  -19.0675   21.8050 N.pl3   1  UNL1       -0.3047
     25 C          -6.2065  -19.8776   21.4893 C.3     1  UNL1        0.1079
     26 C          -6.1329  -20.9831   20.4781 C.3     1  UNL1        0.0903
     27 N          -4.8371  -21.2786   19.7828 N.3     1  UNL1       -0.2946
     28 C          -3.6148  -20.4685   20.0985 C.3     1  UNL1        0.0903
     29 C          -3.6883  -19.3629   21.1097 C.3     1  UNL1        0.1079
     30 H          -5.0091  -21.1744   18.7828 H       1  UNL1        0.1233
@<TRIPOS>BOND
     1    10    11   ar
     2    11    12   ar
     3    12     9    1
     4     9     3    1
     5     3     4    1
     6     4     5    1
     7     5     6    1
     8     6     2    1
     9     2     1    1
    10     1    16    1
    11    16    17    1
    12    17    18    1
    13    18    19   ar
    14    19    20   ar
    15    20    21   ar
    16    21    24    1
    17    24    25    1
    18    25    26    1
    19    26    27    1
    20    27    28    1
    21    28    29    1
    22    21    22   ar
    23    22    23   ar
    24     6     7    1
    25     7     8    1
    26    12    13   ar
    27    13    14   ar
    28    14    10   ar
    29     8     3    1
    30    23    18   ar
    31    29    24    1
    32    27    30    1
    33    14    15    1
@<TRIPOS>MOLECULE
*****
 30 33 0 0 0
SMALL
GASTEIGER

@<TRIPOS>ATOM
      1 C          -0.4017    3.7258   21.7634 C.3     1  UNL1        0.0646
      2 C          -1.1597    4.1774   22.9764 C.3     1  UNL1        0.0759
      3 C          -0.8901    1.8249   26.8030 C.3     1  UNL1        0.0087
      4 C          -0.1018    1.3952   25.6013 C.3     1  UNL1        0.0178
      5 C          -0.1917    2.1794   24.3258 C.3     1  UNL1        0.0721
      6 N          -1.0699    3.3932   24.2520 N.3     1  UNL1       -0.2726
      7 C          -1.8581    3.8229   25.4536 C.3     1  UNL1        0.0721
      8 C          -1.7682    3.0387   26.7291 C.3     1  UNL1        0.0178
      9 C          -0.8002    1.0407   28.0786 C.3     1  UNL1        0.0475
     10 C           2.3297   -0.0734   30.0855 C.ar    1  UNL1        0.1747
     11 N           0.9212   -0.3004   29.6223 N.ar    1  UNL1       -0.2285
     12 C           0.5263    0.8576   28.7545 C.ar    1  UNL1        0.0776
     13 C           1.6907    1.8003   28.6813 C.ar    1  UNL1        0.0885
     14 N           2.8053    1.2250   29.5039 N.ar    1  UNL1       -0.3340
     15 H           3.6931    1.6286   29.6385 H       1  UNL1        0.1675
     16 C          -1.1203    3.0282   20.6466 C.3     1  UNL1        0.2068
     17 O          -0.9980    1.5415   20.4892 O.3     1  UNL1       -0.4754
     18 C           0.2863    0.9426   19.9976 C.ar    1  UNL1        0.1386
     19 C           1.0806    1.6407   18.9337 C.ar    1  UNL1        0.0382
     20 C           2.3649    1.0418   18.4421 C.ar    1  UNL1        0.0176
     21 C           2.8550   -0.2553   19.0143 C.ar    1  UNL1        0.0481
     22 C           2.0608   -0.9535   20.0781 C.ar    1  UNL1        0.0176
     23 C           0.7764   -0.3545   20.5698 C.ar    1  UNL1        0.0382
     24 N           4.1394   -0.8543   18.5226 N.pl3   1  UNL1       -0.3047
     25 C           4.3692   -2.3323   18.6353 C.3     1  UNL1        0.1079
     26 C           5.6535   -2.9313   18.1436 C.3     1  UNL1        0.0903
     27 N           6.7080   -2.0522   17.5393 N.3     1  UNL1       -0.2946
     28 C           6.4783   -0.5742   17.4267 C.3     1  UNL1        0.0903
     29 C           5.1939    0.0248   17.9183 C.3     1  UNL1        0.1079
     30 H           6.8729   -2.3975   16.5938 H       1  UNL1        0.1233
@<TRIPOS>BOND
     1    10    11   ar
     2    11    12   ar
     3    12     9    1
     4     9     3    1
     5     3     4    1
     6     4     5    1
     7     5     6    1
     8     6     2    1
     9     2     1    1
    10     1    16    1
    11    16    17    1
    12    17    18    1
    13    18    19   ar
    14    19    20   ar
    15    20    21   ar
    16    21    24    1
    17    24    25    1
    18    25    26    1
    19    26    27    1
    20    27    28    1
    21    28    29    1
    22    21    22   ar
    23    22    23   ar
    24     6     7    1
    25     7     8    1
    26    12    13   ar
    27    13    14   ar
    28    14    10   ar
    29     8     3    1
    30    23    18   ar
    31    29    24    1
    32    27    30    1
    33    14    15    1
@<TRIPOS>MOLECULE
*****
 30 33 0 0 0
SMALL
GASTEIGER

@<TRIPOS>ATOM
      1 C           8.0702   -4.2411   21.1650 C.3     1  UNL1        0.0646
      2 C           6.6721   -3.8305   21.5209 C.3     1  UNL1        0.0759
      3 C           4.2200   -1.4341   18.6064 C.3     1  UNL1        0.0087
      4 C           3.6985   -2.7395   19.1297 C.3     1  UNL1        0.0178
      5 C           4.5159   -3.5383   20.1011 C.3     1  UNL1        0.0721
      6 N           5.8547   -3.0317   20.5493 N.3     1  UNL1       -0.2726
      7 C           6.3762   -1.7262   20.0260 C.3     1  UNL1        0.0721
      8 C           5.5588   -0.9275   19.0546 C.3     1  UNL1        0.0178
      9 C           3.4026   -0.6352   17.6348 C.3     1  UNL1        0.0475
     10 C           0.6984    1.9265   18.7254 C.ar    1  UNL1        0.1747
     11 N           1.0875    0.5848   18.1792 N.ar    1  UNL1       -0.2285
     12 C           2.5851    0.5254   18.1190 C.ar    1  UNL1        0.0776
     13 C           3.1216    1.8304   18.6281 C.ar    1  UNL1        0.0885
     14 N           1.9555    2.6964   19.0029 N.ar    1  UNL1       -0.3340
     15 H           2.0064    3.6097   19.3670 H       1  UNL1        0.1675
     16 C           8.7917   -5.2526   22.0054 C.3     1  UNL1        0.2068
     17 O           8.0155   -6.2856   22.7673 O.3     1  UNL1       -0.4754
     18 C           8.0422   -6.2886   24.2670 C.ar    1  UNL1        0.1386
     19 C           7.9633   -4.9943   25.0211 C.ar    1  UNL1        0.0382
     20 C           7.9900   -4.9972   26.5208 C.ar    1  UNL1        0.0176
     21 C           8.0956   -6.2945   27.2665 C.ar    1  UNL1        0.0481
     22 C           8.1745   -7.5887   26.5125 C.ar    1  UNL1        0.0176
     23 C           8.1478   -7.5858   25.0127 C.ar    1  UNL1        0.0382
     24 N           8.1223   -6.2974   28.7663 N.pl3   1  UNL1       -0.3047
     25 C           6.9851   -5.6961   29.5379 C.3     1  UNL1        0.1079
     26 C           7.0118   -5.6991   31.0376 C.3     1  UNL1        0.0903
     27 N           8.1757   -6.3034   31.7658 N.3     1  UNL1       -0.2946
     28 C           9.3129   -6.9046   30.9943 C.3     1  UNL1        0.0903
     29 C           9.2862   -6.9017   29.4945 C.3     1  UNL1        0.1079
     30 H           7.7998   -7.0423   32.3600 H       1  UNL1        0.1233
@<TRIPOS>BOND
     1    10    11   ar
     2    11    12   ar
     3    12     9    1
     4     9     3    1
     5     3     4    1
     6     4     5    1
     7     5     6    1
     8     6     2    1
     9     2     1    1
    10     1    16    1
    11    16    17    1
    12    17    18    1
    13    18    19   ar
    14    19    20   ar
    15    20    21   ar
    16    21    24    1
    17    24    25    1
    18    25    26    1
    19    26    27    1
    20    27    28    1
    21    28    29    1
    22    21    22   ar
    23    22    23   ar
    24     6     7    1
    25     7     8    1
    26    12    13   ar
    27    13    14   ar
    28    14    10   ar
    29     8     3    1
    30    23    18   ar
    31    29    24    1
    32    27    30    1
    33    14    15    1
@<TRIPOS>MOLECULE
*****
 30 33 0 0 0
SMALL
GASTEIGER

@<TRIPOS>ATOM
      1 C          -0.5075    2.8982   19.9149 C.3     1  UNL1        0.0646
      2 C          -1.8656    3.5351   19.9137 C.3     1  UNL1        0.0759
      3 C          -4.3995    3.4380   23.6312 C.3     1  UNL1        0.0087
      4 C          -5.0238    3.1837   22.2912 C.3     1  UNL1        0.0178
      5 C          -4.1791    3.2161   21.0520 C.3     1  UNL1        0.0721
      6 N          -2.7102    3.5027   21.1529 N.3     1  UNL1       -0.2726
      7 C          -2.0860    3.7570   22.4929 C.3     1  UNL1        0.0721
      8 C          -2.9306    3.7246   23.7320 C.3     1  UNL1        0.0178
      9 C          -5.2442    3.4056   24.8704 C.3     1  UNL1        0.0475
     10 C          -5.5217    6.5524   27.1255 C.ar    1  UNL1        0.1747
     11 N          -5.9861    5.7312   25.9594 N.ar    1  UNL1       -0.2285
     12 C          -5.1279    4.5031   25.8861 C.ar    1  UNL1        0.0776
     13 C          -4.1330    4.5654   27.0070 C.ar    1  UNL1        0.0885
     14 N          -4.3763    5.8319   27.7730 N.ar    1  UNL1       -0.3340
     15 H          -3.8728    6.1367   28.5622 H       1  UNL1        0.1675
     16 C           0.2617    2.7695   18.6335 C.3     1  UNL1        0.2068
     17 O           0.5146    1.4139   18.0435 O.3     1  UNL1       -0.4754
     18 C           1.4975    0.4851   18.6924 C.ar    1  UNL1        0.1386
     19 C           1.0960   -0.3060   19.9020 C.ar    1  UNL1        0.0382
     20 C           2.0790   -1.2348   20.5510 C.ar    1  UNL1        0.0176
     21 C           3.4634   -1.3726   19.9903 C.ar    1  UNL1        0.0481
     22 C           3.8649   -0.5816   18.7807 C.ar    1  UNL1        0.0176
     23 C           2.8819    0.3472   18.1317 C.ar    1  UNL1        0.0382
     24 N           4.4463   -2.3014   20.6392 N.pl3   1  UNL1       -0.3047
     25 C           4.3471   -2.5918   22.1075 C.3     1  UNL1        0.1079
     26 C           5.3300   -3.5206   22.7564 C.3     1  UNL1        0.0903
     27 N           6.4122   -4.1590   21.9371 N.3     1  UNL1       -0.2946
     28 C           6.5115   -3.8686   20.4689 C.3     1  UNL1        0.0903
     29 C           5.5285   -2.9398   19.8199 C.3     1  UNL1        0.1079
     30 H           6.2958   -5.1681   22.0305 H       1  UNL1        0.1233
@<TRIPOS>BOND
     1    10    11   ar
     2    11    12   ar
     3    12     9    1
     4     9     3    1
     5     3     4    1
     6     4     5    1
     7     5     6    1
     8     6     2    1
     9     2     1    1
    10     1    16    1
    11    16    17    1
    12    17    18    1
    13    18    19   ar
    14    19    20   ar
    15    20    21   ar
    16    21    24    1
    17    24    25    1
    18    25    26    1
    19    26    27    1
    20    27    28    1
    21    28    29    1
    22    21    22   ar
    23    22    23   ar
    24     6     7    1
    25     7     8    1
    26    12    13   ar
    27    13    14   ar
    28    14    10   ar
    29     8     3    1
    30    23    18   ar
    31    29    24    1
    32    27    30    1
    33    14    15    1
@<TRIPOS>MOLECULE
*****
 30 33 0 0 0
SMALL
GASTEIGER

@<TRIPOS>ATOM
      1 C          -1.1029    4.2323   21.5681 C.3     1  UNL1        0.0646
      2 C           0.1682    4.3697   22.3524 C.3     1  UNL1        0.0759
      3 C           2.4021    0.6954   23.6788 C.3     1  UNL1        0.0087
      4 C           3.0531    1.6728   22.7456 C.3     1  UNL1        0.0178
      5 C           2.3084    2.8975   22.3035 C.3     1  UNL1        0.0721
      6 N           0.9129    3.1449   22.7946 N.3     1  UNL1       -0.2726
      7 C           0.2619    2.1675   23.7278 C.3     1  UNL1        0.0721
      8 C           1.0065    0.9427   24.1699 C.3     1  UNL1        0.0178
      9 C           3.1467   -0.5294   24.1210 C.3     1  UNL1        0.0475
     10 C           6.0423   -1.8318   21.8884 C.ar    1  UNL1        0.1747
     11 N           4.5790   -1.6934   22.1875 N.ar    1  UNL1       -0.2285
     12 C           4.4375   -0.9037   23.4548 C.ar    1  UNL1        0.0776
     13 C           5.8135   -0.5540   23.9391 C.ar    1  UNL1        0.0885
     14 N           6.8053   -1.1276   22.9710 N.ar    1  UNL1       -0.3340
     15 H           7.7850   -1.0546   23.0350 H       1  UNL1        0.1675
     16 C          -1.1309    3.3908   20.3266 C.3     1  UNL1        0.2068
     17 O          -0.9989    1.9001   20.4278 O.3     1  UNL1       -0.4754
     18 C           0.2553    1.2246   19.9582 C.ar    1  UNL1        0.1386
     19 C           1.1382    1.8991   18.9504 C.ar    1  UNL1        0.0382
     20 C           2.3925    1.2236   18.4808 C.ar    1  UNL1        0.0176
     21 C           2.7639   -0.1264   19.0190 C.ar    1  UNL1        0.0481
     22 C           1.8810   -0.8009   20.0267 C.ar    1  UNL1        0.0176
     23 C           0.6267   -0.1254   20.4964 C.ar    1  UNL1        0.0382
     24 N           4.0181   -0.8018   18.5494 N.pl3   1  UNL1       -0.3047
     25 C           4.1445   -2.2940   18.6375 C.3     1  UNL1        0.1079
     26 C           5.3987   -2.9694   18.1679 C.3     1  UNL1        0.0903
     27 N           6.5266   -2.1529   17.6102 N.3     1  UNL1       -0.2946
     28 C           6.4003   -0.6608   17.5220 C.3     1  UNL1        0.0903
     29 C           5.1460    0.0147   17.9917 C.3     1  UNL1        0.1079
     30 H           6.6942   -2.4907   16.6624 H       1  UNL1        0.1233
@<TRIPOS>BOND
     1    10    11   ar
     2    11    12   ar
     3    12     9    1
     4     9     3    1
     5     3     4    1
     6     4     5    1
     7     5     6    1
     8     6     2    1
     9     2     1    1
    10     1    16    1
    11    16    17    1
    12    17    18    1
    13    18    19   ar
    14    19    20   ar
    15    20    21   ar
    16    21    24    1
    17    24    25    1
    18    25    26    1
    19    26    27    1
    20    27    28    1
    21    28    29    1
    22    21    22   ar
    23    22    23   ar
    24     6     7    1
    25     7     8    1
    26    12    13   ar
    27    13    14   ar
    28    14    10   ar
    29     8     3    1
    30    23    18   ar
    31    29    24    1
    32    27    30    1
    33    14    15    1
