@<TRIPOS>MOLECULE
*****
 41 44 0 0 0
SMALL
GASTEIGER

@<TRIPOS>ATOM
      1 N          -9.3810  -17.8306   25.2951 N.am    1  UNL1       -0.2683
      2 C          -8.4481  -16.6722   25.4891 C.2     1  UNL1        0.3044
      3 O          -8.7616  -15.3442   24.8660 O.2     1  UNL1       -0.2525
      4 N          -7.2017  -16.8416   26.3062 N.am    1  UNL1       -0.2902
      5 H          -9.1752  -18.7022   25.7040 H       1  UNL1        0.1564
      6 H          -6.9959  -17.7132   26.7151 H       1  UNL1        0.1509
      7 C         -13.1927  -17.9632   24.1980 C.ar    1  UNL1       -0.0212
      8 C         -11.9462  -18.1327   25.0150 C.ar    1  UNL1        0.0104
      9 C         -10.6275  -17.6611   24.4780 C.ar    1  UNL1        0.0514
     10 C         -10.5552  -17.0199   23.1239 C.ar    1  UNL1        0.0178
     11 C         -11.8016  -16.8504   22.3068 C.ar    1  UNL1        0.0383
     12 C         -13.1203  -17.3220   22.8439 C.ar    1  UNL1       -0.0011
     13 C         -11.7293  -16.2092   20.9526 C.ar    1  UNL1        0.1839
     14 N         -12.8326  -16.1667   19.9372 N.ar    1  UNL1       -0.1081
     15 N         -12.3263  -15.4291   18.7332 N.ar    1  UNL1       -0.0227
     16 N         -10.9100  -15.0158   19.0045 N.ar    1  UNL1       -0.0429
     17 N         -10.5411  -15.4979   20.3762 N.ar    1  UNL1       -0.2113
     18 C          -9.2166  -15.3030   21.0526 C.3     1  UNL1        0.1573
     19 C         -15.6417  -18.7308   23.7944 C.3     1  UNL1        0.0047
     20 C         -14.5114  -18.4349   24.7350 C.3     1  UNL1        0.0224
     21 C         -14.6999  -18.6106   26.2127 C.3     1  UNL1        0.0047
     22 C          -6.2687  -15.6832   26.5002 C.3     1  UNL1        0.0770
     23 C          -6.5256  -14.6883   27.5931 C.3     1  UNL1        0.0214
     24 C          -5.0791  -15.5196   25.6014 C.3     1  UNL1        0.0661
     25 C          -5.2367  -15.6572   24.1161 C.3     1  UNL1        0.1738
     26 O          -5.9662  -14.6023   23.3384 O.3     1  UNL1       -0.3697
     27 H          -5.9776  -14.8431   22.3988 H       1  UNL1        0.2119
     28 N          -4.6647  -16.8498   23.4085 N.3     1  UNL1       -0.2511
     29 C          -3.1936  -16.9185   23.1236 C.3     1  UNL1        0.0742
     30 C          -2.6217  -18.1111   22.4161 C.3     1  UNL1        0.0175
     31 C          -3.5208  -19.2349   21.9933 C.3     1  UNL1        0.0031
     32 C          -4.9919  -19.1661   22.2782 C.3     1  UNL1        0.0205
     33 C          -5.5638  -17.9735   22.9858 C.3     1  UNL1        0.0745
     34 C          -5.8910  -20.2899   21.8555 C.3     1  UNL1        0.0277
     35 C          -7.2035  -19.9918   21.1933 C.ar    1  UNL1       -0.0220
     36 C          -8.4519  -19.8828   22.0178 C.ar    1  UNL1       -0.0020
     37 C          -9.7644  -19.5847   21.3556 C.ar    1  UNL1        0.0293
     38 C          -9.8285  -19.3955   19.8689 C.ar    1  UNL1        0.1401
     39 F         -11.1411  -19.0974   19.2067 F       1  UNL1       -0.2042
     40 C          -8.5802  -19.5045   19.0445 C.ar    1  UNL1        0.0293
     41 C          -7.2676  -19.8026   19.7067 C.ar    1  UNL1       -0.0020
@<TRIPOS>BOND
     1    19    20    1
     2    20    21    1
     3    20     7    1
     4     7     8   ar
     5     8     9   ar
     6     9     1    1
     7     1     2   am
     8     2     3    2
     9     2     4   am
    10     4    22    1
    11    22    23    1
    12    22    24    1
    13    24    25    1
    14    25    26    1
    15    25    28    1
    16    28    29    1
    17    29    30    1
    18    30    31    1
    19    31    32    1
    20    32    34    1
    21    34    35    1
    22    35    36   ar
    23    36    37   ar
    24    37    38   ar
    25    38    39    1
    26    38    40   ar
    27    40    41   ar
    28    32    33    1
    29     9    10   ar
    30    10    11   ar
    31    11    13    1
    32    13    14   ar
    33    14    15   ar
    34    15    16   ar
    35    16    17   ar
    36    17    18    1
    37    11    12   ar
    38    12     7   ar
    39    33    28    1
    40    17    13   ar
    41    41    35   ar
    42     1     5    1
    43     4     6    1
    44    26    27    1
@<TRIPOS>MOLECULE
*****
 41 44 0 0 0
SMALL
GASTEIGER

@<TRIPOS>ATOM
      1 N           4.8211   -3.0164   32.5992 N.am    1  UNL1       -0.2683
      2 C           6.0845   -3.1870   31.8088 C.2     1  UNL1        0.3044
      3 O           6.9910   -2.0137   31.5812 O.2     1  UNL1       -0.2525
      4 N           6.4414   -4.5308   31.2460 N.am    1  UNL1       -0.2902
      5 H           4.2261   -3.7865   32.7486 H       1  UNL1        0.1564
      6 H           5.8464   -5.3008   31.3953 H       1  UNL1        0.1509
      7 C           4.5375    0.0409   35.1136 C.ar    1  UNL1       -0.0212
      8 C           4.8943   -1.3029   34.5508 C.ar    1  UNL1        0.0104
      9 C           4.4643   -1.6726   33.1621 C.ar    1  UNL1        0.0514
     10 C           3.6774   -0.6985   32.3363 C.ar    1  UNL1        0.0178
     11 C           3.3206    0.6453   32.8992 C.ar    1  UNL1        0.0383
     12 C           3.7506    1.0150   34.2878 C.ar    1  UNL1       -0.0011
     13 C           2.5337    1.6195   32.0734 C.ar    1  UNL1        0.1839
     14 N           1.0399    1.6599   31.9429 N.ar    1  UNL1       -0.1081
     15 N           0.6854    2.7896   31.0220 N.ar    1  UNL1       -0.0227
     16 N           1.9602    3.4474   30.5833 N.ar    1  UNL1       -0.0429
     17 N           3.1024    2.7242   31.2331 N.ar    1  UNL1       -0.2113
     18 C           4.5579    3.0489   31.0711 C.3     1  UNL1        0.1573
     19 C           3.9567    0.9067   37.4934 C.3     1  UNL1        0.0047
     20 C           4.9675    0.4106   36.5023 C.3     1  UNL1        0.0224
     21 C           6.4083    0.2842   36.8999 C.3     1  UNL1        0.0047
     22 C           7.7047   -4.7014   30.4555 C.3     1  UNL1        0.0770
     23 C           8.9398   -5.2326   31.1209 C.3     1  UNL1        0.0214
     24 C           7.7332   -4.3407   28.9998 C.3     1  UNL1        0.0661
     25 C           6.4599   -4.3210   28.2070 C.3     1  UNL1        0.1738
     26 O           5.6213   -5.5603   28.1040 O.3     1  UNL1       -0.3697
     27 H           4.8394   -5.3773   27.5599 H       1  UNL1        0.2119
     28 N           6.0254   -3.0618   27.5173 N.3     1  UNL1       -0.2511
     29 C           6.2632   -2.8921   26.0461 C.3     1  UNL1        0.0742
     30 C           5.8286   -1.6329   25.3565 C.3     1  UNL1        0.0175
     31 C           5.1562   -0.5434   26.1381 C.3     1  UNL1        0.0031
     32 C           4.9184   -0.7131   27.6093 C.3     1  UNL1        0.0205
     33 C           5.3529   -1.9723   28.2989 C.3     1  UNL1        0.0745
     34 C           4.2459    0.3763   28.3909 C.3     1  UNL1        0.0277
     35 C           2.7594    0.5554   28.3018 C.ar    1  UNL1       -0.0220
     36 C           1.8457   -0.3828   29.0333 C.ar    1  UNL1       -0.0020
     37 C           0.3591   -0.2037   28.9442 C.ar    1  UNL1        0.0293
     38 C          -0.2139    0.9135   28.1235 C.ar    1  UNL1        0.1401
     39 F          -1.7005    1.0925   28.0344 F       1  UNL1       -0.2042
     40 C           0.6997    1.8516   27.3920 C.ar    1  UNL1        0.0293
     41 C           2.1864    1.6726   27.4811 C.ar    1  UNL1       -0.0020
@<TRIPOS>BOND
     1    19    20    1
     2    20    21    1
     3    20     7    1
     4     7     8   ar
     5     8     9   ar
     6     9     1    1
     7     1     2   am
     8     2     3    2
     9     2     4   am
    10     4    22    1
    11    22    23    1
    12    22    24    1
    13    24    25    1
    14    25    26    1
    15    25    28    1
    16    28    29    1
    17    29    30    1
    18    30    31    1
    19    31    32    1
    20    32    34    1
    21    34    35    1
    22    35    36   ar
    23    36    37   ar
    24    37    38   ar
    25    38    39    1
    26    38    40   ar
    27    40    41   ar
    28    32    33    1
    29     9    10   ar
    30    10    11   ar
    31    11    13    1
    32    13    14   ar
    33    14    15   ar
    34    15    16   ar
    35    16    17   ar
    36    17    18    1
    37    11    12   ar
    38    12     7   ar
    39    33    28    1
    40    17    13   ar
    41    41    35   ar
    42     1     5    1
    43     4     6    1
    44    26    27    1
@<TRIPOS>MOLECULE
*****
 41 44 0 0 0
SMALL
GASTEIGER

@<TRIPOS>ATOM
      1 N           0.3155    0.2121   20.5750 N.am    1  UNL1       -0.2683
      2 C           0.0165    1.6814   20.5334 C.2     1  UNL1        0.3044
      3 O           1.1061    2.6764   20.8032 O.2     1  UNL1       -0.2525
      4 N          -1.3720    2.1557   20.2218 N.am    1  UNL1       -0.2902
      5 H          -0.3996   -0.4410   20.3979 H       1  UNL1        0.1564
      6 H          -2.0871    1.5026   20.0447 H       1  UNL1        0.1509
      7 C           3.4983   -0.9866   22.6204 C.ar    1  UNL1       -0.0212
      8 C           2.1098   -0.5123   22.3088 C.ar    1  UNL1        0.0104
      9 C           1.7041   -0.2622   20.8865 C.ar    1  UNL1        0.0514
     10 C           2.6869   -0.4864   19.7758 C.ar    1  UNL1        0.0178
     11 C           4.0754   -0.9606   20.0874 C.ar    1  UNL1        0.0383
     12 C           4.4811   -1.2107   21.5096 C.ar    1  UNL1       -0.0011
     13 C           5.0583   -1.1848   18.9766 C.ar    1  UNL1        0.1839
     14 N           5.6595   -0.1234   18.1036 N.ar    1  UNL1       -0.1081
     15 N           6.5853   -0.7922   17.1313 N.ar    1  UNL1       -0.0227
     16 N           6.5564   -2.2671   17.4034 N.ar    1  UNL1       -0.0429
     17 N           5.6127   -2.5097   18.5438 N.ar    1  UNL1       -0.2113
     18 C           5.2815   -3.8431   19.1458 C.3     1  UNL1        0.1573
     19 C           4.9505   -2.2650   24.3543 C.3     1  UNL1        0.0047
     20 C           3.9039   -1.2367   24.0427 C.3     1  UNL1        0.0224
     21 C           3.2630   -0.4584   25.1533 C.3     1  UNL1        0.0047
     22 C          -1.6709    3.6250   20.1802 C.3     1  UNL1        0.0770
     23 C          -1.2530    4.4421   18.9936 C.3     1  UNL1        0.0214
     24 C          -2.3878    4.2772   21.3250 C.3     1  UNL1        0.0661
     25 C          -3.4463    3.5235   22.0743 C.3     1  UNL1        0.1738
     26 O          -4.3413    2.5645   21.3469 O.3     1  UNL1       -0.3697
     27 H          -4.9643    2.1647   21.9737 H       1  UNL1        0.2119
     28 N          -3.6097    3.7287   23.5513 N.3     1  UNL1       -0.2511
     29 C          -4.9826    3.8005   24.1511 C.3     1  UNL1        0.0742
     30 C          -5.1459    4.0058   25.6280 C.3     1  UNL1        0.0175
     31 C          -3.9364    4.1393   26.5050 C.3     1  UNL1        0.0031
     32 C          -2.5634    4.0675   25.9051 C.3     1  UNL1        0.0205
     33 C          -2.4001    3.8622   24.4283 C.3     1  UNL1        0.0745
     34 C          -1.3539    4.2009   26.7821 C.3     1  UNL1        0.0277
     35 C          -0.5953    2.9779   27.2048 C.ar    1  UNL1       -0.0220
     36 C          -1.3366    1.7380   27.6092 C.ar    1  UNL1       -0.0020
     37 C          -0.5780    0.5150   28.0319 C.ar    1  UNL1        0.0293
     38 C           0.9218    0.5317   28.0503 C.ar    1  UNL1        0.1401
     39 F           1.6803   -0.6914   28.4730 F       1  UNL1       -0.2042
     40 C           1.6630    1.7715   27.6460 C.ar    1  UNL1        0.0293
     41 C           0.9045    2.9946   27.2232 C.ar    1  UNL1       -0.0020
@<TRIPOS>BOND
     1    19    20    1
     2    20    21    1
     3    20     7    1
     4     7     8   ar
     5     8     9   ar
     6     9     1    1
     7     1     2   am
     8     2     3    2
     9     2     4   am
    10     4    22    1
    11    22    23    1
    12    22    24    1
    13    24    25    1
    14    25    26    1
    15    25    28    1
    16    28    29    1
    17    29    30    1
    18    30    31    1
    19    31    32    1
    20    32    34    1
    21    34    35    1
    22    35    36   ar
    23    36    37   ar
    24    37    38   ar
    25    38    39    1
    26    38    40   ar
    27    40    41   ar
    28    32    33    1
    29     9    10   ar
    30    10    11   ar
    31    11    13    1
    32    13    14   ar
    33    14    15   ar
    34    15    16   ar
    35    16    17   ar
    36    17    18    1
    37    11    12   ar
    38    12     7   ar
    39    33    28    1
    40    17    13   ar
    41    41    35   ar
    42     1     5    1
    43     4     6    1
    44    26    27    1
@<TRIPOS>MOLECULE
*****
 41 44 0 0 0
SMALL
GASTEIGER

@<TRIPOS>ATOM
      1 N           5.1392   -3.5336   32.8965 N.am    1  UNL1       -0.2683
      2 C           6.3100   -3.8000   31.9975 C.2     1  UNL1        0.3044
      3 O           6.9650   -2.6675   31.2636 O.2     1  UNL1       -0.2525
      4 N           6.8258   -5.1988   31.8324 N.am    1  UNL1       -0.2902
      5 H           4.7092   -4.2768   33.3782 H       1  UNL1        0.1564
      6 H           6.3959   -5.9420   32.3141 H       1  UNL1        0.1509
      7 C           4.3202   -0.0059   34.5197 C.ar    1  UNL1       -0.0212
      8 C           4.8360   -1.4047   34.3546 C.ar    1  UNL1        0.0104
      9 C           4.6234   -2.1347   33.0616 C.ar    1  UNL1        0.0514
     10 C           3.8950   -1.4659   31.9337 C.ar    1  UNL1        0.0178
     11 C           3.3792   -0.0672   32.0988 C.ar    1  UNL1        0.0383
     12 C           3.5918    0.6629   33.3918 C.ar    1  UNL1       -0.0011
     13 C           2.6508    0.6017   30.9709 C.ar    1  UNL1        0.1839
     14 N           1.2152    1.0362   30.9831 N.ar    1  UNL1       -0.1081
     15 N           0.9072    1.6565   29.6526 N.ar    1  UNL1       -0.0227
     16 N           2.1526    1.6053   28.8180 N.ar    1  UNL1       -0.0429
     17 N           3.2301    0.9534   29.6327 N.ar    1  UNL1       -0.2113
     18 C           4.6396    0.6982   29.1875 C.3     1  UNL1        0.1573
     19 C           3.7769    1.9890   36.0929 C.3     1  UNL1        0.0047
     20 C           4.5328    0.7241   35.8127 C.3     1  UNL1        0.0224
     21 C           5.5013    0.1892   36.8255 C.3     1  UNL1        0.0047
     22 C           7.9966   -5.4652   30.9334 C.3     1  UNL1        0.0770
     23 C           9.3757   -5.0534   31.3561 C.3     1  UNL1        0.0214
     24 C           7.7884   -6.1434   29.6118 C.3     1  UNL1        0.0661
     25 C           7.1860   -5.3850   28.4663 C.3     1  UNL1        0.1738
     26 O           6.2933   -4.2093   28.7320 O.3     1  UNL1       -0.3697
     27 H           5.9910   -3.8359   27.8893 H       1  UNL1        0.2119
     28 N           7.4764   -5.8025   27.0551 N.3     1  UNL1       -0.2511
     29 C           7.6658   -7.2537   26.7262 C.3     1  UNL1        0.0742
     30 C           7.9562   -7.6711   25.3150 C.3     1  UNL1        0.0175
     31 C           8.0572   -6.6373   24.2328 C.3     1  UNL1        0.0031
     32 C           7.8678   -5.1862   24.5618 C.3     1  UNL1        0.0205
     33 C           7.5775   -4.7688   25.9729 C.3     1  UNL1        0.0745
     34 C           7.9689   -4.1524   23.4796 C.3     1  UNL1        0.0277
     35 C           6.8279   -3.9495   22.5273 C.ar    1  UNL1       -0.0220
     36 C           5.4581   -3.6380   23.0535 C.ar    1  UNL1       -0.0020
     37 C           4.3171   -3.4351   22.1013 C.ar    1  UNL1        0.0293
     38 C           4.5457   -3.5437   20.6228 C.ar    1  UNL1        0.1401
     39 F           3.4046   -3.3408   19.6705 F       1  UNL1       -0.2042
     40 C           5.9154   -3.8552   20.0965 C.ar    1  UNL1        0.0293
     41 C           7.0565   -4.0582   21.0488 C.ar    1  UNL1       -0.0020
@<TRIPOS>BOND
     1    19    20    1
     2    20    21    1
     3    20     7    1
     4     7     8   ar
     5     8     9   ar
     6     9     1    1
     7     1     2   am
     8     2     3    2
     9     2     4   am
    10     4    22    1
    11    22    23    1
    12    22    24    1
    13    24    25    1
    14    25    26    1
    15    25    28    1
    16    28    29    1
    17    29    30    1
    18    30    31    1
    19    31    32    1
    20    32    34    1
    21    34    35    1
    22    35    36   ar
    23    36    37   ar
    24    37    38   ar
    25    38    39    1
    26    38    40   ar
    27    40    41   ar
    28    32    33    1
    29     9    10   ar
    30    10    11   ar
    31    11    13    1
    32    13    14   ar
    33    14    15   ar
    34    15    16   ar
    35    16    17   ar
    36    17    18    1
    37    11    12   ar
    38    12     7   ar
    39    33    28    1
    40    17    13   ar
    41    41    35   ar
    42     1     5    1
    43     4     6    1
    44    26    27    1
@<TRIPOS>MOLECULE
*****
 41 44 0 0 0
SMALL
GASTEIGER

@<TRIPOS>ATOM
      1 N          -6.8790  -19.9283   19.8944 N.am    1  UNL1       -0.2683
      2 C          -5.4939  -19.4746   20.2487 C.2     1  UNL1        0.3044
      3 O          -5.2812  -18.5543   21.4140 O.2     1  UNL1       -0.2525
      4 N          -4.3215  -19.9413   19.4378 N.am    1  UNL1       -0.2902
      5 H          -7.0187  -20.5323   19.1297 H       1  UNL1        0.1564
      6 H          -4.4611  -20.5453   18.6730 H       1  UNL1        0.1509
      7 C          -9.4296  -19.5179   22.9072 C.ar    1  UNL1       -0.0212
      8 C          -8.2572  -19.9845   22.0962 C.ar    1  UNL1        0.0104
      9 C          -8.0515  -19.4616   20.7054 C.ar    1  UNL1        0.0514
     10 C          -9.0182  -18.4720   20.1256 C.ar    1  UNL1        0.0178
     11 C         -10.1905  -18.0053   20.9366 C.ar    1  UNL1        0.0383
     12 C         -10.3962  -18.5283   22.3274 C.ar    1  UNL1       -0.0011
     13 C         -11.1573  -17.0157   20.3568 C.ar    1  UNL1        0.1839
     14 N         -10.8882  -16.0895   19.2080 N.ar    1  UNL1       -0.1081
     15 N         -12.1274  -15.2799   18.9652 N.ar    1  UNL1       -0.0227
     16 N         -13.1623  -15.7057   19.9641 N.ar    1  UNL1       -0.0429
     17 N         -12.5627  -16.7784   20.8242 N.ar    1  UNL1       -0.2113
     18 C         -13.2483  -17.4891   21.9533 C.3     1  UNL1        0.1573
     19 C          -9.3134  -21.4707   24.6168 C.3     1  UNL1        0.0047
     20 C          -9.6353  -20.0408   24.2979 C.3     1  UNL1        0.0224
     21 C         -10.1629  -19.1339   25.3698 C.3     1  UNL1        0.0047
     22 C          -2.9363  -19.4876   19.7921 C.3     1  UNL1        0.0770
     23 C          -2.0059  -20.4146   20.5167 C.3     1  UNL1        0.0214
     24 C          -2.4816  -18.1071   19.4218 C.3     1  UNL1        0.0661
     25 C          -1.9474  -17.1849   20.4774 C.3     1  UNL1        0.1738
     26 O          -0.7796  -16.2938   20.1739 O.3     1  UNL1       -0.3697
     27 H          -0.5630  -15.7663   20.9585 H       1  UNL1        0.2119
     28 N          -2.5811  -17.1540   21.8367 N.3     1  UNL1       -0.2511
     29 C          -2.1711  -18.1524   22.8783 C.3     1  UNL1        0.0742
     30 C          -2.8048  -18.1213   24.2375 C.3     1  UNL1        0.0175
     31 C          -3.8485  -17.0919   24.5550 C.3     1  UNL1        0.0031
     32 C          -4.2586  -16.0935   23.5134 C.3     1  UNL1        0.0205
     33 C          -3.6249  -16.1245   22.1543 C.3     1  UNL1        0.0745
     34 C          -5.3023  -15.0641   23.8310 C.3     1  UNL1        0.0277
     35 C          -6.2679  -15.2970   24.9549 C.ar    1  UNL1       -0.0220
     36 C          -7.6796  -15.7083   24.6579 C.ar    1  UNL1       -0.0020
     37 C          -8.6452  -15.9412   25.7818 C.ar    1  UNL1        0.0293
     38 C          -8.1993  -15.7629   27.2029 C.ar    1  UNL1        0.1401
     39 F          -9.1650  -15.9959   28.3268 F       1  UNL1       -0.2042
     40 C          -6.7877  -15.3517   27.5000 C.ar    1  UNL1        0.0293
     41 C          -5.8220  -15.1187   26.3760 C.ar    1  UNL1       -0.0020
@<TRIPOS>BOND
     1    19    20    1
     2    20    21    1
     3    20     7    1
     4     7     8   ar
     5     8     9   ar
     6     9     1    1
     7     1     2   am
     8     2     3    2
     9     2     4   am
    10     4    22    1
    11    22    23    1
    12    22    24    1
    13    24    25    1
    14    25    26    1
    15    25    28    1
    16    28    29    1
    17    29    30    1
    18    30    31    1
    19    31    32    1
    20    32    34    1
    21    34    35    1
    22    35    36   ar
    23    36    37   ar
    24    37    38   ar
    25    38    39    1
    26    38    40   ar
    27    40    41   ar
    28    32    33    1
    29     9    10   ar
    30    10    11   ar
    31    11    13    1
    32    13    14   ar
    33    14    15   ar
    34    15    16   ar
    35    16    17   ar
    36    17    18    1
    37    11    12   ar
    38    12     7   ar
    39    33    28    1
    40    17    13   ar
    41    41    35   ar
    42     1     5    1
    43     4     6    1
    44    26    27    1
@<TRIPOS>MOLECULE
*****
 41 44 0 0 0
SMALL
GASTEIGER

@<TRIPOS>ATOM
      1 N          -1.4984    4.7459   24.1775 N.am    1  UNL1       -0.2683
      2 C          -2.7789    4.4957   23.4374 C.2     1  UNL1        0.3044
      3 O          -3.2340    3.0897   23.1801 O.2     1  UNL1       -0.2525
      4 N          -3.6042    5.6514   22.9546 N.am    1  UNL1       -0.2902
      5 H          -1.1996    5.6686   24.3463 H       1  UNL1        0.1564
      6 H          -3.3055    6.5742   23.1235 H       1  UNL1        0.1509
      7 C           1.2206    1.8563   24.2629 C.ar    1  UNL1       -0.0212
      8 C           0.3953    3.0120   23.7802 C.ar    1  UNL1        0.0104
      9 C          -0.6730    3.5901   24.6602 C.ar    1  UNL1        0.0514
     10 C          -0.9160    3.0124   26.0230 C.ar    1  UNL1        0.0178
     11 C          -0.0907    1.8566   26.5057 C.ar    1  UNL1        0.0383
     12 C           0.9776    1.2786   25.6256 C.ar    1  UNL1       -0.0011
     13 C          -0.3337    1.2789   27.8685 C.ar    1  UNL1        0.1839
     14 N          -1.0903    0.0193   28.1701 N.ar    1  UNL1       -0.1081
     15 N          -1.0870   -0.1788   29.6569 N.ar    1  UNL1       -0.0227
     16 N          -0.3282    0.9584   30.2743 N.ar    1  UNL1       -0.0429
     17 N           0.1373    1.8593   29.1690 N.ar    1  UNL1       -0.2113
     18 C           0.9339    3.1193   29.3351 C.3     1  UNL1        0.1573
     19 C           2.6106   -0.1850   23.4560 C.3     1  UNL1        0.0047
     20 C           2.2890    1.2782   23.3828 C.3     1  UNL1        0.0224
     21 C           3.0357    2.1634   22.4295 C.3     1  UNL1        0.0047
     22 C          -4.8847    5.4012   22.2146 C.3     1  UNL1        0.0770
     23 C          -6.1943    5.4477   22.9446 C.3     1  UNL1        0.0214
     24 C          -4.8557    5.1046   20.7445 C.3     1  UNL1        0.0661
     25 C          -4.2879    3.8064   20.2524 C.3     1  UNL1        0.1738
     26 O          -4.8014    2.5077   20.7998 O.3     1  UNL1       -0.3697
     27 H          -4.3316    1.7710   20.3786 H       1  UNL1        0.2119
     28 N          -3.2065    3.8069   19.2128 N.3     1  UNL1       -0.2511
     29 C          -3.5523    4.0337   17.7710 C.3     1  UNL1        0.0742
     30 C          -2.4709    4.0342   16.7315 C.3     1  UNL1        0.0175
     31 C          -1.0437    3.8079   17.1339 C.3     1  UNL1        0.0031
     32 C          -0.6979    3.5811   18.5757 C.3     1  UNL1        0.0205
     33 C          -1.7793    3.5806   19.6152 C.3     1  UNL1        0.0745
     34 C           0.7293    3.3548   18.9780 C.3     1  UNL1        0.0277
     35 C           1.2275    1.9614   19.2230 C.ar    1  UNL1       -0.0220
     36 C           0.4083    1.0042   20.0371 C.ar    1  UNL1       -0.0020
     37 C           0.9065   -0.3893   20.2821 C.ar    1  UNL1        0.0293
     38 C           2.2240   -0.8256   19.7131 C.ar    1  UNL1        0.1401
     39 F           2.7222   -2.2191   19.9581 F       1  UNL1       -0.2042
     40 C           3.0433    0.1315   18.8990 C.ar    1  UNL1        0.0293
     41 C           2.5450    1.5250   18.6540 C.ar    1  UNL1       -0.0020
@<TRIPOS>BOND
     1    19    20    1
     2    20    21    1
     3    20     7    1
     4     7     8   ar
     5     8     9   ar
     6     9     1    1
     7     1     2   am
     8     2     3    2
     9     2     4   am
    10     4    22    1
    11    22    23    1
    12    22    24    1
    13    24    25    1
    14    25    26    1
    15    25    28    1
    16    28    29    1
    17    29    30    1
    18    30    31    1
    19    31    32    1
    20    32    34    1
    21    34    35    1
    22    35    36   ar
    23    36    37   ar
    24    37    38   ar
    25    38    39    1
    26    38    40   ar
    27    40    41   ar
    28    32    33    1
    29     9    10   ar
    30    10    11   ar
    31    11    13    1
    32    13    14   ar
    33    14    15   ar
    34    15    16   ar
    35    16    17   ar
    36    17    18    1
    37    11    12   ar
    38    12     7   ar
    39    33    28    1
    40    17    13   ar
    41    41    35   ar
    42     1     5    1
    43     4     6    1
    44    26    27    1
@<TRIPOS>MOLECULE
*****
 41 44 0 0 0
SMALL
GASTEIGER

@<TRIPOS>ATOM
      1 N           5.1887   -3.5342   32.9179 N.am    1  UNL1       -0.2683
      2 C           6.3683   -3.8128   32.0343 C.2     1  UNL1        0.3044
      3 O           7.0283   -2.6911   31.2884 O.2     1  UNL1       -0.2525
      4 N           6.8880   -5.2131   31.8965 N.am    1  UNL1       -0.2902
      5 H           4.7555   -4.2704   33.4074 H       1  UNL1        0.1564
      6 H           6.4549   -5.9493   32.3860 H       1  UNL1        0.1509
      7 C           3.3314   -0.1254   32.0928 C.ar    1  UNL1       -0.0212
      8 C           3.8511   -1.5257   31.9551 C.ar    1  UNL1        0.0104
      9 C           4.6690   -2.1338   33.0557 C.ar    1  UNL1        0.0514
     10 C           4.9672   -1.3416   34.2940 C.ar    1  UNL1        0.0178
     11 C           4.4475    0.0587   34.4317 C.ar    1  UNL1        0.0383
     12 C           3.6296    0.6668   33.3311 C.ar    1  UNL1       -0.0011
     13 C           4.7456    0.8510   35.6700 C.ar    1  UNL1        0.1839
     14 N           3.8448    0.9990   36.8602 N.ar    1  UNL1       -0.1081
     15 N           4.5393    1.8739   37.8613 N.ar    1  UNL1       -0.0227
     16 N           5.8695    2.2665   37.2898 N.ar    1  UNL1       -0.0429
     17 N           5.9970    1.6344   35.9355 N.ar    1  UNL1       -0.2113
     18 C           7.1698    1.7630   35.0094 C.3     1  UNL1        0.1573
     19 C           2.1496    1.9369   31.0439 C.3     1  UNL1        0.0047
     20 C           2.5135    0.4826   30.9922 C.3     1  UNL1        0.0224
     21 C           2.0595   -0.3635   29.8399 C.3     1  UNL1        0.0047
     22 C           8.0677   -5.4918   31.0129 C.3     1  UNL1        0.0770
     23 C           9.4443   -5.0864   31.4497 C.3     1  UNL1        0.0214
     24 C           7.8708   -6.1757   29.6926 C.3     1  UNL1        0.0661
     25 C           7.2167   -5.4433   28.5587 C.3     1  UNL1        0.1738
     26 O           6.2944   -4.2945   28.8406 O.3     1  UNL1       -0.3697
     27 H           5.9598   -3.9356   28.0039 H       1  UNL1        0.2119
     28 N           7.4848   -5.8598   27.1428 N.3     1  UNL1       -0.2511
     29 C           7.6312   -7.3136   26.8036 C.3     1  UNL1        0.0742
     30 C           7.8994   -7.7300   25.3878 C.3     1  UNL1        0.0175
     31 C           8.0211   -6.6927   24.3111 C.3     1  UNL1        0.0031
     32 C           7.8746   -5.2390   24.6503 C.3     1  UNL1        0.0205
     33 C           7.6065   -4.8225   26.0661 C.3     1  UNL1        0.0745
     34 C           7.9963   -4.2017   23.5736 C.3     1  UNL1        0.0277
     35 C           6.8603   -3.9721   22.6215 C.ar    1  UNL1       -0.0220
     36 C           7.0920   -4.0610   21.1421 C.ar    1  UNL1       -0.0020
     37 C           5.9560   -3.8314   20.1899 C.ar    1  UNL1        0.0293
     38 C           4.5882   -3.5131   20.7170 C.ar    1  UNL1        0.1401
     39 F           3.4521   -3.2836   19.7647 F       1  UNL1       -0.2042
     40 C           4.3564   -3.4243   22.1963 C.ar    1  UNL1        0.0293
     41 C           5.4925   -3.6538   23.1486 C.ar    1  UNL1       -0.0020
@<TRIPOS>BOND
     1    19    20    1
     2    20    21    1
     3    20     7    1
     4     7     8   ar
     5     8     9   ar
     6     9     1    1
     7     1     2   am
     8     2     3    2
     9     2     4   am
    10     4    22    1
    11    22    23    1
    12    22    24    1
    13    24    25    1
    14    25    26    1
    15    25    28    1
    16    28    29    1
    17    29    30    1
    18    30    31    1
    19    31    32    1
    20    32    34    1
    21    34    35    1
    22    35    36   ar
    23    36    37   ar
    24    37    38   ar
    25    38    39    1
    26    38    40   ar
    27    40    41   ar
    28    32    33    1
    29     9    10   ar
    30    10    11   ar
    31    11    13    1
    32    13    14   ar
    33    14    15   ar
    34    15    16   ar
    35    16    17   ar
    36    17    18    1
    37    11    12   ar
    38    12     7   ar
    39    33    28    1
    40    17    13   ar
    41    41    35   ar
    42     1     5    1
    43     4     6    1
    44    26    27    1
@<TRIPOS>MOLECULE
*****
 41 44 0 0 0
SMALL
GASTEIGER

@<TRIPOS>ATOM
      1 N          -9.3711  -15.4729   23.1600 N.am    1  UNL1       -0.2683
      2 C         -10.1362  -16.7275   22.8587 C.2     1  UNL1        0.3044
      3 O          -9.6028  -18.0566   23.3048 O.2     1  UNL1       -0.2525
      4 N         -11.4346  -16.6529   22.1115 N.am    1  UNL1       -0.2902
      5 H          -9.7211  -14.6006   22.8672 H       1  UNL1        0.1564
      6 H         -11.7847  -15.7805   21.8187 H       1  UNL1        0.1509
      7 C          -6.7628  -15.5172   26.1508 C.ar    1  UNL1       -0.0212
      8 C          -8.0613  -15.4426   25.4035 C.ar    1  UNL1        0.0104
      9 C          -8.0726  -15.5475   23.9073 C.ar    1  UNL1        0.0514
     10 C          -6.7854  -15.7271   23.1583 C.ar    1  UNL1        0.0178
     11 C          -5.4870  -15.8017   23.9056 C.ar    1  UNL1        0.0383
     12 C          -5.4757  -15.6967   25.4018 C.ar    1  UNL1       -0.0011
     13 C          -4.1998  -15.9812   23.1566 C.ar    1  UNL1        0.1839
     14 N          -3.4951  -14.9309   22.3501 N.ar    1  UNL1       -0.1081
     15 N          -2.2511  -15.5431   21.7777 N.ar    1  UNL1       -0.0227
     16 N          -2.1870  -16.9718   22.2304 N.ar    1  UNL1       -0.0429
     17 N          -3.3913  -17.2425   23.0826 N.ar    1  UNL1       -0.2113
     18 C          -3.7280  -18.5457   23.7445 C.3     1  UNL1        0.1573
     19 C          -7.0019  -14.0893   28.3081 C.3     1  UNL1        0.0047
     20 C          -6.7516  -15.4123   27.6471 C.3     1  UNL1        0.0224
     21 C          -6.4899  -16.6303   28.4824 C.3     1  UNL1        0.0047
     22 C         -12.1997  -17.9074   21.8103 C.3     1  UNL1        0.0770
     23 C         -13.4860  -18.1920   22.5278 C.3     1  UNL1        0.0214
     24 C         -11.6787  -18.8774   20.7916 C.3     1  UNL1        0.0661
     25 C         -10.5560  -18.4775   19.8807 C.3     1  UNL1        0.1738
     26 O         -10.5521  -17.1178   19.2474 O.3     1  UNL1       -0.3697
     27 H          -9.7623  -17.0218   18.6926 H       1  UNL1        0.2119
     28 N          -9.4373  -19.4374   19.6031 N.3     1  UNL1       -0.2511
     29 C          -9.5670  -20.4403   18.4953 C.3     1  UNL1        0.0742
     30 C          -8.4483  -21.4002   18.2178 C.3     1  UNL1        0.0175
     31 C          -7.1998  -21.3571   19.0481 C.3     1  UNL1        0.0031
     32 C          -7.0700  -20.3542   20.1559 C.3     1  UNL1        0.0205
     33 C          -8.1887  -19.3944   20.4334 C.3     1  UNL1        0.0745
     34 C          -5.8215  -20.3112   20.9862 C.3     1  UNL1        0.0277
     35 C          -4.5659  -19.7152   20.4221 C.ar    1  UNL1       -0.0220
     36 C          -3.2302  -20.2841   20.7998 C.ar    1  UNL1       -0.0020
     37 C          -1.9746  -19.6882   20.2357 C.ar    1  UNL1        0.0293
     38 C          -2.0545  -18.5234   19.2940 C.ar    1  UNL1        0.1401
     39 F          -0.7988  -17.9275   18.7299 F       1  UNL1       -0.2042
     40 C          -3.3900  -17.9546   18.9162 C.ar    1  UNL1        0.0293
     41 C          -4.6458  -18.5505   19.4803 C.ar    1  UNL1       -0.0020
@<TRIPOS>BOND
     1    19    20    1
     2    20    21    1
     3    20     7    1
     4     7     8   ar
     5     8     9   ar
     6     9     1    1
     7     1     2   am
     8     2     3    2
     9     2     4   am
    10     4    22    1
    11    22    23    1
    12    22    24    1
    13    24    25    1
    14    25    26    1
    15    25    28    1
    16    28    29    1
    17    29    30    1
    18    30    31    1
    19    31    32    1
    20    32    34    1
    21    34    35    1
    22    35    36   ar
    23    36    37   ar
    24    37    38   ar
    25    38    39    1
    26    38    40   ar
    27    40    41   ar
    28    32    33    1
    29     9    10   ar
    30    10    11   ar
    31    11    13    1
    32    13    14   ar
    33    14    15   ar
    34    15    16   ar
    35    16    17   ar
    36    17    18    1
    37    11    12   ar
    38    12     7   ar
    39    33    28    1
    40    17    13   ar
    41    41    35   ar
    42     1     5    1
    43     4     6    1
    44    26    27    1
@<TRIPOS>MOLECULE
*****
 41 44 0 0 0
SMALL
GASTEIGER

@<TRIPOS>ATOM
      1 N           0.4326    0.2378   27.2752 N.am    1  UNL1       -0.2683
      2 C           1.7164    0.5149   27.9998 C.2     1  UNL1        0.3044
      3 O           2.3705    1.8595   27.8792 O.2     1  UNL1       -0.2525
      4 N           2.3460   -0.5523   28.8450 N.am    1  UNL1       -0.2902
      5 H           0.0032   -0.6446   27.3543 H       1  UNL1        0.1564
      6 H           1.9167   -1.4348   28.9241 H       1  UNL1        0.1509
      7 C          -0.4228    2.5274   24.1484 C.ar    1  UNL1       -0.0212
      8 C           0.2068    1.4601   24.9937 C.ar    1  UNL1        0.0104
      9 C          -0.1971    1.3052   26.4299 C.ar    1  UNL1        0.0514
     10 C          -1.2306    2.2175   27.0210 C.ar    1  UNL1        0.0178
     11 C          -1.8602    3.2848   26.1758 C.ar    1  UNL1        0.0383
     12 C          -1.4563    3.4397   24.7395 C.ar    1  UNL1       -0.0011
     13 C          -2.8937    4.1973   26.7668 C.ar    1  UNL1        0.1839
     14 N          -4.3729    3.9502   26.7994 N.ar    1  UNL1       -0.1081
     15 N          -5.0229    5.1172   27.4817 N.ar    1  UNL1       -0.0227
     16 N          -3.9455    6.0855   27.8709 N.ar    1  UNL1       -0.0429
     17 N          -2.6296    5.5170   27.4290 N.ar    1  UNL1       -0.2113
     18 C          -1.2855    6.1561   27.6165 C.3     1  UNL1        0.1573
     19 C          -0.1336    4.0187   22.0408 C.3     1  UNL1        0.0047
     20 C          -0.0189    2.6823   22.7122 C.3     1  UNL1        0.0224
     21 C           0.4996    1.5007   21.9473 C.3     1  UNL1        0.0047
     22 C           3.6298   -0.2752   29.5696 C.3     1  UNL1        0.0770
     23 C           3.6099    0.4645   30.8745 C.3     1  UNL1        0.0214
     24 C           4.9334   -0.7376   28.9894 C.3     1  UNL1        0.0661
     25 C           4.9617   -1.4068   27.6473 C.3     1  UNL1        0.1738
     26 O           5.2281   -2.8796   27.5490 O.3     1  UNL1       -0.3697
     27 H           5.2116   -3.1498   26.6175 H       1  UNL1        0.2119
     28 N           4.7236   -0.6030   26.4033 N.3     1  UNL1       -0.2511
     29 C           5.3252    0.7643   26.2672 C.3     1  UNL1        0.0742
     30 C           5.0871    1.5680   25.0233 C.3     1  UNL1        0.0175
     31 C           4.2474    1.0044   23.9155 C.3     1  UNL1        0.0031
     32 C           3.6459   -0.3629   24.0516 C.3     1  UNL1        0.0205
     33 C           3.8840   -1.1666   25.2955 C.3     1  UNL1        0.0745
     34 C           2.8062   -0.9266   22.9437 C.3     1  UNL1        0.0277
     35 C           3.4624   -1.5695   21.7580 C.ar    1  UNL1       -0.0220
     36 C           3.2651   -0.9929   20.3873 C.ar    1  UNL1       -0.0020
     37 C           3.9212   -1.6359   19.2016 C.ar    1  UNL1        0.0293
     38 C           4.7747   -2.8555   19.3865 C.ar    1  UNL1        0.1401
     39 F           5.4309   -3.4984   18.2007 F       1  UNL1       -0.2042
     40 C           4.9721   -3.4321   20.7570 C.ar    1  UNL1        0.0293
     41 C           4.3159   -2.7891   21.9429 C.ar    1  UNL1       -0.0020
@<TRIPOS>BOND
     1    19    20    1
     2    20    21    1
     3    20     7    1
     4     7     8   ar
     5     8     9   ar
     6     9     1    1
     7     1     2   am
     8     2     3    2
     9     2     4   am
    10     4    22    1
    11    22    23    1
    12    22    24    1
    13    24    25    1
    14    25    26    1
    15    25    28    1
    16    28    29    1
    17    29    30    1
    18    30    31    1
    19    31    32    1
    20    32    34    1
    21    34    35    1
    22    35    36   ar
    23    36    37   ar
    24    37    38   ar
    25    38    39    1
    26    38    40   ar
    27    40    41   ar
    28    32    33    1
    29     9    10   ar
    30    10    11   ar
    31    11    13    1
    32    13    14   ar
    33    14    15   ar
    34    15    16   ar
    35    16    17   ar
    36    17    18    1
    37    11    12   ar
    38    12     7   ar
    39    33    28    1
    40    17    13   ar
    41    41    35   ar
    42     1     5    1
    43     4     6    1
    44    26    27    1
