@<TRIPOS>MOLECULE
*****
 36 39 0 0 0
SMALL
GASTEIGER

@<TRIPOS>ATOM
      1 C          -7.5390  -15.9502   23.0155 C.ar    1  UNL1        0.1581
      2 N          -6.1732  -16.4980   22.7247 N.ar    1  UNL1       -0.1641
      3 N          -5.4336  -16.6132   24.0246 N.ar    1  UNL1       -0.2463
      4 C          -6.3422  -16.1365   25.1188 C.ar    1  UNL1        0.0799
      5 C          -6.1528  -16.0226   26.6024 C.ar    1  UNL1        0.0188
      6 C          -7.2646  -15.4990   27.4623 C.ar    1  UNL1        0.0015
      7 C          -8.5658  -15.0892   26.8387 C.ar    1  UNL1        0.0001
      8 C          -8.7552  -15.2031   25.3551 C.ar    1  UNL1        0.0032
      9 C          -7.6434  -15.7267   24.4951 C.ar    1  UNL1        0.0413
     10 C         -10.6614  -15.8269   20.7132 C.ar    1  UNL1        0.2007
     11 N          -9.8646  -14.6718   20.1832 N.ar    1  UNL1       -0.0584
     12 O          -8.5980  -14.5774   20.9811 O.2     1  UNL1       -0.3310
     13 C          -8.6119  -15.6741   22.0043 C.ar    1  UNL1        0.2792
     14 N          -9.8871  -16.4464   21.8387 N.ar    1  UNL1       -0.1880
     15 C         -11.9977  -16.2826   20.2067 C.3     1  UNL1        0.1621
     16 C         -13.1645  -17.2801   22.3027 C.2     1  UNL1        0.4017
     17 O         -12.9116  -16.0047   23.0506 O.2     1  UNL1       -0.2264
     18 N         -12.7076  -17.4191   20.8808 N.am    1  UNL1       -0.2634
     19 H         -12.8736  -18.2562   20.3899 H       1  UNL1        0.1532
     20 O         -13.8744  -18.4166   22.9768 O.3     1  UNL1       -0.4419
     21 C         -12.4843  -18.5347   24.5748 C.3     1  UNL1        0.0437
     22 C         -13.9787  -18.4543   24.4727 C.3     1  UNL1        0.1378
     23 C         -15.4730  -18.3738   24.3705 C.3     1  UNL1        0.0437
     24 C         -14.0829  -18.4919   25.9685 C.3     1  UNL1        0.0437
     25 C          -4.0315  -17.1167   24.1996 C.3     1  UNL1        0.1538
     26 C          -3.1832  -17.4070   22.9969 C.ar    1  UNL1        0.0021
     27 C          -2.4411  -16.2952   22.3164 C.ar    1  UNL1       -0.0022
     28 C          -1.5929  -16.5855   21.1138 C.ar    1  UNL1        0.0042
     29 C          -1.4868  -17.9877   20.5917 C.ar    1  UNL1        0.0531
     30 C          -2.2289  -19.0995   21.2722 C.ar    1  UNL1        0.0042
     31 C          -3.0771  -18.8092   22.4748 C.ar    1  UNL1       -0.0022
     32 C          -0.6387  -18.2780   19.3892 C.2     1  UNL1        0.2427
     33 N          -1.0821  -17.8217   18.0308 N.am    1  UNL1       -0.3253
     34 O           0.6530  -19.0247   19.5448 O.2     1  UNL1       -0.2704
     35 H          -1.9298  -17.3317   17.9286 H       1  UNL1        0.1453
     36 H          -0.5254  -18.0123   17.2415 H       1  UNL1        0.1453
@<TRIPOS>BOND
     1    21    22    1
     2    22    23    1
     3    22    24    1
     4    22    20    1
     5    20    16    1
     6    16    17    2
     7    16    18   am
     8    18    15    1
     9    15    10    1
    10    10    11   ar
    11    11    12   ar
    12    12    13   ar
    13    13     1    1
    14     1     2   ar
    15     2     3   ar
    16     3    25    1
    17    25    26    1
    18    26    27   ar
    19    27    28   ar
    20    28    29   ar
    21    29    32    1
    22    32    33   am
    23    32    34    2
    24    29    30   ar
    25    30    31   ar
    26     3     4   ar
    27     4     5   ar
    28     5     6   ar
    29     6     7   ar
    30     7     8   ar
    31     8     9   ar
    32    13    14   ar
    33    14    10   ar
    34     9     1   ar
    35    31    26   ar
    36     9     4   ar
    37    18    19    1
    38    33    35    1
    39    33    36    1
@<TRIPOS>MOLECULE
*****
 36 39 0 0 0
SMALL
GASTEIGER

@<TRIPOS>ATOM
      1 C           8.1732   -6.0865   26.2383 C.ar    1  UNL1        0.1581
      2 N           8.7444   -5.6757   24.9136 N.ar    1  UNL1       -0.1641
      3 N           8.3496   -4.2509   24.6605 N.ar    1  UNL1       -0.2463
      4 C           7.5344   -3.7812   25.8288 C.ar    1  UNL1        0.0799
      5 C           6.8773   -2.4670   26.1306 C.ar    1  UNL1        0.0188
      6 C           6.1113   -2.2873   27.4076 C.ar    1  UNL1        0.0015
      7 C           6.0023   -3.4219   28.3828 C.ar    1  UNL1        0.0001
      8 C           6.6593   -4.7360   28.0810 C.ar    1  UNL1        0.0032
      9 C           7.4254   -4.9157   26.8040 C.ar    1  UNL1        0.0413
     10 C           7.8600   -9.6843   27.6611 C.ar    1  UNL1        0.2007
     11 N           9.2493   -9.3209   28.0947 N.ar    1  UNL1       -0.0584
     12 O           9.5357   -7.9290   27.6145 O.2     1  UNL1       -0.3310
     13 C           8.3234   -7.4321   26.8841 C.ar    1  UNL1        0.2792
     14 N           7.2879   -8.5168   26.9129 N.ar    1  UNL1       -0.1880
     15 C           7.1650  -10.9862   27.9286 C.3     1  UNL1        0.1621
     16 C           4.8646  -12.0654   28.4704 C.2     1  UNL1        0.4017
     17 O           5.4999  -12.8698   29.5656 O.2     1  UNL1       -0.2264
     18 N           5.6972  -11.1236   27.6519 N.am    1  UNL1       -0.2634
     19 H           5.2802  -10.5957   26.9331 H       1  UNL1        0.1532
     20 O           3.3968  -12.2028   28.1937 O.3     1  UNL1       -0.4419
     21 C           2.0070  -13.0719   29.5403 C.3     1  UNL1        0.0437
     22 C           2.7328  -13.5424   28.3148 C.3     1  UNL1        0.1378
     23 C           3.4588  -14.0129   27.0893 C.3     1  UNL1        0.0437
     24 C           2.0690  -14.8820   28.4358 C.3     1  UNL1        0.0437
     25 C           8.7071   -3.4384   23.4514 C.3     1  UNL1        0.1538
     26 C           7.7934   -3.4218   22.2618 C.ar    1  UNL1        0.0021
     27 C           8.3005   -2.9449   20.9331 C.ar    1  UNL1       -0.0022
     28 C           7.3868   -2.9283   19.7436 C.ar    1  UNL1        0.0042
     29 C           5.9660   -3.3886   19.8829 C.ar    1  UNL1        0.0531
     30 C           5.4589   -3.8655   21.2115 C.ar    1  UNL1        0.0042
     31 C           6.3725   -3.8821   22.4010 C.ar    1  UNL1       -0.0022
     32 C           5.0523   -3.3721   18.6934 C.2     1  UNL1        0.2427
     33 N           3.8417   -4.2573   18.6652 N.am    1  UNL1       -0.3253
     34 O           5.3491   -2.4702   17.5321 O.2     1  UNL1       -0.2704
     35 H           3.6469   -4.8492   19.4274 H       1  UNL1        0.1453
     36 H           3.2420   -4.2465   17.8846 H       1  UNL1        0.1453
@<TRIPOS>BOND
     1    21    22    1
     2    22    23    1
     3    22    24    1
     4    22    20    1
     5    20    16    1
     6    16    17    2
     7    16    18   am
     8    18    15    1
     9    15    10    1
    10    10    11   ar
    11    11    12   ar
    12    12    13   ar
    13    13     1    1
    14     1     2   ar
    15     2     3   ar
    16     3    25    1
    17    25    26    1
    18    26    27   ar
    19    27    28   ar
    20    28    29   ar
    21    29    32    1
    22    32    33   am
    23    32    34    2
    24    29    30   ar
    25    30    31   ar
    26     3     4   ar
    27     4     5   ar
    28     5     6   ar
    29     6     7   ar
    30     7     8   ar
    31     8     9   ar
    32    13    14   ar
    33    14    10   ar
    34     9     1   ar
    35    31    26   ar
    36     9     4   ar
    37    18    19    1
    38    33    35    1
    39    33    36    1
@<TRIPOS>MOLECULE
*****
 36 39 0 0 0
SMALL
GASTEIGER

@<TRIPOS>ATOM
      1 C           7.3185   -4.6525   27.2873 C.ar    1  UNL1        0.1581
      2 N           7.1253   -3.3586   26.5535 N.ar    1  UNL1       -0.1641
      3 N           7.4186   -3.6005   25.1025 N.ar    1  UNL1       -0.2463
      4 C           7.7930   -5.0438   24.9395 C.ar    1  UNL1        0.0799
      5 C           8.1822   -5.8500   23.7360 C.ar    1  UNL1        0.0188
      6 C           8.5096   -7.3065   23.8829 C.ar    1  UNL1        0.0015
      7 C           8.4478   -7.9567   25.2332 C.ar    1  UNL1        0.0001
      8 C           8.0585   -7.1504   26.4367 C.ar    1  UNL1        0.0032
      9 C           7.7311   -5.6940   26.2899 C.ar    1  UNL1        0.0413
     10 C           6.7326   -4.4619   31.1196 C.ar    1  UNL1        0.2007
     11 N           6.9563   -5.9334   30.9333 N.ar    1  UNL1       -0.0584
     12 O           7.2030   -6.1839   29.4751 O.2     1  UNL1       -0.3310
     13 C           7.1318   -4.8672   28.7601 C.ar    1  UNL1        0.2792
     14 N           6.8411   -3.8030   29.7764 N.ar    1  UNL1       -0.1880
     15 C           6.4501   -3.7707   32.4204 C.3     1  UNL1        0.1621
     16 C           4.7584   -1.8147   32.1711 C.2     1  UNL1        0.4017
     17 O           5.7799   -1.0291   31.4033 O.2     1  UNL1       -0.2264
     18 N           5.0935   -3.1855   32.6797 N.am    1  UNL1       -0.2634
     19 H           4.4231   -3.7011   33.1836 H       1  UNL1        0.1532
     20 O           3.4019   -1.2294   32.4304 O.3     1  UNL1       -0.4419
     21 C           3.5169    0.7528   33.1773 C.3     1  UNL1        0.0437
     22 C           3.0555    0.1279   31.8940 C.3     1  UNL1        0.1378
     23 C           2.5943   -0.4970   30.6107 C.3     1  UNL1        0.0437
     24 C           2.7092    1.4852   31.3576 C.3     1  UNL1        0.0437
     25 C           7.3496   -2.5784   24.0067 C.3     1  UNL1        0.1538
     26 C           6.5201   -2.8432   22.7852 C.ar    1  UNL1        0.0021
     27 C           7.0863   -2.5768   21.4220 C.ar    1  UNL1       -0.0022
     28 C           6.2570   -2.8415   20.2005 C.ar    1  UNL1        0.0042
     29 C           4.8614   -3.3728   20.3423 C.ar    1  UNL1        0.0531
     30 C           4.2952   -3.6393   21.7055 C.ar    1  UNL1        0.0042
     31 C           5.1246   -3.3745   22.9270 C.ar    1  UNL1       -0.0022
     32 C           4.0320   -3.6377   19.1209 C.2     1  UNL1        0.2427
     33 N           4.2281   -2.8079   17.8868 N.am    1  UNL1       -0.3253
     34 O           3.0064   -4.7322   19.1334 O.2     1  UNL1       -0.2704
     35 H           4.9012   -2.0895   17.8785 H       1  UNL1        0.1453
     36 H           3.6837   -2.9817   17.0851 H       1  UNL1        0.1453
@<TRIPOS>BOND
     1    21    22    1
     2    22    23    1
     3    22    24    1
     4    22    20    1
     5    20    16    1
     6    16    17    2
     7    16    18   am
     8    18    15    1
     9    15    10    1
    10    10    11   ar
    11    11    12   ar
    12    12    13   ar
    13    13     1    1
    14     1     2   ar
    15     2     3   ar
    16     3    25    1
    17    25    26    1
    18    26    27   ar
    19    27    28   ar
    20    28    29   ar
    21    29    32    1
    22    32    33   am
    23    32    34    2
    24    29    30   ar
    25    30    31   ar
    26     3     4   ar
    27     4     5   ar
    28     5     6   ar
    29     6     7   ar
    30     7     8   ar
    31     8     9   ar
    32    13    14   ar
    33    14    10   ar
    34     9     1   ar
    35    31    26   ar
    36     9     4   ar
    37    18    19    1
    38    33    35    1
    39    33    36    1
@<TRIPOS>MOLECULE
*****
 36 39 0 0 0
SMALL
GASTEIGER

@<TRIPOS>ATOM
      1 C           7.3669   -5.6061   25.3232 C.ar    1  UNL1        0.1581
      2 N           6.4598   -4.4276   25.5191 N.ar    1  UNL1       -0.1641
      3 N           6.3904   -3.6757   24.2230 N.ar    1  UNL1       -0.2463
      4 C           7.2546   -4.3894   23.2261 C.ar    1  UNL1        0.0799
      5 C           7.5699   -4.1071   21.7871 C.ar    1  UNL1        0.0188
      6 C           8.4887   -5.0178   21.0281 C.ar    1  UNL1        0.0015
      7 C           9.0922   -6.2109   21.7080 C.ar    1  UNL1        0.0001
      8 C           8.7769   -6.4933   23.1470 C.ar    1  UNL1        0.0032
      9 C           7.8581   -5.5825   23.9061 C.ar    1  UNL1        0.0413
     10 C           8.1023   -8.7510   27.4760 C.ar    1  UNL1        0.2007
     11 N           8.4278   -7.6535   28.4453 N.ar    1  UNL1       -0.0584
     12 O           8.1919   -6.3419   27.7569 O.2     1  UNL1       -0.3310
     13 C           7.7206   -6.6287   26.3620 C.ar    1  UNL1        0.2792
     14 N           7.6652   -8.1175   26.1884 N.ar    1  UNL1       -0.1880
     15 C           8.1972  -10.2232   27.7466 C.3     1  UNL1        0.1621
     16 C           7.0454  -12.4954   28.2573 C.2     1  UNL1        0.4017
     17 O           8.3784  -13.1815   28.2110 O.2     1  UNL1       -0.2264
     18 N           6.9547  -11.0162   28.0251 N.am    1  UNL1       -0.2634
     19 H           6.0798  -10.5659   28.0555 H       1  UNL1        0.1532
     20 O           5.8030  -13.2884   28.5358 O.3     1  UNL1       -0.4419
     21 C           4.2307  -12.1582   29.4023 C.3     1  UNL1        0.0437
     22 C           4.4711  -12.7869   28.0618 C.3     1  UNL1        0.1378
     23 C           4.7115  -13.4157   26.7213 C.3     1  UNL1        0.0437
     24 C           3.1393  -12.2855   27.5878 C.3     1  UNL1        0.0437
     25 C           5.5963   -2.4288   23.9685 C.3     1  UNL1        0.1538
     26 C           5.2130   -2.0568   22.5668 C.ar    1  UNL1        0.0021
     27 C           5.8966   -0.9110   21.8813 C.ar    1  UNL1       -0.0022
     28 C           5.5133   -0.5389   20.4797 C.ar    1  UNL1        0.0042
     29 C           4.4464   -1.3127   19.7635 C.ar    1  UNL1        0.0531
     30 C           3.7628   -2.4585   20.4489 C.ar    1  UNL1        0.0042
     31 C           4.1461   -2.8306   21.8505 C.ar    1  UNL1       -0.0022
     32 C           4.0631   -0.9407   18.3618 C.2     1  UNL1        0.2427
     33 N           2.8949   -0.0315   18.1200 N.am    1  UNL1       -0.3253
     34 O           4.8481   -1.4779   17.2019 O.2     1  UNL1       -0.2704
     35 H           2.3797    0.3211   18.8813 H       1  UNL1        0.1453
     36 H           2.6433    0.2127   17.2000 H       1  UNL1        0.1453
@<TRIPOS>BOND
     1    21    22    1
     2    22    23    1
     3    22    24    1
     4    22    20    1
     5    20    16    1
     6    16    17    2
     7    16    18   am
     8    18    15    1
     9    15    10    1
    10    10    11   ar
    11    11    12   ar
    12    12    13   ar
    13    13     1    1
    14     1     2   ar
    15     2     3   ar
    16     3    25    1
    17    25    26    1
    18    26    27   ar
    19    27    28   ar
    20    28    29   ar
    21    29    32    1
    22    32    33   am
    23    32    34    2
    24    29    30   ar
    25    30    31   ar
    26     3     4   ar
    27     4     5   ar
    28     5     6   ar
    29     6     7   ar
    30     7     8   ar
    31     8     9   ar
    32    13    14   ar
    33    14    10   ar
    34     9     1   ar
    35    31    26   ar
    36     9     4   ar
    37    18    19    1
    38    33    35    1
    39    33    36    1
@<TRIPOS>MOLECULE
*****
 36 39 0 0 0
SMALL
GASTEIGER

@<TRIPOS>ATOM
      1 C           7.3585   -4.5268   25.4646 C.ar    1  UNL1        0.1581
      2 N           7.6260   -3.4161   26.4366 N.ar    1  UNL1       -0.1641
      3 N           8.0860   -4.0293   27.7259 N.ar    1  UNL1       -0.2463
      4 C           8.1029   -5.5189   27.5507 C.ar    1  UNL1        0.0799
      5 C           8.4695   -6.6351   28.4832 C.ar    1  UNL1        0.0188
      6 C           8.3865   -8.0587   28.0182 C.ar    1  UNL1        0.0015
      7 C           7.9369   -8.3662   26.6206 C.ar    1  UNL1        0.0001
      8 C           7.5702   -7.2500   25.6880 C.ar    1  UNL1        0.0032
      9 C           7.6532   -5.8264   26.1531 C.ar    1  UNL1        0.0413
     10 C           5.5755   -3.6932   22.1191 C.ar    1  UNL1        0.2007
     11 N           6.7129   -4.5443   21.6373 N.ar    1  UNL1       -0.0584
     12 O           7.5192   -4.9601   22.8318 O.2     1  UNL1       -0.3310
     13 C           6.8802   -4.3661   24.0520 C.ar    1  UNL1        0.2792
     14 N           5.6790   -3.5831   23.6115 N.ar    1  UNL1       -0.1880
     15 C           4.5201   -3.0630   21.2596 C.3     1  UNL1        0.1621
     16 C           4.9448   -2.9751   18.6979 C.2     1  UNL1        0.4017
     17 O           4.5848   -4.4271   18.5884 O.2     1  UNL1       -0.2264
     18 N           4.9125   -2.2931   20.0335 N.am    1  UNL1       -0.2634
     19 H           5.1488   -1.3400   20.1054 H       1  UNL1        0.1532
     20 O           5.3372   -2.2051   17.4719 O.3     1  UNL1       -0.4419
     21 C           6.7000   -0.6025   17.7453 C.3     1  UNL1        0.0437
     22 C           5.2312   -0.7089   17.4600 C.3     1  UNL1        0.1378
     23 C           3.7624   -0.8153   17.1746 C.3     1  UNL1        0.0437
     24 C           5.1251    0.7872   17.4480 C.3     1  UNL1        0.0437
     25 C           8.4631   -3.2838   28.9717 C.3     1  UNL1        0.1538
     26 C           7.4006   -2.8563   29.9405 C.ar    1  UNL1        0.0021
     27 C           7.0945   -3.7036   31.1399 C.ar    1  UNL1       -0.0022
     28 C           6.0322   -3.2763   32.1087 C.ar    1  UNL1        0.0042
     29 C           5.2759   -2.0016   31.8782 C.ar    1  UNL1        0.0531
     30 C           5.5820   -1.1543   30.6788 C.ar    1  UNL1        0.0042
     31 C           6.6443   -1.5816   29.7100 C.ar    1  UNL1       -0.0022
     32 C           4.2134   -1.5741   32.8469 C.2     1  UNL1        0.2427
     33 N           3.4955   -0.2725   32.6465 N.am    1  UNL1       -0.3253
     34 O           3.8689   -2.4484   34.0162 O.2     1  UNL1       -0.2704
     35 H           3.7216    0.3013   31.8791 H       1  UNL1        0.1453
     36 H           2.7982    0.0081   33.2824 H       1  UNL1        0.1453
@<TRIPOS>BOND
     1    21    22    1
     2    22    23    1
     3    22    24    1
     4    22    20    1
     5    20    16    1
     6    16    17    2
     7    16    18   am
     8    18    15    1
     9    15    10    1
    10    10    11   ar
    11    11    12   ar
    12    12    13   ar
    13    13     1    1
    14     1     2   ar
    15     2     3   ar
    16     3    25    1
    17    25    26    1
    18    26    27   ar
    19    27    28   ar
    20    28    29   ar
    21    29    32    1
    22    32    33   am
    23    32    34    2
    24    29    30   ar
    25    30    31   ar
    26     3     4   ar
    27     4     5   ar
    28     5     6   ar
    29     6     7   ar
    30     7     8   ar
    31     8     9   ar
    32    13    14   ar
    33    14    10   ar
    34     9     1   ar
    35    31    26   ar
    36     9     4   ar
    37    18    19    1
    38    33    35    1
    39    33    36    1
@<TRIPOS>MOLECULE
*****
 36 39 0 0 0
SMALL
GASTEIGER

@<TRIPOS>ATOM
      1 C         -12.4839   -4.2122   17.5861 C.ar    1  UNL1        0.1581
      2 N         -13.4373   -5.0917   16.8328 N.ar    1  UNL1       -0.1641
      3 N         -12.9344   -6.5022   16.9202 N.ar    1  UNL1       -0.2463
      4 C         -11.6702   -6.4944   17.7275 C.ar    1  UNL1        0.0799
      5 C         -10.7366   -7.5932   18.1410 C.ar    1  UNL1        0.0188
      6 C          -9.5246   -7.2767   18.9661 C.ar    1  UNL1        0.0015
      7 C          -9.2462   -5.8614   19.3776 C.ar    1  UNL1        0.0001
      8 C         -10.1797   -4.7626   18.9641 C.ar    1  UNL1        0.0032
      9 C         -11.3918   -5.0791   18.1390 C.ar    1  UNL1        0.0413
     10 C         -13.3509   -0.4293   17.5286 C.ar    1  UNL1        0.2007
     11 N         -12.2158   -0.4517   18.5090 N.ar    1  UNL1       -0.0584
     12 O         -11.7529   -1.8715   18.6498 O.2     1  UNL1       -0.3310
     13 C         -12.6019   -2.7266   17.7565 C.ar    1  UNL1        0.2792
     14 N         -13.5894   -1.8353   17.0636 N.ar    1  UNL1       -0.1880
     15 C         -14.1135    0.7857   17.0903 C.3     1  UNL1        0.1621
     16 C         -15.6919    1.8977   18.8287 C.2     1  UNL1        0.4017
     17 O         -14.5064    2.5120   19.5122 O.2     1  UNL1       -0.2264
     18 N         -15.4954    1.0345   17.6178 N.am    1  UNL1       -0.2634
     19 H         -16.2735    0.6313   17.1692 H       1  UNL1        0.1532
     20 O         -17.0739    2.1465   19.3562 O.3     1  UNL1       -0.4419
     21 C         -17.5365    3.6097   20.8209 C.3     1  UNL1        0.0437
     22 C         -17.3278    2.1243   20.8344 C.3     1  UNL1        0.1378
     23 C         -17.1191    0.6390   20.8478 C.3     1  UNL1        0.0437
     24 C         -17.5818    2.1020   22.3125 C.3     1  UNL1        0.0437
     25 C         -13.5820   -7.7087   16.3078 C.3     1  UNL1        0.1538
     26 C         -14.8726   -8.2316   16.8656 C.ar    1  UNL1        0.0021
     27 C         -14.8575   -9.3240   17.8935 C.ar    1  UNL1       -0.0022
     28 C         -16.1479   -9.8469   18.4513 C.ar    1  UNL1        0.0042
     29 C         -17.4536   -9.2774   17.9813 C.ar    1  UNL1        0.0531
     30 C         -17.4687   -8.1850   16.9534 C.ar    1  UNL1        0.0042
     31 C         -16.1782   -7.6621   16.3956 C.ar    1  UNL1       -0.0022
     32 C         -18.7441   -9.8002   18.5391 C.2     1  UNL1        0.2427
     33 N         -19.3573  -11.0453   17.9701 N.am    1  UNL1       -0.3253
     34 O         -19.4215   -9.0780   19.6658 O.2     1  UNL1       -0.2704
     35 H         -18.9127  -11.5194   17.2306 H       1  UNL1        0.1453
     36 H         -20.2043  -11.3885   18.3362 H       1  UNL1        0.1453
@<TRIPOS>BOND
     1    21    22    1
     2    22    23    1
     3    22    24    1
     4    22    20    1
     5    20    16    1
     6    16    17    2
     7    16    18   am
     8    18    15    1
     9    15    10    1
    10    10    11   ar
    11    11    12   ar
    12    12    13   ar
    13    13     1    1
    14     1     2   ar
    15     2     3   ar
    16     3    25    1
    17    25    26    1
    18    26    27   ar
    19    27    28   ar
    20    28    29   ar
    21    29    32    1
    22    32    33   am
    23    32    34    2
    24    29    30   ar
    25    30    31   ar
    26     3     4   ar
    27     4     5   ar
    28     5     6   ar
    29     6     7   ar
    30     7     8   ar
    31     8     9   ar
    32    13    14   ar
    33    14    10   ar
    34     9     1   ar
    35    31    26   ar
    36     9     4   ar
    37    18    19    1
    38    33    35    1
    39    33    36    1
@<TRIPOS>MOLECULE
*****
 36 39 0 0 0
SMALL
GASTEIGER

@<TRIPOS>ATOM
      1 C         -16.1761   -2.3149   19.4290 C.ar    1  UNL1        0.1581
      2 N         -14.8256   -2.9597   19.5315 N.ar    1  UNL1       -0.1641
      3 N         -13.7909   -1.9214   19.2132 N.ar    1  UNL1       -0.2463
      4 C         -14.5019   -0.6349   18.9139 C.ar    1  UNL1        0.0799
      5 C         -13.9974    0.7265   18.5372 C.ar    1  UNL1        0.0188
      6 C         -14.9670    1.8447   18.2939 C.ar    1  UNL1        0.0015
      7 C         -16.4412    1.6015   18.4272 C.ar    1  UNL1        0.0001
      8 C         -16.9456    0.2401   18.8039 C.ar    1  UNL1        0.0032
      9 C         -15.9760   -0.8781   19.0473 C.ar    1  UNL1        0.0413
     10 C         -19.3103   -4.5983   19.5981 C.ar    1  UNL1        0.2007
     11 N         -19.7395   -3.4522   20.4654 N.ar    1  UNL1       -0.0584
     12 O         -18.6176   -2.4573   20.5076 O.2     1  UNL1       -0.3310
     13 C         -17.4951   -2.9886   19.6664 C.ar    1  UNL1        0.2792
     14 N         -17.9232   -4.3117   19.1043 N.ar    1  UNL1       -0.1880
     15 C         -20.1250   -5.8169   19.2805 C.3     1  UNL1        0.1621
     16 C         -19.4403   -8.1913   20.0826 C.2     1  UNL1        0.4017
     17 O         -20.1176   -7.9424   21.3976 O.2     1  UNL1       -0.2264
     18 N         -19.4440   -7.1286   19.0240 N.am    1  UNL1       -0.2634
     19 H         -18.9995   -7.2919   18.1609 H       1  UNL1        0.1532
     20 O         -18.7593   -9.5030   19.8261 O.3     1  UNL1       -0.4419
     21 C         -18.1986  -10.2481   17.9207 C.3     1  UNL1        0.0437
     22 C         -17.4845   -9.5445   19.0365 C.3     1  UNL1        0.1378
     23 C         -16.7705   -8.8410   20.1524 C.3     1  UNL1        0.0437
     24 C         -16.2099   -9.5861   18.2471 C.3     1  UNL1        0.0437
     25 C         -12.3059   -2.1325   19.1971 C.3     1  UNL1        0.1538
     26 C         -11.7460   -3.5054   18.9694 C.ar    1  UNL1        0.0021
     27 C         -10.3342   -3.6695   18.4898 C.ar    1  UNL1       -0.0022
     28 C          -9.7742   -5.0423   18.2621 C.ar    1  UNL1        0.0042
     29 C         -10.6260   -6.2510   18.5140 C.ar    1  UNL1        0.0531
     30 C         -12.0378   -6.0868   18.9935 C.ar    1  UNL1        0.0042
     31 C         -12.5978   -4.7141   19.2212 C.ar    1  UNL1       -0.0022
     32 C         -10.0661   -7.6238   18.2863 C.2     1  UNL1        0.2427
     33 N          -9.1747   -8.2506   19.3171 N.am    1  UNL1       -0.3253
     34 O         -10.3976   -8.3699   17.0279 O.2     1  UNL1       -0.2704
     35 H          -8.9571   -7.7609   20.1430 H       1  UNL1        0.1453
     36 H          -8.8072   -9.1516   19.1676 H       1  UNL1        0.1453
@<TRIPOS>BOND
     1    21    22    1
     2    22    23    1
     3    22    24    1
     4    22    20    1
     5    20    16    1
     6    16    17    2
     7    16    18   am
     8    18    15    1
     9    15    10    1
    10    10    11   ar
    11    11    12   ar
    12    12    13   ar
    13    13     1    1
    14     1     2   ar
    15     2     3   ar
    16     3    25    1
    17    25    26    1
    18    26    27   ar
    19    27    28   ar
    20    28    29   ar
    21    29    32    1
    22    32    33   am
    23    32    34    2
    24    29    30   ar
    25    30    31   ar
    26     3     4   ar
    27     4     5   ar
    28     5     6   ar
    29     6     7   ar
    30     7     8   ar
    31     8     9   ar
    32    13    14   ar
    33    14    10   ar
    34     9     1   ar
    35    31    26   ar
    36     9     4   ar
    37    18    19    1
    38    33    35    1
    39    33    36    1
@<TRIPOS>MOLECULE
*****
 36 39 0 0 0
SMALL
GASTEIGER

@<TRIPOS>ATOM
      1 C           4.9037   -2.3573   23.4650 C.ar    1  UNL1        0.1581
      2 N           4.5601   -1.2347   24.3986 N.ar    1  UNL1       -0.1641
      3 N           3.5894   -0.3304   23.6987 N.ar    1  UNL1       -0.2463
      4 C           3.3330   -0.8941   22.3325 C.ar    1  UNL1        0.0799
      5 C           2.4648   -0.4286   21.2014 C.ar    1  UNL1        0.0188
      6 C           2.4089   -1.2157   19.9258 C.ar    1  UNL1        0.0015
      7 C           3.2212   -2.4684   19.7813 C.ar    1  UNL1        0.0001
      8 C           4.0894   -2.9340   20.9125 C.ar    1  UNL1        0.0032
      9 C           4.1453   -2.1468   22.1881 C.ar    1  UNL1        0.0413
     10 C           7.2511   -5.0750   24.9379 C.ar    1  UNL1        0.2007
     11 N           7.3160   -5.3980   23.4745 N.ar    1  UNL1       -0.0584
     12 O           6.4445   -4.4193   22.7447 O.2     1  UNL1       -0.3310
     13 C           5.8410   -3.4914   23.7570 C.ar    1  UNL1        0.2792
     14 N           6.3395   -3.8966   25.1124 N.ar    1  UNL1       -0.1880
     15 C           7.9713   -5.8025   26.0342 C.3     1  UNL1        0.1621
     16 C           7.5655   -4.7390   28.3696 C.2     1  UNL1        0.4017
     17 O           6.1342   -5.1854   28.3242 O.2     1  UNL1       -0.2264
     18 N           8.4840   -5.0475   27.2246 N.am    1  UNL1       -0.2634
     19 H           9.4234   -4.7545   27.2544 H       1  UNL1        0.1532
     20 O           8.0782   -3.9840   29.5600 O.3     1  UNL1       -0.4419
     21 C           6.7182   -2.6572   30.5035 C.3     1  UNL1        0.0437
     22 C           7.3048   -3.9948   30.8452 C.3     1  UNL1        0.1378
     23 C           7.8913   -5.3325   31.1868 C.3     1  UNL1        0.0437
     24 C           6.5314   -4.0058   32.1303 C.3     1  UNL1        0.0437
     25 C           2.9817    0.9184   24.2655 C.3     1  UNL1        0.1538
     26 C           2.1233    0.8442   25.4935 C.ar    1  UNL1        0.0021
     27 C           0.6781    1.2397   25.4233 C.ar    1  UNL1       -0.0022
     28 C          -0.1803    1.1656   26.6511 C.ar    1  UNL1        0.0042
     29 C           0.4066    0.6960   27.9492 C.ar    1  UNL1        0.0531
     30 C           1.8518    0.3005   28.0194 C.ar    1  UNL1        0.0042
     31 C           2.7102    0.3746   26.7916 C.ar    1  UNL1       -0.0022
     32 C          -0.4517    0.6219   29.1771 C.2     1  UNL1        0.2427
     33 N          -1.7426   -0.1413   29.1449 N.am    1  UNL1       -0.3253
     34 O          -0.0192    1.3109   30.4374 O.2     1  UNL1       -0.2704
     35 H          -2.0266   -0.5936   28.3178 H       1  UNL1        0.1453
     36 H          -2.3060   -0.1900   29.9508 H       1  UNL1        0.1453
@<TRIPOS>BOND
     1    21    22    1
     2    22    23    1
     3    22    24    1
     4    22    20    1
     5    20    16    1
     6    16    17    2
     7    16    18   am
     8    18    15    1
     9    15    10    1
    10    10    11   ar
    11    11    12   ar
    12    12    13   ar
    13    13     1    1
    14     1     2   ar
    15     2     3   ar
    16     3    25    1
    17    25    26    1
    18    26    27   ar
    19    27    28   ar
    20    28    29   ar
    21    29    32    1
    22    32    33   am
    23    32    34    2
    24    29    30   ar
    25    30    31   ar
    26     3     4   ar
    27     4     5   ar
    28     5     6   ar
    29     6     7   ar
    30     7     8   ar
    31     8     9   ar
    32    13    14   ar
    33    14    10   ar
    34     9     1   ar
    35    31    26   ar
    36     9     4   ar
    37    18    19    1
    38    33    35    1
    39    33    36    1
@<TRIPOS>MOLECULE
*****
 36 39 0 0 0
SMALL
GASTEIGER

@<TRIPOS>ATOM
      1 C           4.2358   -1.5730   22.3566 C.ar    1  UNL1        0.1581
      2 N           5.5142   -1.8483   23.0914 N.ar    1  UNL1       -0.1641
      3 N           6.2975   -2.8522   22.2986 N.ar    1  UNL1       -0.2463
      4 C           5.5034   -3.1973   21.0738 C.ar    1  UNL1        0.0799
      5 C           5.7758   -4.1293   19.9305 C.ar    1  UNL1        0.0188
      6 C           4.7741   -4.2707   18.8231 C.ar    1  UNL1        0.0015
      7 C           3.4998   -3.4801   18.8589 C.ar    1  UNL1        0.0001
      8 C           3.2274   -2.5481   20.0022 C.ar    1  UNL1        0.0032
      9 C           4.2291   -2.4067   21.1096 C.ar    1  UNL1        0.0413
     10 C           1.6570    0.6830   24.1802 C.ar    1  UNL1        0.2007
     11 N           1.3217    0.9612   22.7448 N.ar    1  UNL1       -0.0584
     12 O           2.2469    0.1500   21.8870 O.2     1  UNL1       -0.3310
     13 C           3.1541   -0.6296   22.7922 C.ar    1  UNL1        0.2792
     14 N           2.7895   -0.3002   24.2094 N.ar    1  UNL1       -0.1880
     15 C           0.9790    1.2827   25.3762 C.3     1  UNL1        0.1621
     16 C           0.1546    0.8181   27.7958 C.2     1  UNL1        0.4017
     17 O          -1.1400    1.5102   27.4877 O.2     1  UNL1       -0.2264
     18 N           1.2141    0.7043   26.7401 N.am    1  UNL1       -0.2634
     19 H           2.0637    0.2500   26.9424 H       1  UNL1        0.1532
     20 O           0.3897    0.2397   29.1597 O.3     1  UNL1       -0.4419
     21 C           0.7922    2.0531   30.1844 C.3     1  UNL1        0.0437
     22 C           1.5164    0.7515   30.0074 C.3     1  UNL1        0.1378
     23 C           2.2406   -0.5502   29.8304 C.3     1  UNL1        0.0437
     24 C           2.6431    1.2631   30.8551 C.3     1  UNL1        0.0437
     25 C           7.6395   -3.4126   22.6660 C.3     1  UNL1        0.1538
     26 C           7.7322   -4.6018   23.5758 C.ar    1  UNL1        0.0021
     27 C           7.1108   -4.5525   24.9401 C.ar    1  UNL1       -0.0022
     28 C           7.2034   -5.7415   25.8498 C.ar    1  UNL1        0.0042
     29 C           7.9175   -6.9798   25.3952 C.ar    1  UNL1        0.0531
     30 C           8.5390   -7.0290   24.0308 C.ar    1  UNL1        0.0042
     31 C           8.4463   -5.8400   23.1211 C.ar    1  UNL1       -0.0022
     32 C           8.0102   -8.1689   26.3048 C.2     1  UNL1        0.2427
     33 N           6.7602   -8.8413   26.7899 N.am    1  UNL1       -0.3253
     34 O           9.3529   -8.6856   26.7295 O.2     1  UNL1       -0.2704
     35 H           5.8789   -8.5022   26.5112 H       1  UNL1        0.1453
     36 H           6.8210   -9.6217   27.3869 H       1  UNL1        0.1453
@<TRIPOS>BOND
     1    21    22    1
     2    22    23    1
     3    22    24    1
     4    22    20    1
     5    20    16    1
     6    16    17    2
     7    16    18   am
     8    18    15    1
     9    15    10    1
    10    10    11   ar
    11    11    12   ar
    12    12    13   ar
    13    13     1    1
    14     1     2   ar
    15     2     3   ar
    16     3    25    1
    17    25    26    1
    18    26    27   ar
    19    27    28   ar
    20    28    29   ar
    21    29    32    1
    22    32    33   am
    23    32    34    2
    24    29    30   ar
    25    30    31   ar
    26     3     4   ar
    27     4     5   ar
    28     5     6   ar
    29     6     7   ar
    30     7     8   ar
    31     8     9   ar
    32    13    14   ar
    33    14    10   ar
    34     9     1   ar
    35    31    26   ar
    36     9     4   ar
    37    18    19    1
    38    33    35    1
    39    33    36    1
