@<TRIPOS>MOLECULE
*****
 19 20 0 0 0
SMALL
GASTEIGER

@<TRIPOS>ATOM
      1 C          -9.6395  -18.4766   21.4154 C.3     1  UNL1        0.0324
      2 C          -8.1555  -18.6899   21.4587 C.3     1  UNL1        0.0053
      3 C          -7.4654  -19.3925   20.3272 C.3     1  UNL1        0.0004
      4 C          -8.2595  -19.8817   19.1524 C.3     1  UNL1        0.0000
      5 C          -9.7436  -19.6684   19.1092 C.3     1  UNL1        0.0004
      6 C         -10.4337  -18.9659   20.2406 C.3     1  UNL1        0.0053
      7 C          -9.3227  -17.8360   22.7343 C.ar    1  UNL1       -0.0206
      8 C          -9.7982  -18.4682   24.0087 C.ar    1  UNL1       -0.0033
      9 C          -9.4813  -17.8276   25.3274 C.ar    1  UNL1        0.0119
     10 C          -8.6889  -16.5548   25.3718 C.ar    1  UNL1        0.0682
     11 CL         -8.3720  -15.9141   26.6906 Cl      1  UNL1       -0.0814
     12 C          -8.2133  -15.9225   24.0974 C.ar    1  UNL1        0.0679
     13 CL         -7.4209  -14.6497   24.1417 Cl      1  UNL1       -0.0814
     14 C          -8.5302  -16.5632   22.7786 C.ar    1  UNL1        0.0080
     15 C         -11.9364  -19.0116   22.5054 C.3     1  UNL1        0.0177
     16 C         -11.0136  -18.0408   21.8302 C.3     1  UNL1        0.0613
     17 N         -11.4649  -16.6342   21.5697 N.3     1  UNL1       -0.2713
     18 C         -12.2280  -15.8845   22.6213 C.3     1  UNL1        0.0896
     19 C         -11.1530  -15.9773   20.2578 C.3     1  UNL1        0.0896
@<TRIPOS>BOND
     1    15    16    1
     2    16    17    1
     3    17    18    1
     4    17    19    1
     5    16     1    1
     6     1     7    1
     7     7     8   ar
     8     8     9   ar
     9     9    10   ar
    10    10    11    1
    11    10    12   ar
    12    12    13    1
    13    12    14   ar
    14     1     2    1
    15     2     3    1
    16     3     4    1
    17     4     5    1
    18     5     6    1
    19     6     1    1
    20    14     7   ar
@<TRIPOS>MOLECULE
*****
 19 20 0 0 0
SMALL
GASTEIGER

@<TRIPOS>ATOM
      1 C         -10.2707  -17.7163   22.7926 C.3     1  UNL1        0.0324
      2 C         -10.7888  -16.3103   22.8601 C.3     1  UNL1        0.0053
      3 C         -12.1042  -15.9644   22.2275 C.3     1  UNL1        0.0004
      4 C         -12.9015  -17.0248   21.5273 C.3     1  UNL1        0.0000
      5 C         -12.3834  -18.4308   21.4598 C.3     1  UNL1        0.0004
      6 C         -11.0680  -18.7766   22.0924 C.3     1  UNL1        0.0053
      7 C          -9.1595  -17.0659   23.5621 C.ar    1  UNL1       -0.0206
      8 C          -7.9487  -16.5519   22.8412 C.ar    1  UNL1       -0.0033
      9 C          -6.8375  -15.9015   23.6107 C.ar    1  UNL1        0.0119
     10 C          -6.9371  -15.7651   25.1012 C.ar    1  UNL1        0.0682
     11 CL         -5.8258  -15.1147   25.8707 Cl      1  UNL1       -0.0814
     12 C          -8.1478  -16.2791   25.8221 C.ar    1  UNL1        0.0679
     13 CL         -8.2474  -16.1428   27.3126 Cl      1  UNL1       -0.0814
     14 C          -9.2590  -16.9295   25.0526 C.ar    1  UNL1        0.0080
     15 C          -9.4338  -19.6855   24.2663 C.3     1  UNL1        0.0177
     16 C          -9.3667  -18.8965   22.9923 C.3     1  UNL1        0.0613
     17 N          -8.3955  -19.2876   21.9182 N.3     1  UNL1       -0.2713
     18 C          -8.7299  -19.0375   20.4775 C.3     1  UNL1        0.0896
     19 C          -7.0900  -19.9289   22.2847 C.3     1  UNL1        0.0896
@<TRIPOS>BOND
     1    15    16    1
     2    16    17    1
     3    17    18    1
     4    17    19    1
     5    16     1    1
     6     1     7    1
     7     7     8   ar
     8     8     9   ar
     9     9    10   ar
    10    10    11    1
    11    10    12   ar
    12    12    13    1
    13    12    14   ar
    14     1     2    1
    15     2     3    1
    16     3     4    1
    17     4     5    1
    18     5     6    1
    19     6     1    1
    20    14     7   ar
@<TRIPOS>MOLECULE
*****
 19 20 0 0 0
SMALL
GASTEIGER

@<TRIPOS>ATOM
      1 C          -9.8339  -17.3773   22.0939 C.3     1  UNL1        0.0324
      2 C          -9.8222  -15.9387   21.6695 C.3     1  UNL1        0.0053
      3 C         -10.6313  -15.4994   20.4853 C.3     1  UNL1        0.0004
      4 C         -11.4522  -16.4989   19.7255 C.3     1  UNL1        0.0000
      5 C         -11.4639  -17.9375   20.1498 C.3     1  UNL1        0.0004
      6 C         -10.6548  -18.3767   21.3341 C.3     1  UNL1        0.0053
      7 C          -8.9051  -16.8090   23.1256 C.ar    1  UNL1       -0.0206
      8 C          -9.4588  -16.2056   24.3822 C.ar    1  UNL1       -0.0033
      9 C          -8.5300  -15.6373   25.4139 C.ar    1  UNL1        0.0119
     10 C          -7.0474  -15.6725   25.1888 C.ar    1  UNL1        0.0682
     11 CL         -6.1185  -15.1041   26.2205 Cl      1  UNL1       -0.0814
     12 C          -6.4936  -16.2758   23.9321 C.ar    1  UNL1        0.0679
     13 CL         -5.0110  -16.3109   23.7071 Cl      1  UNL1       -0.0814
     14 C          -7.4225  -16.8441   22.9005 C.ar    1  UNL1        0.0080
     15 C          -8.3016  -19.4254   22.5493 C.3     1  UNL1        0.0177
     16 C          -9.5231  -18.6186   22.8766 C.3     1  UNL1        0.0613
     17 N         -10.4337  -19.0531   23.9865 N.3     1  UNL1       -0.2713
     18 C         -11.8411  -18.5376   24.0473 C.3     1  UNL1        0.0896
     19 C          -9.9370  -20.0031   25.0357 C.3     1  UNL1        0.0896
@<TRIPOS>BOND
     1    15    16    1
     2    16    17    1
     3    17    18    1
     4    17    19    1
     5    16     1    1
     6     1     7    1
     7     7     8   ar
     8     8     9   ar
     9     9    10   ar
    10    10    11    1
    11    10    12   ar
    12    12    13    1
    13    12    14   ar
    14     1     2    1
    15     2     3    1
    16     3     4    1
    17     4     5    1
    18     5     6    1
    19     6     1    1
    20    14     7   ar
@<TRIPOS>MOLECULE
*****
 19 20 0 0 0
SMALL
GASTEIGER

@<TRIPOS>ATOM
      1 C          -9.4889  -17.7633   21.8883 C.3     1  UNL1        0.0324
      2 C          -9.9998  -16.3556   21.8044 C.3     1  UNL1        0.0053
      3 C         -10.9815  -15.9764   20.7355 C.3     1  UNL1        0.0004
      4 C         -11.4522  -17.0051   19.7505 C.3     1  UNL1        0.0000
      5 C         -10.9413  -18.4129   19.8344 C.3     1  UNL1        0.0004
      6 C          -9.9597  -18.7920   20.9033 C.3     1  UNL1        0.0053
      7 C          -8.7518  -17.1496   23.0416 C.ar    1  UNL1       -0.0206
      8 C          -9.4229  -17.0194   24.3767 C.ar    1  UNL1       -0.0033
      9 C          -8.6858  -16.4056   25.5300 C.ar    1  UNL1        0.0119
     10 C          -7.2776  -15.9221   25.3480 C.ar    1  UNL1        0.0682
     11 CL         -6.5405  -15.3083   26.5013 Cl      1  UNL1       -0.0814
     12 C          -6.6065  -16.0523   24.0129 C.ar    1  UNL1        0.0679
     13 CL         -5.1982  -15.5688   23.8310 Cl      1  UNL1       -0.0814
     14 C          -7.3436  -16.6660   22.8597 C.ar    1  UNL1        0.0080
     15 C          -9.2057  -19.7259   23.5670 C.3     1  UNL1        0.0177
     16 C          -8.7220  -18.9580   22.3727 C.3     1  UNL1        0.0613
     17 N          -7.4714  -19.3847   21.6629 N.3     1  UNL1       -0.2713
     18 C          -6.5198  -20.3357   22.3263 C.3     1  UNL1        0.0896
     19 C          -7.1725  -18.8606   20.2897 C.3     1  UNL1        0.0896
@<TRIPOS>BOND
     1    15    16    1
     2    16    17    1
     3    17    18    1
     4    17    19    1
     5    16     1    1
     6     1     7    1
     7     7     8   ar
     8     8     9   ar
     9     9    10   ar
    10    10    11    1
    11    10    12   ar
    12    12    13    1
    13    12    14   ar
    14     1     2    1
    15     2     3    1
    16     3     4    1
    17     4     5    1
    18     5     6    1
    19     6     1    1
    20    14     7   ar
@<TRIPOS>MOLECULE
*****
 19 20 0 0 0
SMALL
GASTEIGER

@<TRIPOS>ATOM
      1 C         -10.6631  -18.3838   22.1270 C.3     1  UNL1        0.0324
      2 C         -10.0800  -19.0992   23.3094 C.3     1  UNL1        0.0053
      3 C         -10.9038  -19.2974   24.5472 C.3     1  UNL1        0.0004
      4 C         -12.3108  -18.7803   24.6025 C.3     1  UNL1        0.0000
      5 C         -12.8939  -18.0649   23.4201 C.3     1  UNL1        0.0004
      6 C         -12.0701  -17.8666   22.1823 C.3     1  UNL1        0.0053
      7 C          -9.2935  -18.6893   21.5971 C.ar    1  UNL1       -0.0206
      8 C          -9.1379  -19.3848   20.2773 C.ar    1  UNL1       -0.0033
      9 C          -7.7683  -19.6903   19.7474 C.ar    1  UNL1        0.0119
     10 C          -6.5543  -19.3004   20.5374 C.ar    1  UNL1        0.0682
     11 CL         -5.1846  -19.6059   20.0075 Cl      1  UNL1       -0.0814
     12 C          -6.7099  -18.6049   21.8573 C.ar    1  UNL1        0.0679
     13 CL         -5.4959  -18.2149   22.6473 Cl      1  UNL1       -0.0814
     14 C          -8.0795  -18.2994   22.3871 C.ar    1  UNL1        0.0080
     15 C         -11.1306  -18.6317   19.5834 C.3     1  UNL1        0.0177
     16 C         -10.7706  -17.7745   20.7605 C.3     1  UNL1        0.0613
     17 N         -10.5181  -16.3081   20.5712 N.3     1  UNL1       -0.2713
     18 C          -9.6051  -15.5769   21.5103 C.3     1  UNL1        0.0896
     19 C         -11.1784  -15.5729   19.4428 C.3     1  UNL1        0.0896
@<TRIPOS>BOND
     1    15    16    1
     2    16    17    1
     3    17    18    1
     4    17    19    1
     5    16     1    1
     6     1     7    1
     7     7     8   ar
     8     8     9   ar
     9     9    10   ar
    10    10    11    1
    11    10    12   ar
    12    12    13    1
    13    12    14   ar
    14     1     2    1
    15     2     3    1
    16     3     4    1
    17     4     5    1
    18     5     6    1
    19     6     1    1
    20    14     7   ar
@<TRIPOS>MOLECULE
*****
 19 20 0 0 0
SMALL
GASTEIGER

@<TRIPOS>ATOM
      1 C         -10.5248  -17.6467   22.6592 C.3     1  UNL1        0.0324
      2 C         -10.3273  -18.6515   23.7552 C.3     1  UNL1        0.0053
      3 C         -11.4874  -19.0656   24.6111 C.3     1  UNL1        0.0004
      4 C         -12.8452  -18.4749   24.3709 C.3     1  UNL1        0.0000
      5 C         -13.0427  -17.4701   23.2748 C.3     1  UNL1        0.0004
      6 C         -11.8826  -17.0560   22.4189 C.3     1  UNL1        0.0053
      7 C          -9.0589  -17.9216   22.4994 C.ar    1  UNL1       -0.0206
      8 C          -8.0575  -17.1343   23.2914 C.ar    1  UNL1       -0.0033
      9 C          -6.5916  -17.4092   23.1317 C.ar    1  UNL1        0.0119
     10 C          -6.1271  -18.4714   22.1799 C.ar    1  UNL1        0.0682
     11 CL         -4.6611  -18.7462   22.0201 Cl      1  UNL1       -0.0814
     12 C          -7.1285  -19.2587   21.3878 C.ar    1  UNL1        0.0679
     13 CL         -6.6639  -20.3209   20.4360 Cl      1  UNL1       -0.0814
     14 C          -8.5943  -18.9838   21.5476 C.ar    1  UNL1        0.0080
     15 C          -9.2649  -15.5901   21.6932 C.3     1  UNL1        0.0177
     16 C         -10.2133  -16.7374   21.5076 C.3     1  UNL1        0.0613
     17 N         -10.8500  -16.9753   20.1705 N.3     1  UNL1       -0.2713
     18 C         -10.9284  -18.3660   19.6139 C.3     1  UNL1        0.0896
     19 C         -11.4084  -15.8225   19.3899 C.3     1  UNL1        0.0896
@<TRIPOS>BOND
     1    15    16    1
     2    16    17    1
     3    17    18    1
     4    17    19    1
     5    16     1    1
     6     1     7    1
     7     7     8   ar
     8     8     9   ar
     9     9    10   ar
    10    10    11    1
    11    10    12   ar
    12    12    13    1
    13    12    14   ar
    14     1     2    1
    15     2     3    1
    16     3     4    1
    17     4     5    1
    18     5     6    1
    19     6     1    1
    20    14     7   ar
@<TRIPOS>MOLECULE
*****
 19 20 0 0 0
SMALL
GASTEIGER

@<TRIPOS>ATOM
      1 C         -14.4031   -6.6085   18.7255 C.3     1  UNL1        0.0324
      2 C         -13.8751   -7.8652   18.0997 C.3     1  UNL1        0.0053
      3 C         -14.6618   -9.1387   18.1957 C.3     1  UNL1        0.0004
      4 C         -15.9766   -9.1554   18.9176 C.3     1  UNL1        0.0000
      5 C         -16.5047   -7.8987   19.5433 C.3     1  UNL1        0.0004
      6 C         -15.7180   -6.6252   19.4473 C.3     1  UNL1        0.0053
      7 C         -13.1165   -6.0931   18.1518 C.ar    1  UNL1       -0.0206
      8 C         -12.9929   -5.8627   16.6748 C.ar    1  UNL1       -0.0033
      9 C         -11.7063   -5.3474   16.1012 C.ar    1  UNL1        0.0119
     10 C         -10.5433   -5.0624   17.0047 C.ar    1  UNL1        0.0682
     11 CL         -9.2567   -4.5470   16.4310 Cl      1  UNL1       -0.0814
     12 C         -10.6669   -5.2927   18.4817 C.ar    1  UNL1        0.0679
     13 CL         -9.5039   -5.0077   19.3851 Cl      1  UNL1       -0.0814
     14 C         -11.9535   -5.8081   19.0553 C.ar    1  UNL1        0.0080
     15 C         -14.0582   -4.7757   20.5344 C.3     1  UNL1        0.0177
     16 C         -14.4844   -5.1727   19.1521 C.3     1  UNL1        0.0613
     17 N         -14.9917   -4.1339   18.1963 N.3     1  UNL1       -0.2713
     18 C         -14.3236   -2.7929   18.1220 C.3     1  UNL1        0.0896
     19 C         -16.1672   -4.4360   17.3149 C.3     1  UNL1        0.0896
@<TRIPOS>BOND
     1    15    16    1
     2    16    17    1
     3    17    18    1
     4    17    19    1
     5    16     1    1
     6     1     7    1
     7     7     8   ar
     8     8     9   ar
     9     9    10   ar
    10    10    11    1
    11    10    12   ar
    12    12    13    1
    13    12    14   ar
    14     1     2    1
    15     2     3    1
    16     3     4    1
    17     4     5    1
    18     5     6    1
    19     6     1    1
    20    14     7   ar
@<TRIPOS>MOLECULE
*****
 19 20 0 0 0
SMALL
GASTEIGER

@<TRIPOS>ATOM
      1 C         -12.5491   -5.9345   18.5819 C.3     1  UNL1        0.0324
      2 C         -12.0108   -7.2449   18.0890 C.3     1  UNL1        0.0053
      3 C         -10.5323   -7.4979   18.0938 C.3     1  UNL1        0.0004
      4 C          -9.5921   -6.4404   18.5916 C.3     1  UNL1        0.0000
      5 C         -10.1304   -5.1300   19.0845 C.3     1  UNL1        0.0004
      6 C         -11.6089   -4.8770   19.0797 C.3     1  UNL1        0.0053
      7 C         -13.8309   -6.6195   18.2105 C.ar    1  UNL1       -0.0206
      8 C         -14.1412   -6.9004   16.7700 C.ar    1  UNL1       -0.0033
      9 C         -15.4229   -7.5854   16.3987 C.ar    1  UNL1        0.0119
     10 C         -16.3944   -7.9894   17.4678 C.ar    1  UNL1        0.0682
     11 CL        -17.6762   -8.6744   17.0964 Cl      1  UNL1       -0.0814
     12 C         -16.0842   -7.7085   18.9082 C.ar    1  UNL1        0.0679
     13 CL        -17.0557   -8.1126   19.9772 Cl      1  UNL1       -0.0814
     14 C         -14.8024   -7.0236   19.2795 C.ar    1  UNL1        0.0080
     15 C         -13.9264   -4.6605   20.3791 C.3     1  UNL1        0.0177
     16 C         -13.5326   -4.8620   18.9458 C.3     1  UNL1        0.0613
     17 N         -14.1223   -3.9909   17.8765 N.3     1  UNL1       -0.2713
     18 C         -13.2459   -3.4369   16.7924 C.3     1  UNL1        0.0896
     19 C         -15.5883   -3.6737   17.8911 C.3     1  UNL1        0.0896
@<TRIPOS>BOND
     1    15    16    1
     2    16    17    1
     3    17    18    1
     4    17    19    1
     5    16     1    1
     6     1     7    1
     7     7     8   ar
     8     8     9   ar
     9     9    10   ar
    10    10    11    1
    11    10    12   ar
    12    12    13    1
    13    12    14   ar
    14     1     2    1
    15     2     3    1
    16     3     4    1
    17     4     5    1
    18     5     6    1
    19     6     1    1
    20    14     7   ar
@<TRIPOS>MOLECULE
*****
 19 20 0 0 0
SMALL
GASTEIGER

@<TRIPOS>ATOM
      1 C           2.8815   -0.2560   19.0408 C.3     1  UNL1        0.0324
      2 C           2.2553   -0.7770   20.3003 C.3     1  UNL1        0.0053
      3 C           0.9436   -0.2221   20.7709 C.3     1  UNL1        0.0004
      4 C           0.2581    0.8540   19.9820 C.3     1  UNL1        0.0000
      5 C           0.8843    1.3750   18.7225 C.3     1  UNL1        0.0004
      6 C           2.1960    0.8200   18.2519 C.3     1  UNL1        0.0053
      7 C           3.9083   -1.2739   19.4405 C.ar    1  UNL1       -0.0206
      8 C           5.0173   -0.8931   20.3759 C.ar    1  UNL1       -0.0033
      9 C           6.0441   -1.9109   20.7755 C.ar    1  UNL1        0.0119
     10 C           5.9618   -3.3096   20.2397 C.ar    1  UNL1        0.0682
     11 CL          6.9886   -4.3274   20.6394 Cl      1  UNL1       -0.0814
     12 C           4.8528   -3.6903   19.3043 C.ar    1  UNL1        0.0679
     13 CL          4.7705   -5.0890   18.7686 Cl      1  UNL1       -0.0814
     14 C           3.8260   -2.6725   18.9047 C.ar    1  UNL1        0.0080
     15 C           3.7422   -0.9288   16.6836 C.3     1  UNL1        0.0177
     16 C           3.8643   -0.0885   17.9201 C.3     1  UNL1        0.0613
     17 N           4.9692    0.9194   18.0359 N.3     1  UNL1       -0.2713
     18 C           4.7544    2.1813   18.8179 C.3     1  UNL1        0.0896
     19 C           6.2889    0.6653   17.3697 C.3     1  UNL1        0.0896
@<TRIPOS>BOND
     1    15    16    1
     2    16    17    1
     3    17    18    1
     4    17    19    1
     5    16     1    1
     6     1     7    1
     7     7     8   ar
     8     8     9   ar
     9     9    10   ar
    10    10    11    1
    11    10    12   ar
    12    12    13    1
    13    12    14   ar
    14     1     2    1
    15     2     3    1
    16     3     4    1
    17     4     5    1
    18     5     6    1
    19     6     1    1
    20    14     7   ar
