@<TRIPOS>MOLECULE
*****
 28 31 0 0 0
SMALL
GASTEIGER

@<TRIPOS>ATOM
      1 C         -10.8195  -18.3033   23.1669 C.ar    1  UNL1        0.1281
      2 N         -10.3780  -17.5372   24.3786 N.ar    1  UNL1       -0.1588
      3 N          -8.9170  -17.2328   24.2275 N.ar    1  UNL1       -0.2292
      4 C          -8.4556  -17.8107   22.9224 C.ar    1  UNL1        0.0860
      5 C          -7.1167  -17.8200   22.2463 C.ar    1  UNL1        0.0339
      6 C          -6.9537  -18.4909   20.9147 C.ar    1  UNL1        0.0518
      7 C          -8.1295  -19.1525   20.2592 C.ar    1  UNL1        0.0148
      8 C          -9.4684  -19.1432   20.9353 C.ar    1  UNL1        0.0048
      9 C          -9.6315  -18.4724   22.2669 C.ar    1  UNL1        0.0430
     10 C          -8.0667  -16.4822   25.2091 C.ar    1  UNL1        0.0828
     11 C          -8.5157  -16.3367   26.6329 C.ar    1  UNL1        0.0191
     12 C          -7.6654  -15.5861   27.6145 C.ar    1  UNL1        0.0015
     13 C          -6.3660  -14.9810   27.1724 C.ar    1  UNL1        0.0001
     14 C          -5.9171  -15.1265   25.7486 C.ar    1  UNL1        0.0015
     15 C          -6.7674  -15.8771   24.7670 C.ar    1  UNL1        0.0191
     16 N          -5.6147  -18.5002   20.2384 N.am    1  UNL1       -0.2839
     17 C          -4.3764  -18.1808   21.0224 C.2     1  UNL1        0.2257
     18 O          -4.4770  -17.8522   22.4825 O.2     1  UNL1       -0.2748
     19 H          -5.5487  -18.7159   19.2801 H       1  UNL1        0.1549
     20 C          -3.0375  -18.1901   20.3462 C.3     1  UNL1        0.0796
     21 C          -2.9189  -17.7692   18.9114 C.3     1  UNL1        0.0262
     22 C          -1.5799  -17.7785   18.2352 C.3     1  UNL1        0.0691
     23 N          -0.3596  -18.2087   18.9939 N.3     1  UNL1       -0.2974
     24 C          -0.4781  -18.6296   20.4288 C.3     1  UNL1        0.0691
     25 C          -1.8170  -18.6203   21.1049 C.3     1  UNL1        0.0262
     26 H           0.2934  -17.4255   18.9698 H       1  UNL1        0.1232
     27 C         -13.3950  -18.0189   23.3581 C.3     1  UNL1        0.0757
     28 S         -12.2058  -18.8112   22.9017 S.3     1  UNL1       -0.0923
@<TRIPOS>BOND
     1    27    28    1
     2    28     1    1
     3     1     2   ar
     4     2     3   ar
     5     3    10    1
     6    10    11   ar
     7    11    12   ar
     8    12    13   ar
     9    13    14   ar
    10    14    15   ar
    11     3     4   ar
    12     4     5   ar
    13     5     6   ar
    14     6    16    1
    15    16    17   am
    16    17    18    2
    17    17    20    1
    18    20    21    1
    19    21    22    1
    20    22    23    1
    21    23    24    1
    22    24    25    1
    23     6     7   ar
    24     7     8   ar
    25     8     9   ar
    26     9     1   ar
    27    15    10   ar
    28     9     4   ar
    29    25    20    1
    30    16    19    1
    31    23    26    1
@<TRIPOS>MOLECULE
*****
 28 31 0 0 0
SMALL
GASTEIGER

@<TRIPOS>ATOM
      1 C          -2.4864    3.8563   25.1336 C.ar    1  UNL1        0.1281
      2 N          -2.0363    3.1895   26.3996 N.ar    1  UNL1       -0.1588
      3 N          -0.8631    2.3147   26.0708 N.ar    1  UNL1       -0.2292
      4 C          -0.5881    2.4407   24.6016 C.ar    1  UNL1        0.0860
      5 C           0.4462    1.8110   23.7164 C.ar    1  UNL1        0.0339
      6 C           0.4772    2.1342   22.2520 C.ar    1  UNL1        0.0518
      7 C          -0.5261    3.0870   21.6728 C.ar    1  UNL1        0.0148
      8 C          -1.5605    3.7167   22.5580 C.ar    1  UNL1        0.0048
      9 C          -1.5914    3.3935   24.0224 C.ar    1  UNL1        0.0430
     10 C          -0.0989    1.4632   27.0409 C.ar    1  UNL1        0.0828
     11 C          -0.8342    0.5731   27.9987 C.ar    1  UNL1        0.0191
     12 C          -0.0701   -0.2784   28.9687 C.ar    1  UNL1        0.0015
     13 C           1.4294   -0.2399   28.9811 C.ar    1  UNL1        0.0001
     14 C           2.1646    0.6501   28.0233 C.ar    1  UNL1        0.0015
     15 C           1.4005    1.5016   27.0533 C.ar    1  UNL1        0.0191
     16 N           1.5115    1.5044   21.3667 N.am    1  UNL1       -0.2839
     17 C           1.1580    0.3080   20.5339 C.2     1  UNL1        0.2257
     18 O          -0.2299   -0.2587   20.5863 O.2     1  UNL1       -0.2748
     19 H           2.4224    1.8764   21.3323 H       1  UNL1        0.1549
     20 C           2.1922   -0.3217   19.6486 C.3     1  UNL1        0.0796
     21 C           2.9318   -1.5423   20.1102 C.3     1  UNL1        0.0262
     22 C           3.9661   -2.1720   19.2248 C.3     1  UNL1        0.0691
     23 N           4.2608   -1.5811   17.8780 N.3     1  UNL1       -0.2974
     24 C           3.5212   -0.3605   17.4165 C.3     1  UNL1        0.0691
     25 C           2.4869    0.2693   18.3017 C.3     1  UNL1        0.0262
     26 H           4.0808   -2.3122   17.1899 H       1  UNL1        0.1232
     27 C          -5.0002    4.4211   25.4686 C.3     1  UNL1        0.0757
     28 S          -3.6307    4.8172   25.0019 S.3     1  UNL1       -0.0923
@<TRIPOS>BOND
     1    27    28    1
     2    28     1    1
     3     1     2   ar
     4     2     3   ar
     5     3    10    1
     6    10    11   ar
     7    11    12   ar
     8    12    13   ar
     9    13    14   ar
    10    14    15   ar
    11     3     4   ar
    12     4     5   ar
    13     5     6   ar
    14     6    16    1
    15    16    17   am
    16    17    18    2
    17    17    20    1
    18    20    21    1
    19    21    22    1
    20    22    23    1
    21    23    24    1
    22    24    25    1
    23     6     7   ar
    24     7     8   ar
    25     8     9   ar
    26     9     1   ar
    27    15    10   ar
    28     9     4   ar
    29    25    20    1
    30    16    19    1
    31    23    26    1
@<TRIPOS>MOLECULE
*****
 28 31 0 0 0
SMALL
GASTEIGER

@<TRIPOS>ATOM
      1 C           2.8169    2.2821   37.1815 C.ar    1  UNL1        0.1281
      2 N           2.0191    3.0842   36.1965 N.ar    1  UNL1       -0.1588
      3 N           2.4063    2.6414   34.8166 N.ar    1  UNL1       -0.2292
      4 C           3.4434    1.5658   34.9488 C.ar    1  UNL1        0.0860
      5 C           4.1895    0.7599   33.9271 C.ar    1  UNL1        0.0339
      6 C           5.1893   -0.2680   34.3671 C.ar    1  UNL1        0.0518
      7 C           5.4431   -0.4901   35.8287 C.ar    1  UNL1        0.0148
      8 C           4.6970    0.3158   36.8503 C.ar    1  UNL1        0.0048
      9 C           3.6972    1.3438   36.4104 C.ar    1  UNL1        0.0430
     10 C           1.8535    3.1798   33.5303 C.ar    1  UNL1        0.0828
     11 C           1.2581    2.2444   32.5200 C.ar    1  UNL1        0.0191
     12 C           0.7053    2.7827   31.2337 C.ar    1  UNL1        0.0015
     13 C           0.7478    4.2565   30.9577 C.ar    1  UNL1        0.0001
     14 C           1.3431    5.1919   31.9679 C.ar    1  UNL1        0.0015
     15 C           1.8959    4.6535   33.2542 C.ar    1  UNL1        0.0191
     16 N           5.9354   -1.0740   33.3454 N.am    1  UNL1       -0.2839
     17 C           5.3336   -2.3348   32.7994 C.2     1  UNL1        0.2257
     18 O           3.9856   -2.7897   33.2750 O.2     1  UNL1       -0.2748
     19 H           6.8201   -0.7755   33.0332 H       1  UNL1        0.1549
     20 C           6.0796   -3.1408   31.7777 C.3     1  UNL1        0.0796
     21 C           6.5924   -4.5062   32.1281 C.3     1  UNL1        0.0262
     22 C           7.3385   -5.3121   31.1064 C.3     1  UNL1        0.0691
     23 N           7.5718   -4.7527   29.7343 N.3     1  UNL1       -0.2974
     24 C           7.0590   -3.3873   29.3839 C.3     1  UNL1        0.0691
     25 C           6.3130   -2.5814   30.4056 C.3     1  UNL1        0.0262
     26 H           7.1478   -5.4048   29.0745 H       1  UNL1        0.1232
     27 C           1.4146    2.4113   39.3649 C.3     1  UNL1        0.0757
     28 S           2.7468    2.3981   38.6754 S.3     1  UNL1       -0.0923
@<TRIPOS>BOND
     1    27    28    1
     2    28     1    1
     3     1     2   ar
     4     2     3   ar
     5     3    10    1
     6    10    11   ar
     7    11    12   ar
     8    12    13   ar
     9    13    14   ar
    10    14    15   ar
    11     3     4   ar
    12     4     5   ar
    13     5     6   ar
    14     6    16    1
    15    16    17   am
    16    17    18    2
    17    17    20    1
    18    20    21    1
    19    21    22    1
    20    22    23    1
    21    23    24    1
    22    24    25    1
    23     6     7   ar
    24     7     8   ar
    25     8     9   ar
    26     9     1   ar
    27    15    10   ar
    28     9     4   ar
    29    25    20    1
    30    16    19    1
    31    23    26    1
@<TRIPOS>MOLECULE
*****
 28 31 0 0 0
SMALL
GASTEIGER

@<TRIPOS>ATOM
      1 C          -2.2483    4.0622   23.8081 C.ar    1  UNL1        0.1281
      2 N          -3.2915    4.2761   22.7518 N.ar    1  UNL1       -0.1588
      3 N          -2.7600    3.7325   21.4587 N.ar    1  UNL1       -0.2292
      4 C          -1.3884    3.1826   21.7159 C.ar    1  UNL1        0.0860
      5 C          -0.3866    2.5226   20.8155 C.ar    1  UNL1        0.0339
      6 C           0.9316    2.0664   21.3672 C.ar    1  UNL1        0.0518
      7 C           1.2479    2.2702   22.8192 C.ar    1  UNL1        0.0148
      8 C           0.2461    2.9302   23.7196 C.ar    1  UNL1        0.0048
      9 C          -1.0721    3.3863   23.1679 C.ar    1  UNL1        0.0430
     10 C          -3.4748    3.7378   20.1399 C.ar    1  UNL1        0.0828
     11 C          -4.9293    3.3771   20.0737 C.ar    1  UNL1        0.0191
     12 C          -5.6440    3.3824   18.7549 C.ar    1  UNL1        0.0015
     13 C          -4.9043    3.7485   17.5024 C.ar    1  UNL1        0.0001
     14 C          -3.4498    4.1092   17.5687 C.ar    1  UNL1        0.0015
     15 C          -2.7351    4.1039   18.8875 C.ar    1  UNL1        0.0191
     16 N           1.9335    1.4065   20.4668 N.am    1  UNL1       -0.2839
     17 C           1.7188   -0.0077   20.0150 C.2     1  UNL1        0.2257
     18 O           0.5023   -0.7619   20.4637 O.2     1  UNL1       -0.2748
     19 H           2.7319    1.9015   20.1723 H       1  UNL1        0.1549
     20 C           2.7207   -0.6677   19.1147 C.3     1  UNL1        0.0796
     21 C           3.0855   -0.0327   17.8056 C.3     1  UNL1        0.0262
     22 C           4.0874   -0.6928   16.9052 C.3     1  UNL1        0.0691
     23 N           4.7244   -1.9878   17.3140 N.3     1  UNL1       -0.2974
     24 C           4.3596   -2.6228   18.6231 C.3     1  UNL1        0.0691
     25 C           3.3578   -1.9628   19.5234 C.3     1  UNL1        0.0262
     26 H           5.7314   -1.8267   17.3353 H       1  UNL1        0.1232
     27 C          -3.1901    5.6427   25.6426 C.3     1  UNL1        0.0757
     28 S          -2.3613    4.4551   25.2513 S.3     1  UNL1       -0.0923
@<TRIPOS>BOND
     1    27    28    1
     2    28     1    1
     3     1     2   ar
     4     2     3   ar
     5     3    10    1
     6    10    11   ar
     7    11    12   ar
     8    12    13   ar
     9    13    14   ar
    10    14    15   ar
    11     3     4   ar
    12     4     5   ar
    13     5     6   ar
    14     6    16    1
    15    16    17   am
    16    17    18    2
    17    17    20    1
    18    20    21    1
    19    21    22    1
    20    22    23    1
    21    23    24    1
    22    24    25    1
    23     6     7   ar
    24     7     8   ar
    25     8     9   ar
    26     9     1   ar
    27    15    10   ar
    28     9     4   ar
    29    25    20    1
    30    16    19    1
    31    23    26    1
@<TRIPOS>MOLECULE
*****
 28 31 0 0 0
SMALL
GASTEIGER

@<TRIPOS>ATOM
      1 C           6.8006   -2.5778   20.9015 C.ar    1  UNL1        0.1281
      2 N           5.8662   -1.9723   19.8964 N.ar    1  UNL1       -0.1588
      3 N           4.6631   -1.4604   20.6315 N.ar    1  UNL1       -0.2292
      4 C           4.8539   -1.7494   22.0910 C.ar    1  UNL1        0.0860
      5 C           3.9954   -1.4729   23.2895 C.ar    1  UNL1        0.0339
      6 C           4.4580   -1.8871   24.6549 C.ar    1  UNL1        0.0518
      7 C           5.7791   -2.5777   24.8218 C.ar    1  UNL1        0.0148
      8 C           6.6376   -2.8542   23.6233 C.ar    1  UNL1        0.0048
      9 C           6.1750   -2.4400   22.2579 C.ar    1  UNL1        0.0430
     10 C           3.4773   -0.7790   20.0153 C.ar    1  UNL1        0.0828
     11 C           2.1069   -0.9980   20.5847 C.ar    1  UNL1        0.0191
     12 C           0.9211   -0.3166   19.9685 C.ar    1  UNL1        0.0015
     13 C           1.1057    0.5838   18.7831 C.ar    1  UNL1        0.0001
     14 C           2.4761    0.8027   18.2138 C.ar    1  UNL1        0.0015
     15 C           3.6618    0.1213   18.8300 C.ar    1  UNL1        0.0191
     16 N           3.5995   -1.6107   25.8536 N.am    1  UNL1       -0.2839
     17 C           3.8342   -0.3784   26.6761 C.2     1  UNL1        0.2257
     18 O           4.9274    0.5774   26.2999 O.2     1  UNL1       -0.2748
     19 H           2.8820   -2.2380   26.1004 H       1  UNL1        0.1549
     20 C           2.9758   -0.1019   27.8746 C.3     1  UNL1        0.0796
     21 C           1.7454    0.7449   27.7367 C.3     1  UNL1        0.0262
     22 C           0.8870    1.0213   28.9354 C.3     1  UNL1        0.0691
     23 N           1.2589    0.4510   30.2719 N.3     1  UNL1       -0.2974
     24 C           2.4894   -0.3958   30.4098 C.3     1  UNL1        0.0691
     25 C           3.3478   -0.6723   29.2112 C.3     1  UNL1        0.0262
     26 H           0.4718   -0.1214   30.5771 H       1  UNL1        0.1232
     27 C           8.3869   -4.6331   21.0002 C.3     1  UNL1        0.0757
     28 S           8.1276   -3.2100   20.6028 S.3     1  UNL1       -0.0923
@<TRIPOS>BOND
     1    27    28    1
     2    28     1    1
     3     1     2   ar
     4     2     3   ar
     5     3    10    1
     6    10    11   ar
     7    11    12   ar
     8    12    13   ar
     9    13    14   ar
    10    14    15   ar
    11     3     4   ar
    12     4     5   ar
    13     5     6   ar
    14     6    16    1
    15    16    17   am
    16    17    18    2
    17    17    20    1
    18    20    21    1
    19    21    22    1
    20    22    23    1
    21    23    24    1
    22    24    25    1
    23     6     7   ar
    24     7     8   ar
    25     8     9   ar
    26     9     1   ar
    27    15    10   ar
    28     9     4   ar
    29    25    20    1
    30    16    19    1
    31    23    26    1
@<TRIPOS>MOLECULE
*****
 28 31 0 0 0
SMALL
GASTEIGER

@<TRIPOS>ATOM
      1 C          -1.2067    4.8604   19.4153 C.ar    1  UNL1        0.1281
      2 N          -1.6898    5.0411   20.8238 N.ar    1  UNL1       -0.1588
      3 N          -1.2930    3.8264   21.6093 N.ar    1  UNL1       -0.2292
      4 C          -0.5646    2.8950   20.6864 C.ar    1  UNL1        0.0860
      5 C           0.0569    1.5475   20.9055 C.ar    1  UNL1        0.0339
      6 C           0.7317    0.8391   19.7685 C.ar    1  UNL1        0.0518
      7 C           0.7851    1.4781   18.4125 C.ar    1  UNL1        0.0148
      8 C           0.1636    2.8256   18.1934 C.ar    1  UNL1        0.0048
      9 C          -0.5113    3.5340   19.3303 C.ar    1  UNL1        0.0430
     10 C          -1.5750    3.5855   23.0628 C.ar    1  UNL1        0.0828
     11 C          -2.9424    3.8574   23.6166 C.ar    1  UNL1        0.0191
     12 C          -3.2244    3.6164   25.0700 C.ar    1  UNL1        0.0015
     13 C          -2.1392    3.1036   25.9696 C.ar    1  UNL1        0.0001
     14 C          -0.7719    2.8317   25.4158 C.ar    1  UNL1        0.0015
     15 C          -0.4899    3.0727   23.9624 C.ar    1  UNL1        0.0191
     16 N           1.3533   -0.5084   19.9876 N.am    1  UNL1       -0.2839
     17 C           2.8263   -0.6216   20.2474 C.2     1  UNL1        0.2257
     18 O           3.6777    0.6127   20.2881 O.2     1  UNL1       -0.2748
     19 H           0.7944   -1.3185   19.9609 H       1  UNL1        0.1549
     20 C           3.4478   -1.9691   20.4665 C.3     1  UNL1        0.0796
     21 C           3.4776   -2.9716   19.3511 C.3     1  UNL1        0.0262
     22 C           4.0992   -4.3191   19.5702 C.3     1  UNL1        0.0691
     23 N           4.6910   -4.6640   20.9047 N.3     1  UNL1       -0.2974
     24 C           4.6612   -3.6615   22.0201 C.3     1  UNL1        0.0691
     25 C           4.0396   -2.3140   21.8010 C.3     1  UNL1        0.0262
     26 H           5.6713   -4.8939   20.7415 H       1  UNL1        0.1232
     27 C          -2.4592    5.6073   17.2650 C.3     1  UNL1        0.0757
     28 S          -1.3872    5.8349   18.2894 S.3     1  UNL1       -0.0923
@<TRIPOS>BOND
     1    27    28    1
     2    28     1    1
     3     1     2   ar
     4     2     3   ar
     5     3    10    1
     6    10    11   ar
     7    11    12   ar
     8    12    13   ar
     9    13    14   ar
    10    14    15   ar
    11     3     4   ar
    12     4     5   ar
    13     5     6   ar
    14     6    16    1
    15    16    17   am
    16    17    18    2
    17    17    20    1
    18    20    21    1
    19    21    22    1
    20    22    23    1
    21    23    24    1
    22    24    25    1
    23     6     7   ar
    24     7     8   ar
    25     8     9   ar
    26     9     1   ar
    27    15    10   ar
    28     9     4   ar
    29    25    20    1
    30    16    19    1
    31    23    26    1
@<TRIPOS>MOLECULE
*****
 28 31 0 0 0
SMALL
GASTEIGER

@<TRIPOS>ATOM
      1 C           3.6630   -0.9621   24.4969 C.ar    1  UNL1        0.1281
      2 N           4.4204   -1.8190   23.5263 N.ar    1  UNL1       -0.1588
      3 N           3.8264   -1.6125   22.1645 N.ar    1  UNL1       -0.2292
      4 C           2.7021   -0.6281   22.2934 C.ar    1  UNL1        0.0860
      5 C           1.7572   -0.0458   21.2845 C.ar    1  UNL1        0.0339
      6 C           0.7113    0.9385   21.7171 C.ar    1  UNL1        0.0518
      7 C           0.6103    1.3405   23.1587 C.ar    1  UNL1        0.0148
      8 C           1.5552    0.7583   24.1676 C.ar    1  UNL1        0.0048
      9 C           2.6011   -0.2261   23.7350 C.ar    1  UNL1        0.0430
     10 C           4.2777   -2.2744   20.8962 C.ar    1  UNL1        0.0828
     11 C           4.2930   -3.7710   20.7956 C.ar    1  UNL1        0.0191
     12 C           4.7442   -4.4329   19.5274 C.ar    1  UNL1        0.0015
     13 C           5.1801   -3.5982   18.3598 C.ar    1  UNL1        0.0001
     14 C           5.1648   -2.1017   18.4604 C.ar    1  UNL1        0.0015
     15 C           4.7136   -1.4398   19.7287 C.ar    1  UNL1        0.0191
     16 N          -0.2337    1.5208   20.7081 N.am    1  UNL1       -0.2839
     17 C           0.0870    2.8289   20.0477 C.2     1  UNL1        0.2257
     18 O           1.3527    3.5546   20.3963 O.2     1  UNL1       -0.2748
     19 H          -1.0644    1.0445   20.4793 H       1  UNL1        0.1549
     20 C          -0.8579    3.4113   19.0388 C.3     1  UNL1        0.0796
     21 C          -2.2302    3.8463   19.4600 C.3     1  UNL1        0.0262
     22 C          -3.1751    4.4287   18.4510 C.3     1  UNL1        0.0691
     23 N          -2.7477    4.5760   17.0208 N.3     1  UNL1       -0.2974
     24 C          -1.3753    4.1409   16.5995 C.3     1  UNL1        0.0691
     25 C          -0.4304    3.5586   17.6085 C.3     1  UNL1        0.0262
     26 H          -2.8262    5.5665   16.7905 H       1  UNL1        0.1232
     27 C           5.2653   -1.2335   26.5241 C.3     1  UNL1        0.0757
     28 S           3.9222   -0.8592   25.9708 S.3     1  UNL1       -0.0923
@<TRIPOS>BOND
     1    27    28    1
     2    28     1    1
     3     1     2   ar
     4     2     3   ar
     5     3    10    1
     6    10    11   ar
     7    11    12   ar
     8    12    13   ar
     9    13    14   ar
    10    14    15   ar
    11     3     4   ar
    12     4     5   ar
    13     5     6   ar
    14     6    16    1
    15    16    17   am
    16    17    18    2
    17    17    20    1
    18    20    21    1
    19    21    22    1
    20    22    23    1
    21    23    24    1
    22    24    25    1
    23     6     7   ar
    24     7     8   ar
    25     8     9   ar
    26     9     1   ar
    27    15    10   ar
    28     9     4   ar
    29    25    20    1
    30    16    19    1
    31    23    26    1
@<TRIPOS>MOLECULE
*****
 28 31 0 0 0
SMALL
GASTEIGER

@<TRIPOS>ATOM
      1 C           4.8262   -1.2389   29.2325 C.ar    1  UNL1        0.1281
      2 N           3.4919   -0.6275   29.5420 N.ar    1  UNL1       -0.1588
      3 N           2.8008   -0.3407   28.2420 N.ar    1  UNL1       -0.2292
      4 C           3.7079   -0.7748   27.1290 C.ar    1  UNL1        0.0860
      5 C           3.5558   -0.7364   25.6373 C.ar    1  UNL1        0.0339
      6 C           4.6555   -1.2531   24.7577 C.ar    1  UNL1        0.0518
      7 C           5.9074   -1.8082   25.3699 C.ar    1  UNL1        0.0148
      8 C           6.0595   -1.8466   26.8617 C.ar    1  UNL1        0.0048
      9 C           4.9598   -1.3299   27.7412 C.ar    1  UNL1        0.0430
     10 C           1.4412    0.2726   28.0828 C.ar    1  UNL1        0.0828
     11 C           0.2706   -0.2941   28.8304 C.ar    1  UNL1        0.0191
     12 C          -1.0891    0.3192   28.6712 C.ar    1  UNL1        0.0015
     13 C          -1.2782    1.4990   27.7645 C.ar    1  UNL1        0.0001
     14 C          -0.1076    2.0656   27.0169 C.ar    1  UNL1        0.0015
     15 C           1.2520    1.4524   27.1761 C.ar    1  UNL1        0.0191
     16 N           4.5035   -1.2146   23.2659 N.am    1  UNL1       -0.2839
     17 C           4.4767   -2.4930   22.4816 C.2     1  UNL1        0.2257
     18 O           4.6021   -3.8097   23.1891 O.2     1  UNL1       -0.2748
     19 H           4.4212   -0.3504   22.8016 H       1  UNL1        0.1549
     20 C           4.3247   -2.4546   20.9899 C.3     1  UNL1        0.0796
     21 C           4.7787   -3.6184   20.1595 C.3     1  UNL1        0.0262
     22 C           4.6266   -3.5799   18.6677 C.3     1  UNL1        0.0691
     23 N           4.0205   -2.3778   18.0063 N.3     1  UNL1       -0.2974
     24 C           3.5665   -1.2140   18.8367 C.3     1  UNL1        0.0691
     25 C           3.7186   -1.2524   20.3284 C.3     1  UNL1        0.0262
     26 H           3.2051   -2.7062   17.4888 H       1  UNL1        0.1232
     27 C           5.6209   -1.4284   31.6989 C.3     1  UNL1        0.0757
     28 S           5.8478   -1.6815   30.2378 S.3     1  UNL1       -0.0923
@<TRIPOS>BOND
     1    27    28    1
     2    28     1    1
     3     1     2   ar
     4     2     3   ar
     5     3    10    1
     6    10    11   ar
     7    11    12   ar
     8    12    13   ar
     9    13    14   ar
    10    14    15   ar
    11     3     4   ar
    12     4     5   ar
    13     5     6   ar
    14     6    16    1
    15    16    17   am
    16    17    18    2
    17    17    20    1
    18    20    21    1
    19    21    22    1
    20    22    23    1
    21    23    24    1
    22    24    25    1
    23     6     7   ar
    24     7     8   ar
    25     8     9   ar
    26     9     1   ar
    27    15    10   ar
    28     9     4   ar
    29    25    20    1
    30    16    19    1
    31    23    26    1
@<TRIPOS>MOLECULE
*****
 28 31 0 0 0
SMALL
GASTEIGER

@<TRIPOS>ATOM
      1 C           4.3341   -2.1514   19.1153 C.ar    1  UNL1        0.1281
      2 N           3.7897   -1.0240   18.2892 N.ar    1  UNL1       -0.1588
      3 N           3.1395   -0.0412   19.2173 N.ar    1  UNL1       -0.2292
      4 C           3.2820   -0.5613   20.6170 C.ar    1  UNL1        0.0860
      5 C           2.8349   -0.0158   21.9408 C.ar    1  UNL1        0.0339
      6 C           3.1261   -0.7744   23.2015 C.ar    1  UNL1        0.0518
      7 C           3.8644   -2.0786   23.1385 C.ar    1  UNL1        0.0148
      8 C           4.3115   -2.6242   21.8147 C.ar    1  UNL1        0.0048
      9 C           4.0203   -1.8655   20.5540 C.ar    1  UNL1        0.0430
     10 C           2.4652    1.2372   18.8161 C.ar    1  UNL1        0.0828
     11 C           3.2702    2.4936   18.6624 C.ar    1  UNL1        0.0191
     12 C           2.5958    3.7720   18.2612 C.ar    1  UNL1        0.0015
     13 C           1.1166    3.7941   18.0137 C.ar    1  UNL1        0.0001
     14 C           0.3116    2.5377   18.1674 C.ar    1  UNL1        0.0015
     15 C           0.9860    1.2593   18.5686 C.ar    1  UNL1        0.0191
     16 N           2.6790   -0.2289   24.5254 N.am    1  UNL1       -0.2839
     17 C           1.5059    0.7033   24.5949 C.2     1  UNL1        0.2257
     18 O           0.7799    1.0900   23.3404 O.2     1  UNL1       -0.2748
     19 H           3.1554   -0.4827   25.3487 H       1  UNL1        0.1549
     20 C           1.0587    1.2488   25.9186 C.3     1  UNL1        0.0796
     21 C          -0.4022    1.4521   26.1912 C.3     1  UNL1        0.0262
     22 C          -0.8493    1.9977   27.5151 C.3     1  UNL1        0.0691
     23 N           0.1645    2.3399   28.5663 N.3     1  UNL1       -0.2974
     24 C           1.6254    2.1365   28.2937 C.3     1  UNL1        0.0691
     25 C           2.0726    1.5910   26.9699 C.3     1  UNL1        0.0262
     26 H          -0.0625    1.7795   29.3878 H       1  UNL1        0.1232
     27 C           4.4899   -4.7250   18.7948 C.3     1  UNL1        0.0757
     28 S           5.0641   -3.3538   18.5943 S.3     1  UNL1       -0.0923
@<TRIPOS>BOND
     1    27    28    1
     2    28     1    1
     3     1     2   ar
     4     2     3   ar
     5     3    10    1
     6    10    11   ar
     7    11    12   ar
     8    12    13   ar
     9    13    14   ar
    10    14    15   ar
    11     3     4   ar
    12     4     5   ar
    13     5     6   ar
    14     6    16    1
    15    16    17   am
    16    17    18    2
    17    17    20    1
    18    20    21    1
    19    21    22    1
    20    22    23    1
    21    23    24    1
    22    24    25    1
    23     6     7   ar
    24     7     8   ar
    25     8     9   ar
    26     9     1   ar
    27    15    10   ar
    28     9     4   ar
    29    25    20    1
    30    16    19    1
    31    23    26    1
