@<TRIPOS>MOLECULE
*****
 29 32 0 0 0
SMALL
GASTEIGER

@<TRIPOS>ATOM
      1 C          -8.6396  -18.7173   21.4898 C.ar    1  UNL1        0.1215
      2 N          -9.9600  -19.4131   21.3400 N.ar    1  UNL1       -0.2309
      3 C         -11.0380  -18.4563   21.7553 C.ar    1  UNL1        0.0983
      4 C         -12.5307  -18.5908   21.8158 C.ar    1  UNL1        0.0206
      5 C         -13.3692  -17.4381   22.2828 C.ar    1  UNL1        0.0016
      6 C         -12.7151  -16.1510   22.6893 C.ar    1  UNL1        0.0016
      7 C         -11.2224  -16.0164   22.6288 C.ar    1  UNL1        0.0188
      8 C         -10.3838  -17.1691   22.1618 C.ar    1  UNL1        0.0789
      9 N          -8.9016  -17.3305   21.9977 N.ar    1  UNL1       -0.3106
     10 N          -4.7224  -19.3505   21.5547 N.3     1  UNL1       -0.2646
     11 C          -4.6017  -20.4809   20.5761 C.3     1  UNL1        0.0725
     12 C          -5.8269  -21.0234   19.9021 C.3     1  UNL1        0.0178
     13 C          -7.1729  -20.4355   20.2066 C.3     1  UNL1        0.0103
     14 C          -7.2936  -19.3052   21.1852 C.3     1  UNL1        0.0729
     15 C          -6.0684  -18.7627   21.8592 C.3     1  UNL1        0.0800
     16 C          -3.4971  -18.8079   22.2287 C.3     1  UNL1        0.1587
     17 C          -0.1790  -17.5681   20.4390 C.3     1  UNL1        0.1149
     18 N          -1.4992  -17.5445   21.1508 N.am    1  UNL1       -0.2749
     19 C          -2.1416  -16.2338   21.4964 C.3     1  UNL1        0.1149
     20 C          -2.1769  -18.8315   21.5170 C.2     1  UNL1        0.2421
     21 O          -1.5345  -20.1423   21.1713 O.2     1  UNL1       -0.2734
     22 C          -7.8635  -16.2879   22.2902 C.3     1  UNL1        0.1339
     23 C          -7.4956  -15.9734   23.7099 C.ar    1  UNL1        0.0006
     24 C          -8.5542  -15.9550   24.7726 C.ar    1  UNL1       -0.0001
     25 C          -8.1863  -15.6405   26.1923 C.ar    1  UNL1        0.0294
     26 C          -6.7598  -15.3443   26.5494 C.ar    1  UNL1        0.1401
     27 F          -6.3920  -15.0298   27.9692 F       1  UNL1       -0.2042
     28 C          -5.7013  -15.3627   25.4868 C.ar    1  UNL1        0.0294
     29 C          -6.0692  -15.6772   24.0671 C.ar    1  UNL1       -0.0001
@<TRIPOS>BOND
     1    17    18    1
     2    18    19    1
     3    18    20   am
     4    20    21    2
     5    20    16    1
     6    16    10    1
     7    10    11    1
     8    11    12    1
     9    12    13    1
    10    13    14    1
    11    14     1    1
    12     1     2   ar
    13     2     3   ar
    14     3     4   ar
    15     4     5   ar
    16     5     6   ar
    17     6     7   ar
    18     7     8   ar
    19     8     9   ar
    20     9    22    1
    21    22    23    1
    22    23    24   ar
    23    24    25   ar
    24    25    26   ar
    25    26    27    1
    26    26    28   ar
    27    28    29   ar
    28    14    15    1
    29    15    10    1
    30     9     1   ar
    31    29    23   ar
    32     8     3   ar
@<TRIPOS>MOLECULE
*****
 29 32 0 0 0
SMALL
GASTEIGER

@<TRIPOS>ATOM
      1 C          -6.8985  -17.5666   23.2233 C.ar    1  UNL1        0.1215
      2 N          -5.8316  -16.7200   23.8518 N.ar    1  UNL1       -0.2309
      3 C          -6.4150  -16.0681   25.0704 C.ar    1  UNL1        0.0983
      4 C          -5.8308  -15.1279   26.0825 C.ar    1  UNL1        0.0206
      5 C          -6.6740  -14.6313   27.2193 C.ar    1  UNL1        0.0016
      6 C          -8.1015  -15.0750   27.3439 C.ar    1  UNL1        0.0016
      7 C          -8.6857  -16.0153   26.3317 C.ar    1  UNL1        0.0188
      8 C          -7.8424  -16.5118   25.1949 C.ar    1  UNL1        0.0789
      9 N          -8.1413  -17.4379   24.0534 N.ar    1  UNL1       -0.3106
     10 N          -5.2427  -19.7070   20.3204 N.3     1  UNL1       -0.2646
     11 C          -6.4498  -20.0553   19.5011 C.3     1  UNL1        0.0725
     12 C          -7.8066  -19.5740   19.9225 C.3     1  UNL1        0.0178
     13 C          -7.9561  -18.7445   21.1632 C.3     1  UNL1        0.0103
     14 C          -6.7490  -18.3961   21.9826 C.3     1  UNL1        0.0729
     15 C          -5.3922  -18.8774   21.5612 C.3     1  UNL1        0.0800
     16 C          -3.8858  -20.1883   19.8991 C.3     1  UNL1        0.1587
     17 C          -0.8801  -17.6754   20.5324 C.3     1  UNL1        0.1149
     18 N          -2.1122  -18.2902   19.9373 N.am    1  UNL1       -0.2749
     19 C          -2.8025  -17.6218   18.7855 C.3     1  UNL1        0.1149
     20 C          -2.6538  -19.5734   20.4941 C.2     1  UNL1        0.2421
     21 O          -1.9634  -20.2418   21.6460 O.2     1  UNL1       -0.2734
     22 C          -9.4526  -18.1162   23.7885 C.3     1  UNL1        0.1339
     23 C         -10.4117  -17.5323   22.7940 C.ar    1  UNL1        0.0006
     24 C         -11.7557  -18.1656   22.5871 C.ar    1  UNL1       -0.0001
     25 C         -12.7148  -17.5818   21.5925 C.ar    1  UNL1        0.0294
     26 C         -12.3300  -16.3645   20.8049 C.ar    1  UNL1        0.1401
     27 F         -13.2892  -15.7806   19.8104 F       1  UNL1       -0.2042
     28 C         -10.9861  -15.7312   21.0119 C.ar    1  UNL1        0.0294
     29 C         -10.0270  -16.3151   22.0064 C.ar    1  UNL1       -0.0001
@<TRIPOS>BOND
     1    17    18    1
     2    18    19    1
     3    18    20   am
     4    20    21    2
     5    20    16    1
     6    16    10    1
     7    10    11    1
     8    11    12    1
     9    12    13    1
    10    13    14    1
    11    14     1    1
    12     1     2   ar
    13     2     3   ar
    14     3     4   ar
    15     4     5   ar
    16     5     6   ar
    17     6     7   ar
    18     7     8   ar
    19     8     9   ar
    20     9    22    1
    21    22    23    1
    22    23    24   ar
    23    24    25   ar
    24    25    26   ar
    25    26    27    1
    26    26    28   ar
    27    28    29   ar
    28    14    15    1
    29    15    10    1
    30     9     1   ar
    31    29    23   ar
    32     8     3   ar
@<TRIPOS>MOLECULE
*****
 29 32 0 0 0
SMALL
GASTEIGER

@<TRIPOS>ATOM
      1 C          -6.9281  -17.5841   22.9917 C.ar    1  UNL1        0.1215
      2 N          -5.9326  -17.3460   24.0881 N.ar    1  UNL1       -0.2309
      3 C          -6.5821  -16.4762   25.1232 C.ar    1  UNL1        0.0983
      4 C          -6.0820  -15.9182   26.4226 C.ar    1  UNL1        0.0206
      5 C          -6.9789  -15.0607   27.2653 C.ar    1  UNL1        0.0016
      6 C          -8.3760  -14.7613   26.8086 C.ar    1  UNL1        0.0016
      7 C          -8.8761  -15.3193   25.5093 C.ar    1  UNL1        0.0188
      8 C          -7.9792  -16.1768   24.6666 C.ar    1  UNL1        0.0789
      9 N          -8.1930  -16.8615   23.3492 N.ar    1  UNL1       -0.3106
     10 N          -5.0792  -19.6364   20.1421 N.3     1  UNL1       -0.2646
     11 C          -6.2408  -20.0359   19.2814 C.3     1  UNL1        0.0725
     12 C          -7.6315  -19.6182   19.6574 C.3     1  UNL1        0.0178
     13 C          -7.8606  -18.8010   20.8941 C.3     1  UNL1        0.0103
     14 C          -6.6990  -18.4014   21.7549 C.3     1  UNL1        0.0729
     15 C          -5.3083  -18.8191   21.3789 C.3     1  UNL1        0.0800
     16 C          -3.6884  -20.0541   19.7662 C.3     1  UNL1        0.1587
     17 C          -0.8049  -17.4397   20.5411 C.3     1  UNL1        0.1149
     18 N          -1.9867  -18.0949   19.8897 N.am    1  UNL1       -0.2749
     19 C          -2.6484  -17.4457   18.7103 C.3     1  UNL1        0.1149
     20 C          -2.5067  -19.3990   20.4176 C.2     1  UNL1        0.2421
     21 O          -1.8450  -20.0481   21.5970 O.2     1  UNL1       -0.2734
     22 C          -9.4509  -16.8293   22.5327 C.3     1  UNL1        0.1339
     23 C         -10.7429  -17.3068   23.1264 C.ar    1  UNL1        0.0006
     24 C         -12.0433  -16.7182   22.6651 C.ar    1  UNL1       -0.0001
     25 C         -13.3353  -17.1957   23.2588 C.ar    1  UNL1        0.0294
     26 C         -13.3271  -18.2620   24.3139 C.ar    1  UNL1        0.1401
     27 F         -14.6192  -18.7395   24.9076 F       1  UNL1       -0.2042
     28 C         -12.0269  -18.8505   24.7752 C.ar    1  UNL1        0.0294
     29 C         -10.7348  -18.3730   24.1815 C.ar    1  UNL1       -0.0001
@<TRIPOS>BOND
     1    17    18    1
     2    18    19    1
     3    18    20   am
     4    20    21    2
     5    20    16    1
     6    16    10    1
     7    10    11    1
     8    11    12    1
     9    12    13    1
    10    13    14    1
    11    14     1    1
    12     1     2   ar
    13     2     3   ar
    14     3     4   ar
    15     4     5   ar
    16     5     6   ar
    17     6     7   ar
    18     7     8   ar
    19     8     9   ar
    20     9    22    1
    21    22    23    1
    22    23    24   ar
    23    24    25   ar
    24    25    26   ar
    25    26    27    1
    26    26    28   ar
    27    28    29   ar
    28    14    15    1
    29    15    10    1
    30     9     1   ar
    31    29    23   ar
    32     8     3   ar
@<TRIPOS>MOLECULE
*****
 29 32 0 0 0
SMALL
GASTEIGER

@<TRIPOS>ATOM
      1 C           1.9405    4.2019   34.5692 C.ar    1  UNL1        0.1215
      2 N           0.9993    4.8056   33.5694 N.ar    1  UNL1       -0.2309
      3 C           0.0716    5.7275   34.3040 C.ar    1  UNL1        0.0983
      4 C          -1.0605    6.5935   33.8369 C.ar    1  UNL1        0.0206
      5 C          -1.8248    7.4255   34.8236 C.ar    1  UNL1        0.0016
      6 C          -1.4569    7.3915   36.2774 C.ar    1  UNL1        0.0016
      7 C          -0.3247    6.5255   36.7445 C.ar    1  UNL1        0.0188
      8 C           0.4395    5.6935   35.7578 C.ar    1  UNL1        0.0789
      9 N           1.5945    4.7506   35.9216 N.ar    1  UNL1       -0.3106
     10 N           3.8198    0.9726   33.2314 N.3     1  UNL1       -0.2646
     11 C           5.2252    1.2607   33.6691 C.3     1  UNL1        0.0725
     12 C           5.5358    2.5293   34.4069 C.3     1  UNL1        0.0178
     13 C           4.4408    3.5096   34.7069 C.3     1  UNL1        0.0103
     14 C           3.0354    3.2215   34.2692 C.3     1  UNL1        0.0729
     15 C           2.7249    1.9529   33.5314 C.3     1  UNL1        0.0800
     16 C           3.5092   -0.2960   32.4935 C.3     1  UNL1        0.1587
     17 C           6.1415   -3.2599   32.3024 C.3     1  UNL1        0.1149
     18 N           5.4007   -1.9986   31.9704 N.am    1  UNL1       -0.2749
     19 C           5.8104   -1.1785   30.7830 C.3     1  UNL1        0.1149
     20 C           4.2501   -1.5573   32.8256 C.2     1  UNL1        0.2421
     21 O           3.8403   -2.3774   34.0129 O.2     1  UNL1       -0.2734
     22 C           2.2828    4.4153   37.2116 C.3     1  UNL1        0.1339
     23 C           1.9837    3.1203   37.9067 C.ar    1  UNL1        0.0006
     24 C           0.7275    2.9747   38.7135 C.ar    1  UNL1       -0.0001
     25 C           0.4284    1.6797   39.4087 C.ar    1  UNL1        0.0294
     26 C           1.3855    0.5301   39.2971 C.ar    1  UNL1        0.1401
     27 F           1.0864   -0.7650   39.9923 F       1  UNL1       -0.2042
     28 C           2.6417    0.6756   38.4904 C.ar    1  UNL1        0.0294
     29 C           2.9408    1.9707   37.7952 C.ar    1  UNL1       -0.0001
@<TRIPOS>BOND
     1    17    18    1
     2    18    19    1
     3    18    20   am
     4    20    21    2
     5    20    16    1
     6    16    10    1
     7    10    11    1
     8    11    12    1
     9    12    13    1
    10    13    14    1
    11    14     1    1
    12     1     2   ar
    13     2     3   ar
    14     3     4   ar
    15     4     5   ar
    16     5     6   ar
    17     6     7   ar
    18     7     8   ar
    19     8     9   ar
    20     9    22    1
    21    22    23    1
    22    23    24   ar
    23    24    25   ar
    24    25    26   ar
    25    26    27    1
    26    26    28   ar
    27    28    29   ar
    28    14    15    1
    29    15    10    1
    30     9     1   ar
    31    29    23   ar
    32     8     3   ar
@<TRIPOS>MOLECULE
*****
 29 32 0 0 0
SMALL
GASTEIGER

@<TRIPOS>ATOM
      1 C         -12.6496   -3.6730   18.6347 C.ar    1  UNL1        0.1215
      2 N         -11.2461   -3.7709   19.1548 N.ar    1  UNL1       -0.2309
      3 C         -10.7535   -5.1647   18.9003 C.ar    1  UNL1        0.0983
      4 C          -9.4462   -5.8372   19.1979 C.ar    1  UNL1        0.0206
      5 C          -9.2380   -7.2733   18.8180 C.ar    1  UNL1        0.0016
      6 C         -10.3371   -8.0368   18.1405 C.ar    1  UNL1        0.0016
      7 C         -11.6444   -7.3643   17.8429 C.ar    1  UNL1        0.0188
      8 C         -11.8526   -5.9282   18.2228 C.ar    1  UNL1        0.0789
      9 N         -13.0244   -5.0063   18.0587 N.ar    1  UNL1       -0.3106
     10 N         -14.2518   -0.1673   17.6899 N.3     1  UNL1       -0.2646
     11 C         -15.2746   -0.0208   18.7772 C.3     1  UNL1        0.0725
     12 C         -15.4224   -1.0917   19.8170 C.3     1  UNL1        0.0178
     13 C         -14.5474   -2.3091   19.7695 C.3     1  UNL1        0.0103
     14 C         -13.5246   -2.4556   18.6822 C.3     1  UNL1        0.0729
     15 C         -13.3768   -1.3847   17.6424 C.3     1  UNL1        0.0800
     16 C         -14.1039    0.9037   16.6500 C.3     1  UNL1        0.1587
     17 C         -14.0374    4.7600   17.5848 C.3     1  UNL1        0.1149
     18 N         -14.5487    3.4041   17.1975 N.am    1  UNL1       -0.2749
     19 C         -16.0163    3.1928   16.9705 C.3     1  UNL1        0.1149
     20 C         -13.5925    2.2596   17.0373 C.2     1  UNL1        0.2421
     21 O         -12.1249    2.4709   17.2644 O.2     1  UNL1       -0.2734
     22 C         -14.3401   -5.3563   17.4290 C.3     1  UNL1        0.1339
     23 C         -15.3999   -6.0431   18.2384 C.ar    1  UNL1        0.0006
     24 C         -15.2292   -7.4803   18.6324 C.ar    1  UNL1       -0.0001
     25 C         -16.2890   -8.1672   19.4418 C.ar    1  UNL1        0.0294
     26 C         -17.5195   -7.4167   19.8573 C.ar    1  UNL1        0.1401
     27 F         -18.5793   -8.1035   20.6667 F       1  UNL1       -0.2042
     28 C         -17.6902   -5.9795   19.4633 C.ar    1  UNL1        0.0294
     29 C         -16.6304   -5.2926   18.6539 C.ar    1  UNL1       -0.0001
@<TRIPOS>BOND
     1    17    18    1
     2    18    19    1
     3    18    20   am
     4    20    21    2
     5    20    16    1
     6    16    10    1
     7    10    11    1
     8    11    12    1
     9    12    13    1
    10    13    14    1
    11    14     1    1
    12     1     2   ar
    13     2     3   ar
    14     3     4   ar
    15     4     5   ar
    16     5     6   ar
    17     6     7   ar
    18     7     8   ar
    19     8     9   ar
    20     9    22    1
    21    22    23    1
    22    23    24   ar
    23    24    25   ar
    24    25    26   ar
    25    26    27    1
    26    26    28   ar
    27    28    29   ar
    28    14    15    1
    29    15    10    1
    30     9     1   ar
    31    29    23   ar
    32     8     3   ar
@<TRIPOS>MOLECULE
*****
 29 32 0 0 0
SMALL
GASTEIGER

@<TRIPOS>ATOM
      1 C         -13.2087   -3.8854   18.7161 C.ar    1  UNL1        0.1215
      2 N         -11.8216   -3.7237   19.2636 N.ar    1  UNL1       -0.2309
      3 C         -11.0707   -4.9967   19.0073 C.ar    1  UNL1        0.0983
      4 C          -9.6658   -5.4148   19.3255 C.ar    1  UNL1        0.0206
      5 C          -9.1839   -6.7813   18.9379 C.ar    1  UNL1        0.0016
      6 C         -10.1070   -7.7298   18.2320 C.ar    1  UNL1        0.0016
      7 C         -11.5119   -7.3117   17.9138 C.ar    1  UNL1        0.0188
      8 C         -11.9938   -5.9452   18.3014 C.ar    1  UNL1        0.0789
      9 N         -13.3151   -5.2584   18.1214 N.ar    1  UNL1       -0.3106
     10 N         -16.8206   -2.2424   18.6502 N.3     1  UNL1       -0.2646
     11 C         -16.4768   -0.7943   18.8364 C.3     1  UNL1        0.0725
     12 C         -15.0436   -0.3765   18.9825 C.3     1  UNL1        0.0178
     13 C         -13.9542   -1.4069   18.9424 C.3     1  UNL1        0.0103
     14 C         -14.2981   -2.8550   18.7562 C.3     1  UNL1        0.0729
     15 C         -15.7312   -3.2728   18.6101 C.3     1  UNL1        0.0800
     16 C         -18.2539   -2.6602   18.5041 C.3     1  UNL1        0.1587
     17 C         -19.6463   -6.1679   19.7319 C.3     1  UNL1        0.1149
     18 N         -19.0823   -5.0992   18.8432 N.am    1  UNL1       -0.2749
     19 C         -18.7828   -5.4010   17.4046 C.3     1  UNL1        0.1149
     20 C         -18.8179   -3.7289   19.3928 C.2     1  UNL1        0.2421
     21 O         -19.1174   -3.4271   20.8314 O.2     1  UNL1       -0.2734
     22 C         -14.5296   -5.8420   17.4625 C.3     1  UNL1        0.1339
     23 C         -15.1694   -7.0756   18.0271 C.ar    1  UNL1        0.0006
     24 C         -15.0163   -8.3902   17.3209 C.ar    1  UNL1       -0.0001
     25 C         -15.6560   -9.6239   17.8855 C.ar    1  UNL1        0.0294
     26 C         -16.4491   -9.5430   19.1562 C.ar    1  UNL1        0.1401
     27 F         -17.0888  -10.7767   19.7207 F       1  UNL1       -0.2042
     28 C         -16.6022   -8.2285   19.8623 C.ar    1  UNL1        0.0294
     29 C         -15.9624   -6.9948   19.2977 C.ar    1  UNL1       -0.0001
@<TRIPOS>BOND
     1    17    18    1
     2    18    19    1
     3    18    20   am
     4    20    21    2
     5    20    16    1
     6    16    10    1
     7    10    11    1
     8    11    12    1
     9    12    13    1
    10    13    14    1
    11    14     1    1
    12     1     2   ar
    13     2     3   ar
    14     3     4   ar
    15     4     5   ar
    16     5     6   ar
    17     6     7   ar
    18     7     8   ar
    19     8     9   ar
    20     9    22    1
    21    22    23    1
    22    23    24   ar
    23    24    25   ar
    24    25    26   ar
    25    26    27    1
    26    26    28   ar
    27    28    29   ar
    28    14    15    1
    29    15    10    1
    30     9     1   ar
    31    29    23   ar
    32     8     3   ar
@<TRIPOS>MOLECULE
*****
 29 32 0 0 0
SMALL
GASTEIGER

@<TRIPOS>ATOM
      1 C         -13.2391   -3.7806   18.2374 C.ar    1  UNL1        0.1215
      2 N         -11.8903   -3.5232   18.8411 N.ar    1  UNL1       -0.2309
      3 C         -11.1089   -4.8027   18.7927 C.ar    1  UNL1        0.0983
      4 C          -9.7209   -5.1488   19.2438 C.ar    1  UNL1        0.0206
      5 C          -9.1987   -6.5430   19.0611 C.ar    1  UNL1        0.0016
      6 C         -10.0646   -7.5912   18.4274 C.ar    1  UNL1        0.0016
      7 C         -11.4526   -7.2451   17.9763 C.ar    1  UNL1        0.0188
      8 C         -11.9748   -5.8509   18.1590 C.ar    1  UNL1        0.0789
      9 N         -13.2913   -5.2191   17.8158 N.ar    1  UNL1       -0.3106
     10 N         -15.9470   -1.0180   19.1236 N.3     1  UNL1       -0.2646
     11 C         -16.5478   -0.7662   17.7724 C.3     1  UNL1        0.0725
     12 C         -16.0456   -1.5191   16.5763 C.3     1  UNL1        0.0178
     13 C         -14.9427   -2.5239   16.7312 C.3     1  UNL1        0.0103
     14 C         -14.3420   -2.7758   18.0824 C.3     1  UNL1        0.0729
     15 C         -14.8441   -2.0228   19.2785 C.3     1  UNL1        0.0800
     16 C         -16.4491   -0.2650   20.3198 C.3     1  UNL1        0.1587
     17 C         -19.7074    1.9850   20.0540 C.3     1  UNL1        0.1149
     18 N         -18.2716    1.5562   19.9861 N.am    1  UNL1       -0.2749
     19 C         -17.2225    2.5201   19.5166 C.3     1  UNL1        0.1149
     20 C         -17.8850    0.1637   20.3877 C.2     1  UNL1        0.2421
     21 O         -18.9341   -0.8001   20.8572 O.2     1  UNL1       -0.2734
     22 C         -14.4556   -5.9055   17.1652 C.3     1  UNL1        0.1339
     23 C         -15.1130   -7.0714   17.8423 C.ar    1  UNL1        0.0006
     24 C         -14.8576   -8.4656   17.3512 C.ar    1  UNL1       -0.0001
     25 C         -15.5150   -9.6315   18.0284 C.ar    1  UNL1        0.0294
     26 C         -16.4277   -9.4032   19.1966 C.ar    1  UNL1        0.1401
     27 F         -17.0851  -10.5691   19.8738 F       1  UNL1       -0.2042
     28 C         -16.6831   -8.0091   19.6877 C.ar    1  UNL1        0.0294
     29 C         -16.0257   -6.8432   19.0106 C.ar    1  UNL1       -0.0001
@<TRIPOS>BOND
     1    17    18    1
     2    18    19    1
     3    18    20   am
     4    20    21    2
     5    20    16    1
     6    16    10    1
     7    10    11    1
     8    11    12    1
     9    12    13    1
    10    13    14    1
    11    14     1    1
    12     1     2   ar
    13     2     3   ar
    14     3     4   ar
    15     4     5   ar
    16     5     6   ar
    17     6     7   ar
    18     7     8   ar
    19     8     9   ar
    20     9    22    1
    21    22    23    1
    22    23    24   ar
    23    24    25   ar
    24    25    26   ar
    25    26    27    1
    26    26    28   ar
    27    28    29   ar
    28    14    15    1
    29    15    10    1
    30     9     1   ar
    31    29    23   ar
    32     8     3   ar
@<TRIPOS>MOLECULE
*****
 29 32 0 0 0
SMALL
GASTEIGER

@<TRIPOS>ATOM
      1 C           7.8586   -4.4601   22.4469 C.ar    1  UNL1        0.1215
      2 N           8.0390   -5.9446   22.5646 N.ar    1  UNL1       -0.2309
      3 C           8.0127   -6.3007   24.0215 C.ar    1  UNL1        0.0983
      4 C           8.1423   -7.6129   24.7364 C.ar    1  UNL1        0.0206
      5 C           8.0754   -7.6608   26.2341 C.ar    1  UNL1        0.0016
      6 C           7.8787   -6.3965   27.0169 C.ar    1  UNL1        0.0016
      7 C           7.7490   -5.0842   26.3019 C.ar    1  UNL1        0.0188
      8 C           7.8160   -5.0364   24.8042 C.ar    1  UNL1        0.0789
      9 N           7.7208   -3.8988   23.8311 N.ar    1  UNL1       -0.3106
     10 N           6.5260   -2.8356   19.0802 N.3     1  UNL1       -0.2646
     11 C           7.7500   -2.1043   18.6144 C.3     1  UNL1        0.0725
     12 C           9.0102   -2.1582   19.4261 C.3     1  UNL1        0.0178
     13 C           9.0464   -2.9435   20.7036 C.3     1  UNL1        0.0103
     14 C           7.8224   -3.6748   21.1694 C.3     1  UNL1        0.0729
     15 C           6.5622   -3.6209   20.3577 C.3     1  UNL1        0.0800
     16 C           5.2657   -2.7816   18.2684 C.3     1  UNL1        0.1587
     17 C           2.0912   -1.1994   20.0486 C.3     1  UNL1        0.1149
     18 N           3.4203   -1.3168   19.3633 N.am    1  UNL1       -0.2749
     19 C           4.2331   -0.0866   19.0873 C.3     1  UNL1        0.1149
     20 C           3.9366   -2.6643   18.9538 C.2     1  UNL1        0.2421
     21 O           3.1239   -3.8945   19.2298 O.2     1  UNL1       -0.2734
     22 C           7.5226   -2.4537   24.1808 C.3     1  UNL1        0.1339
     23 C           6.1430   -1.8651   24.1838 C.ar    1  UNL1        0.0006
     24 C           5.6050   -1.2083   22.9471 C.ar    1  UNL1       -0.0001
     25 C           4.2254   -0.6197   22.9500 C.ar    1  UNL1        0.0294
     26 C           3.3836   -0.6879   24.1897 C.ar    1  UNL1        0.1401
     27 F           2.0039   -0.0993   24.1926 F       1  UNL1       -0.2042
     28 C           3.9215   -1.3446   25.4263 C.ar    1  UNL1        0.0294
     29 C           5.3011   -1.9332   25.4234 C.ar    1  UNL1       -0.0001
@<TRIPOS>BOND
     1    17    18    1
     2    18    19    1
     3    18    20   am
     4    20    21    2
     5    20    16    1
     6    16    10    1
     7    10    11    1
     8    11    12    1
     9    12    13    1
    10    13    14    1
    11    14     1    1
    12     1     2   ar
    13     2     3   ar
    14     3     4   ar
    15     4     5   ar
    16     5     6   ar
    17     6     7   ar
    18     7     8   ar
    19     8     9   ar
    20     9    22    1
    21    22    23    1
    22    23    24   ar
    23    24    25   ar
    24    25    26   ar
    25    26    27    1
    26    26    28   ar
    27    28    29   ar
    28    14    15    1
    29    15    10    1
    30     9     1   ar
    31    29    23   ar
    32     8     3   ar
@<TRIPOS>MOLECULE
*****
 29 32 0 0 0
SMALL
GASTEIGER

@<TRIPOS>ATOM
      1 C           4.3847   -1.8407   23.7191 C.ar    1  UNL1        0.1215
      2 N           3.3336   -1.1775   24.5590 N.ar    1  UNL1       -0.2309
      3 C           3.9146   -0.9315   25.9198 C.ar    1  UNL1        0.0983
      4 C           3.3418   -0.3080   27.1580 C.ar    1  UNL1        0.0206
      5 C           4.1792   -0.1957   28.3974 C.ar    1  UNL1        0.0016
      6 C           5.5894   -0.7068   28.3986 C.ar    1  UNL1        0.0016
      7 C           6.1623   -1.3302   27.1604 C.ar    1  UNL1        0.0188
      8 C           5.3249   -1.4425   25.9210 C.ar    1  UNL1        0.0789
      9 N           5.6154   -2.0045   24.5609 N.ar    1  UNL1       -0.3106
     10 N           3.6847   -1.6865   19.8158 N.3     1  UNL1       -0.2646
     11 C           3.9265   -3.1151   19.4277 C.3     1  UNL1        0.0725
     12 C           4.3211   -4.1189   20.4702 C.3     1  UNL1        0.0178
     13 C           4.4738   -3.6941   21.9006 C.3     1  UNL1        0.0103
     14 C           4.2320   -2.2655   22.2887 C.3     1  UNL1        0.0729
     15 C           3.8375   -1.2617   21.2462 C.3     1  UNL1        0.0800
     16 C           3.2902   -0.6826   18.7733 C.3     1  UNL1        0.1587
     17 C           6.2628    0.7378   16.5606 C.3     1  UNL1        0.1149
     18 N           5.3662    0.4857   17.7365 N.am    1  UNL1       -0.2749
     19 C           5.6490    1.1501   19.0513 C.3     1  UNL1        0.1149
     20 C           4.1868   -0.4306   17.5975 C.2     1  UNL1        0.2421
     21 O           3.9040   -1.0949   16.2826 O.2     1  UNL1       -0.2734
     22 C           6.9094   -2.6218   24.1201 C.3     1  UNL1        0.1339
     23 C           7.2121   -4.0514   24.4584 C.ar    1  UNL1        0.0006
     24 C           7.8962   -4.9312   23.4543 C.ar    1  UNL1       -0.0001
     25 C           8.1990   -6.3608   23.7926 C.ar    1  UNL1        0.0294
     26 C           7.8176   -6.9107   25.1351 C.ar    1  UNL1        0.1401
     27 F           8.1203   -8.3404   25.4734 F       1  UNL1       -0.2042
     28 C           7.1336   -6.0310   26.1392 C.ar    1  UNL1        0.0294
     29 C           6.8308   -4.6014   25.8009 C.ar    1  UNL1       -0.0001
@<TRIPOS>BOND
     1    17    18    1
     2    18    19    1
     3    18    20   am
     4    20    21    2
     5    20    16    1
     6    16    10    1
     7    10    11    1
     8    11    12    1
     9    12    13    1
    10    13    14    1
    11    14     1    1
    12     1     2   ar
    13     2     3   ar
    14     3     4   ar
    15     4     5   ar
    16     5     6   ar
    17     6     7   ar
    18     7     8   ar
    19     8     9   ar
    20     9    22    1
    21    22    23    1
    22    23    24   ar
    23    24    25   ar
    24    25    26   ar
    25    26    27    1
    26    26    28   ar
    27    28    29   ar
    28    14    15    1
    29    15    10    1
    30     9     1   ar
    31    29    23   ar
    32     8     3   ar
