@<TRIPOS>MOLECULE
*****
 39 42 0 0 0
SMALL
GASTEIGER

@<TRIPOS>ATOM
      1 C          -2.1281  -16.9638   21.9314 C.3     1  UNL1        0.0770
      2 C          -1.7319  -18.0443   22.8937 C.3     1  UNL1        0.0214
      3 N          -5.5084  -15.2969   23.1742 N.am    1  UNL1       -0.2683
      4 C          -4.5077  -16.3364   22.7642 C.2     1  UNL1        0.3044
      5 O          -4.8860  -17.7879   22.7770 O.2     1  UNL1       -0.2525
      6 N          -3.1288  -15.9244   22.3414 N.am    1  UNL1       -0.2902
      7 H          -5.2602  -14.3443   23.1658 H       1  UNL1        0.1564
      8 H          -2.8806  -14.9717   22.3330 H       1  UNL1        0.1509
      9 C          -8.8334  -16.7249   26.9032 C.3     1  UNL1        0.0311
     10 C          -8.5498  -16.4230   25.4615 C.ar    1  UNL1       -0.0205
     11 C          -7.1710  -16.0109   25.0387 C.ar    1  UNL1        0.0105
     12 C          -6.8874  -15.7090   23.5970 C.ar    1  UNL1        0.0514
     13 C          -7.9827  -15.8191   22.5782 C.ar    1  UNL1        0.0178
     14 C          -9.3616  -16.2311   23.0010 C.ar    1  UNL1        0.0383
     15 C          -9.6452  -16.5331   24.4427 C.ar    1  UNL1       -0.0011
     16 C         -10.4571  -16.3412   21.9822 C.ar    1  UNL1        0.1839
     17 N         -10.3663  -15.9310   20.5422 N.ar    1  UNL1       -0.1081
     18 N         -11.6887  -16.2171   19.8945 N.ar    1  UNL1       -0.0227
     19 N         -12.5967  -16.8042   20.9342 N.ar    1  UNL1       -0.0429
     20 N         -11.8355  -16.8809   22.2244 N.ar    1  UNL1       -0.2113
     21 C         -12.3606  -17.4052   23.5280 C.3     1  UNL1        0.1573
     22 C          -1.5235  -16.9229   20.5593 C.3     1  UNL1        0.0661
     23 C          -2.1779  -17.6608   19.4291 C.3     1  UNL1        0.1738
     24 O          -1.7606  -17.3885   18.0143 O.3     1  UNL1       -0.3697
     25 H          -2.2782  -17.9451   17.4117 H       1  UNL1        0.2119
     26 N          -3.2495  -18.6711   19.7137 N.3     1  UNL1       -0.2511
     27 C          -2.8767  -20.0594   20.1421 C.3     1  UNL1        0.0742
     28 C          -3.9484  -21.0696   20.4268 C.3     1  UNL1        0.0175
     29 C          -5.3928  -20.6915   20.2830 C.3     1  UNL1        0.0031
     30 C          -5.7656  -19.3032   19.8546 C.3     1  UNL1        0.0205
     31 C          -4.6940  -18.2930   19.5700 C.3     1  UNL1        0.0745
     32 C          -7.2100  -18.9251   19.7108 C.3     1  UNL1        0.0277
     33 C          -8.1993  -19.3286   20.7636 C.ar    1  UNL1       -0.0220
     34 C          -9.6357  -19.5553   20.3956 C.ar    1  UNL1       -0.0020
     35 C         -10.6250  -19.9588   21.4483 C.ar    1  UNL1        0.0293
     36 C         -10.1780  -20.1357   22.8692 C.ar    1  UNL1        0.1401
     37 F         -11.1673  -20.5392   23.9220 F       1  UNL1       -0.2042
     38 C          -8.7416  -19.9090   23.2373 C.ar    1  UNL1        0.0293
     39 C          -7.7523  -19.5055   22.1845 C.ar    1  UNL1       -0.0020
@<TRIPOS>BOND
     1     9    10    1
     2    10    11   ar
     3    11    12   ar
     4    12     3    1
     5     3     4   am
     6     4     5    2
     7     4     6   am
     8     6     1    1
     9     1     2    1
    10     1    22    1
    11    22    23    1
    12    23    24    1
    13    23    26    1
    14    26    27    1
    15    27    28    1
    16    28    29    1
    17    29    30    1
    18    30    32    1
    19    32    33    1
    20    33    34   ar
    21    34    35   ar
    22    35    36   ar
    23    36    37    1
    24    36    38   ar
    25    38    39   ar
    26    30    31    1
    27    12    13   ar
    28    13    14   ar
    29    14    16    1
    30    16    17   ar
    31    17    18   ar
    32    18    19   ar
    33    19    20   ar
    34    20    21    1
    35    14    15   ar
    36    15    10   ar
    37    31    26    1
    38    20    16   ar
    39    39    33   ar
    40     3     7    1
    41     6     8    1
    42    24    25    1
@<TRIPOS>MOLECULE
*****
 39 42 0 0 0
SMALL
GASTEIGER

@<TRIPOS>ATOM
      1 C          -6.6242  -15.7798   26.6911 C.3     1  UNL1        0.0770
      2 C          -6.8729  -14.7866   27.7874 C.3     1  UNL1        0.0214
      3 N          -9.7157  -17.8936   25.3779 N.am    1  UNL1       -0.2683
      4 C          -8.7649  -16.7522   25.5858 C.2     1  UNL1        0.3044
      5 O          -9.0040  -15.4417   24.8961 O.2     1  UNL1       -0.2525
      6 N          -7.5750  -16.9212   26.4833 N.am    1  UNL1       -0.2902
      7 H          -9.5588  -18.7536   25.8305 H       1  UNL1        0.1564
      8 H          -7.4180  -17.7813   26.9359 H       1  UNL1        0.1509
      9 C         -14.7836  -18.5674   24.4492 C.3     1  UNL1        0.0311
     10 C         -13.4396  -18.0614   24.0160 C.ar    1  UNL1       -0.0205
     11 C         -12.2496  -18.2304   24.9135 C.ar    1  UNL1        0.0105
     12 C         -10.9056  -17.7245   24.4804 C.ar    1  UNL1        0.0514
     13 C         -10.7515  -17.0495   23.1497 C.ar    1  UNL1        0.0178
     14 C         -11.9414  -16.8805   22.2523 C.ar    1  UNL1        0.0383
     15 C         -13.2854  -17.3864   22.6854 C.ar    1  UNL1       -0.0011
     16 C         -11.7874  -16.2054   20.9216 C.ar    1  UNL1        0.1839
     17 N         -12.8489  -16.0780   19.8695 N.ar    1  UNL1       -0.1081
     18 N         -12.2624  -15.3332   18.7070 N.ar    1  UNL1       -0.0227
     19 N         -10.8383  -15.0003   19.0408 N.ar    1  UNL1       -0.0429
     20 N         -10.5448  -15.5394   20.4094 N.ar    1  UNL1       -0.2113
     21 C          -9.2380  -15.4314   21.1379 C.3     1  UNL1        0.1573
     22 C          -5.4247  -15.6315   25.8027 C.3     1  UNL1        0.0661
     23 C          -5.5787  -15.7221   24.3134 C.3     1  UNL1        0.1738
     24 O          -6.4907  -14.7727   23.5946 O.3     1  UNL1       -0.3697
     25 H          -6.4746  -14.9660   22.6442 H       1  UNL1        0.2119
     26 N          -4.8206  -16.7622   23.5429 N.3     1  UNL1       -0.2511
     27 C          -3.3213  -16.7815   23.5840 C.3     1  UNL1        0.0742
     28 C          -2.5633  -17.8216   22.8135 C.3     1  UNL1        0.0175
     29 C          -3.3045  -18.8423   22.0020 C.3     1  UNL1        0.0031
     30 C          -4.8038  -18.8230   21.9609 C.3     1  UNL1        0.0205
     31 C          -5.5618  -17.7830   22.7314 C.3     1  UNL1        0.0745
     32 C          -5.5451  -19.8438   21.1494 C.3     1  UNL1        0.0277
     33 C          -7.0434  -19.8096   21.0888 C.ar    1  UNL1       -0.0220
     34 C          -7.7354  -19.5325   19.7871 C.ar    1  UNL1       -0.0020
     35 C          -9.2337  -19.4984   19.7265 C.ar    1  UNL1        0.0293
     36 C         -10.0402  -19.7414   20.9677 C.ar    1  UNL1        0.1401
     37 F         -11.5387  -19.7073   20.9071 F       1  UNL1       -0.2042
     38 C          -9.3484  -20.0185   22.2694 C.ar    1  UNL1        0.0293
     39 C          -7.8500  -20.0527   22.3300 C.ar    1  UNL1       -0.0020
@<TRIPOS>BOND
     1     9    10    1
     2    10    11   ar
     3    11    12   ar
     4    12     3    1
     5     3     4   am
     6     4     5    2
     7     4     6   am
     8     6     1    1
     9     1     2    1
    10     1    22    1
    11    22    23    1
    12    23    24    1
    13    23    26    1
    14    26    27    1
    15    27    28    1
    16    28    29    1
    17    29    30    1
    18    30    32    1
    19    32    33    1
    20    33    34   ar
    21    34    35   ar
    22    35    36   ar
    23    36    37    1
    24    36    38   ar
    25    38    39   ar
    26    30    31    1
    27    12    13   ar
    28    13    14   ar
    29    14    16    1
    30    16    17   ar
    31    17    18   ar
    32    18    19   ar
    33    19    20   ar
    34    20    21    1
    35    14    15   ar
    36    15    10   ar
    37    31    26    1
    38    20    16   ar
    39    39    33   ar
    40     3     7    1
    41     6     8    1
    42    24    25    1
@<TRIPOS>MOLECULE
*****
 39 42 0 0 0
SMALL
GASTEIGER

@<TRIPOS>ATOM
      1 C          -5.1501  -15.5062   24.0306 C.3     1  UNL1        0.0770
      2 C          -5.4139  -15.6001   25.5043 C.3     1  UNL1        0.0214
      3 N          -8.4755  -14.8500   21.9665 N.am    1  UNL1       -0.2683
      4 C          -7.4731  -15.5085   22.8673 C.2     1  UNL1        0.3044
      5 O          -7.7915  -16.8281   23.5058 O.2     1  UNL1       -0.2525
      6 N          -6.1524  -14.8477   23.1298 N.am    1  UNL1       -0.2902
      7 H          -8.2666  -13.9839   21.5474 H       1  UNL1        0.1564
      8 H          -5.9435  -13.9816   22.7107 H       1  UNL1        0.1509
      9 C         -12.3819  -15.9713   18.7287 C.3     1  UNL1        0.0311
     10 C         -11.7494  -16.0716   20.0852 C.ar    1  UNL1       -0.0205
     11 C         -10.4287  -15.4107   20.3476 C.ar    1  UNL1        0.0105
     12 C          -9.7963  -15.5109   21.7041 C.ar    1  UNL1        0.0514
     13 C         -10.4845  -16.2721   22.7980 C.ar    1  UNL1        0.0178
     14 C         -11.8052  -16.9330   22.5356 C.ar    1  UNL1        0.0383
     15 C         -12.4377  -16.8328   21.1791 C.ar    1  UNL1       -0.0011
     16 C         -12.4935  -17.6943   23.6296 C.ar    1  UNL1        0.1839
     17 N         -13.9574  -17.6436   23.9528 N.ar    1  UNL1       -0.1081
     18 N         -14.2075  -18.5578   25.1154 N.ar    1  UNL1       -0.0227
     19 N         -12.8980  -19.1735   25.5108 N.ar    1  UNL1       -0.0429
     20 N         -11.8388  -18.6399   24.5925 N.ar    1  UNL1       -0.2113
     21 C         -10.3808  -18.9903   24.6305 C.3     1  UNL1        0.1573
     22 C          -3.8840  -16.0709   23.4579 C.3     1  UNL1        0.0661
     23 C          -3.6523  -17.5529   23.4668 C.3     1  UNL1        0.1738
     24 O          -3.4079  -18.2660   24.7636 O.3     1  UNL1       -0.3697
     25 H          -3.2782  -19.2120   24.5929 H       1  UNL1        0.2119
     26 N          -3.6651  -18.3217   22.1789 N.3     1  UNL1       -0.2511
     27 C          -2.5684  -18.1220   21.1752 C.3     1  UNL1        0.0742
     28 C          -2.5812  -18.8908   19.8874 C.3     1  UNL1        0.0175
     29 C          -3.6907  -19.8595   19.6031 C.3     1  UNL1        0.0031
     30 C          -4.7874  -20.0592   20.6068 C.3     1  UNL1        0.0205
     31 C          -4.7746  -19.2904   21.8946 C.3     1  UNL1        0.0745
     32 C          -5.8969  -21.0279   20.3225 C.3     1  UNL1        0.0277
     33 C          -7.2691  -20.5205   19.9919 C.ar    1  UNL1       -0.0220
     34 C          -7.9282  -20.9236   18.7061 C.ar    1  UNL1       -0.0020
     35 C          -9.3005  -20.4162   18.3755 C.ar    1  UNL1        0.0293
     36 C         -10.0137  -19.5056   19.3305 C.ar    1  UNL1        0.1401
     37 F         -11.3861  -18.9982   18.9998 F       1  UNL1       -0.2042
     38 C          -9.3547  -19.1025   20.6162 C.ar    1  UNL1        0.0293
     39 C          -7.9824  -19.6099   20.9469 C.ar    1  UNL1       -0.0020
@<TRIPOS>BOND
     1     9    10    1
     2    10    11   ar
     3    11    12   ar
     4    12     3    1
     5     3     4   am
     6     4     5    2
     7     4     6   am
     8     6     1    1
     9     1     2    1
    10     1    22    1
    11    22    23    1
    12    23    24    1
    13    23    26    1
    14    26    27    1
    15    27    28    1
    16    28    29    1
    17    29    30    1
    18    30    32    1
    19    32    33    1
    20    33    34   ar
    21    34    35   ar
    22    35    36   ar
    23    36    37    1
    24    36    38   ar
    25    38    39   ar
    26    30    31    1
    27    12    13   ar
    28    13    14   ar
    29    14    16    1
    30    16    17   ar
    31    17    18   ar
    32    18    19   ar
    33    19    20   ar
    34    20    21    1
    35    14    15   ar
    36    15    10   ar
    37    31    26    1
    38    20    16   ar
    39    39    33   ar
    40     3     7    1
    41     6     8    1
    42    24    25    1
@<TRIPOS>MOLECULE
*****
 39 42 0 0 0
SMALL
GASTEIGER

@<TRIPOS>ATOM
      1 C          -3.2953  -18.3761   23.0538 C.3     1  UNL1        0.0770
      2 C          -2.0394  -18.2091   22.2507 C.3     1  UNL1        0.0214
      3 N          -6.3471  -20.3585   21.4707 N.am    1  UNL1       -0.2683
      4 C          -5.3934  -19.2464   21.7927 C.2     1  UNL1        0.3044
      5 O          -5.5840  -17.8925   21.1756 O.2     1  UNL1       -0.2525
      6 N          -4.2490  -19.4882   22.7318 N.am    1  UNL1       -0.2902
      7 H          -6.2220  -21.2470   21.8757 H       1  UNL1        0.1564
      8 H          -4.1239  -20.3767   23.1368 H       1  UNL1        0.1509
      9 C          -9.0010  -21.6327   17.1889 C.3     1  UNL1        0.0311
     10 C          -8.8185  -20.7538   18.3907 C.ar    1  UNL1       -0.0205
     11 C          -7.6741  -20.9956   19.3298 C.ar    1  UNL1        0.0105
     12 C          -7.4916  -20.1166   20.5315 C.ar    1  UNL1        0.0514
     13 C          -8.4533  -18.9959   20.7941 C.ar    1  UNL1        0.0178
     14 C          -9.5977  -18.7542   19.8550 C.ar    1  UNL1        0.0383
     15 C          -9.7802  -19.6331   18.6533 C.ar    1  UNL1       -0.0011
     16 C         -10.5595  -17.6334   20.1176 C.ar    1  UNL1        0.1839
     17 N         -12.0153  -17.6181   19.7564 N.ar    1  UNL1       -0.1081
     18 N         -12.5900  -16.3065   20.2030 N.ar    1  UNL1       -0.0227
     19 N         -11.4893  -15.5112   20.8403 N.ar    1  UNL1       -0.0429
     20 N         -10.2344  -16.3313   20.7874 N.ar    1  UNL1       -0.2113
     21 C          -8.8904  -15.9212   21.3123 C.3     1  UNL1        0.1573
     22 C          -3.5974  -17.4312   24.1788 C.3     1  UNL1        0.0661
     23 C          -4.5070  -16.2604   23.9512 C.3     1  UNL1        0.1738
     24 O          -4.2690  -15.3402   22.7907 O.3     1  UNL1       -0.3697
     25 H          -4.9419  -14.6416   22.7888 H       1  UNL1        0.2119
     26 N          -5.6547  -16.0098   24.8840 N.3     1  UNL1       -0.2511
     27 C          -5.3922  -15.5968   26.3019 C.3     1  UNL1        0.0742
     28 C          -6.5399  -15.3462   27.2347 C.3     1  UNL1        0.0175
     29 C          -7.9499  -15.5086   26.7495 C.3     1  UNL1        0.0031
     30 C          -8.2124  -15.9216   25.3316 C.3     1  UNL1        0.0205
     31 C          -7.0647  -16.1721   24.3989 C.3     1  UNL1        0.0745
     32 C          -9.6224  -16.0839   24.8464 C.3     1  UNL1        0.0277
     33 C         -10.0706  -17.3935   24.2685 C.ar    1  UNL1       -0.0220
     34 C         -11.4309  -17.5130   23.6476 C.ar    1  UNL1       -0.0020
     35 C         -11.8791  -18.8226   23.0696 C.ar    1  UNL1        0.0293
     36 C         -10.9670  -20.0127   23.1125 C.ar    1  UNL1        0.1401
     37 F         -11.4153  -21.3223   22.5344 F       1  UNL1       -0.2042
     38 C          -9.6068  -19.8932   23.7333 C.ar    1  UNL1        0.0293
     39 C          -9.1586  -18.5836   24.3113 C.ar    1  UNL1       -0.0020
@<TRIPOS>BOND
     1     9    10    1
     2    10    11   ar
     3    11    12   ar
     4    12     3    1
     5     3     4   am
     6     4     5    2
     7     4     6   am
     8     6     1    1
     9     1     2    1
    10     1    22    1
    11    22    23    1
    12    23    24    1
    13    23    26    1
    14    26    27    1
    15    27    28    1
    16    28    29    1
    17    29    30    1
    18    30    32    1
    19    32    33    1
    20    33    34   ar
    21    34    35   ar
    22    35    36   ar
    23    36    37    1
    24    36    38   ar
    25    38    39   ar
    26    30    31    1
    27    12    13   ar
    28    13    14   ar
    29    14    16    1
    30    16    17   ar
    31    17    18   ar
    32    18    19   ar
    33    19    20   ar
    34    20    21    1
    35    14    15   ar
    36    15    10   ar
    37    31    26    1
    38    20    16   ar
    39    39    33   ar
    40     3     7    1
    41     6     8    1
    42    24    25    1
@<TRIPOS>MOLECULE
*****
 39 42 0 0 0
SMALL
GASTEIGER

@<TRIPOS>ATOM
      1 C          -5.1695  -19.9124   20.1267 C.3     1  UNL1        0.0770
      2 C          -4.5830  -18.9418   19.1447 C.3     1  UNL1        0.0214
      3 N          -9.1357  -19.8115   20.2208 N.am    1  UNL1       -0.2683
      4 C          -7.7035  -19.3852   20.3518 C.2     1  UNL1        0.3044
      5 O          -7.3732  -18.0054   20.8389 O.2     1  UNL1       -0.2525
      6 N          -6.6016  -20.3387   19.9957 N.am    1  UNL1       -0.2902
      7 H          -9.3525  -20.7171   19.9011 H       1  UNL1        0.1564
      8 H          -6.8184  -21.2442   19.6760 H       1  UNL1        0.1509
      9 C         -11.9524  -15.5820   19.1357 C.3     1  UNL1        0.0311
     10 C         -11.6459  -16.7433   20.0343 C.ar    1  UNL1       -0.0205
     11 C         -10.5441  -17.6968   19.6783 C.ar    1  UNL1        0.0105
     12 C         -10.2376  -18.8580   20.5769 C.ar    1  UNL1        0.0514
     13 C         -11.0329  -19.0658   21.8315 C.ar    1  UNL1        0.0178
     14 C         -12.1347  -18.1123   22.1876 C.ar    1  UNL1        0.0383
     15 C         -12.4412  -16.9511   21.2890 C.ar    1  UNL1       -0.0011
     16 C         -12.9302  -18.3201   23.4423 C.ar    1  UNL1        0.1839
     17 N         -14.4128  -18.1430   23.5858 N.ar    1  UNL1       -0.1081
     18 N         -14.7816  -18.4548   25.0059 N.ar    1  UNL1       -0.0227
     19 N         -13.5268  -18.8248   25.7401 N.ar    1  UNL1       -0.0429
     20 N         -12.3827  -18.7415   24.7737 N.ar    1  UNL1       -0.2113
     21 C         -10.9436  -19.0291   25.0842 C.3     1  UNL1        0.1573
     22 C          -4.3237  -20.4566   21.2396 C.3     1  UNL1        0.0661
     23 C          -3.0726  -19.7385   21.6508 C.3     1  UNL1        0.1738
     24 O          -1.7606  -20.4654   21.6640 O.3     1  UNL1       -0.3697
     25 H          -1.0589  -19.8607   21.9517 H       1  UNL1        0.2119
     26 N          -3.1336  -18.2936   22.0490 N.3     1  UNL1       -0.2511
     27 C          -2.2938  -17.2810   21.3283 C.3     1  UNL1        0.0742
     28 C          -2.3549  -15.8361   21.7265 C.3     1  UNL1        0.0175
     29 C          -3.2557  -15.4038   22.8452 C.3     1  UNL1        0.0031
     30 C          -4.0954  -16.4164   23.5659 C.3     1  UNL1        0.0205
     31 C          -4.0344  -17.8613   23.1677 C.3     1  UNL1        0.0745
     32 C          -4.9962  -15.9841   24.6847 C.3     1  UNL1        0.0277
     33 C          -6.4797  -15.9221   24.4718 C.ar    1  UNL1       -0.0220
     34 C          -7.0374  -15.9010   23.0795 C.ar    1  UNL1       -0.0020
     35 C          -8.5209  -15.8390   22.8666 C.ar    1  UNL1        0.0293
     36 C          -9.4468  -15.7981   24.0460 C.ar    1  UNL1        0.1401
     37 F         -10.9304  -15.7360   23.8331 F       1  UNL1       -0.2042
     38 C          -8.8892  -15.8191   25.4384 C.ar    1  UNL1        0.0293
     39 C          -7.4056  -15.8811   25.6513 C.ar    1  UNL1       -0.0020
@<TRIPOS>BOND
     1     9    10    1
     2    10    11   ar
     3    11    12   ar
     4    12     3    1
     5     3     4   am
     6     4     5    2
     7     4     6   am
     8     6     1    1
     9     1     2    1
    10     1    22    1
    11    22    23    1
    12    23    24    1
    13    23    26    1
    14    26    27    1
    15    27    28    1
    16    28    29    1
    17    29    30    1
    18    30    32    1
    19    32    33    1
    20    33    34   ar
    21    34    35   ar
    22    35    36   ar
    23    36    37    1
    24    36    38   ar
    25    38    39   ar
    26    30    31    1
    27    12    13   ar
    28    13    14   ar
    29    14    16    1
    30    16    17   ar
    31    17    18   ar
    32    18    19   ar
    33    19    20   ar
    34    20    21    1
    35    14    15   ar
    36    15    10   ar
    37    31    26    1
    38    20    16   ar
    39    39    33   ar
    40     3     7    1
    41     6     8    1
    42    24    25    1
@<TRIPOS>MOLECULE
*****
 39 42 0 0 0
SMALL
GASTEIGER

@<TRIPOS>ATOM
      1 C          -9.9857   -6.8228   17.8573 C.3     1  UNL1        0.0770
      2 C          -9.3179   -7.5527   18.9848 C.3     1  UNL1        0.0214
      3 N         -13.4445   -8.3622   16.6668 N.am    1  UNL1       -0.2683
      4 C         -12.4194   -7.6633   17.5099 C.2     1  UNL1        0.3044
      5 O         -12.8030   -7.1060   18.8487 O.2     1  UNL1       -0.2525
      6 N         -11.0108   -7.5217   17.0142 N.am    1  UNL1       -0.2902
      7 H         -13.1928   -8.7280   15.7882 H       1  UNL1        0.1564
      8 H         -10.7591   -7.8875   16.1355 H       1  UNL1        0.1509
      9 C         -17.1511  -11.2092   18.9376 C.3     1  UNL1        0.0311
     10 C         -16.7064   -9.9273   18.2980 C.ar    1  UNL1       -0.0205
     11 C         -15.2978   -9.7857   17.8022 C.ar    1  UNL1        0.0105
     12 C         -14.8531   -8.5038   17.1626 C.ar    1  UNL1        0.0514
     13 C         -15.8170   -7.3636   17.0187 C.ar    1  UNL1        0.0178
     14 C         -17.2256   -7.5052   17.5145 C.ar    1  UNL1        0.0383
     15 C         -17.6703   -8.7871   18.1541 C.ar    1  UNL1       -0.0011
     16 C         -18.1896   -6.3650   17.3706 C.ar    1  UNL1        0.1839
     17 N         -19.2656   -6.2458   16.3324 N.ar    1  UNL1       -0.1081
     18 N         -19.9879   -4.9510   16.5598 N.ar    1  UNL1       -0.0227
     19 N         -19.3582   -4.2699   17.7387 N.ar    1  UNL1       -0.0429
     20 N         -18.2468   -5.1438   18.2397 N.ar    1  UNL1       -0.2113
     21 C         -17.3501   -4.8483   19.4053 C.3     1  UNL1        0.1573
     22 C          -9.6285   -5.3940   17.5728 C.3     1  UNL1        0.0661
     23 C         -10.3138   -4.2870   18.3177 C.3     1  UNL1        0.1738
     24 O          -9.5859   -3.5501   19.4026 O.3     1  UNL1       -0.3697
     25 H         -10.1678   -2.8713   19.7790 H       1  UNL1        0.2119
     26 N         -11.7271   -3.9168   17.9775 N.3     1  UNL1       -0.2511
     27 C         -12.2736   -4.2176   16.6134 C.3     1  UNL1        0.0742
     28 C         -13.6868   -3.8474   16.2733 C.3     1  UNL1        0.0175
     29 C         -14.5536   -3.1765   17.2973 C.3     1  UNL1        0.0031
     30 C         -14.0071   -2.8757   18.6614 C.3     1  UNL1        0.0205
     31 C         -12.5939   -3.2459   19.0015 C.3     1  UNL1        0.0745
     32 C         -14.8739   -2.2048   19.6854 C.3     1  UNL1        0.0277
     33 C         -15.1960   -0.7456   19.5553 C.ar    1  UNL1       -0.0220
     34 C         -14.3525    0.1336   18.6802 C.ar    1  UNL1       -0.0020
     35 C         -14.6747    1.5928   18.5501 C.ar    1  UNL1        0.0293
     36 C         -15.8403    2.1728   19.2949 C.ar    1  UNL1        0.1401
     37 F         -16.1625    3.6321   19.1648 F       1  UNL1       -0.2042
     38 C         -16.6838    1.2937   20.1700 C.ar    1  UNL1        0.0293
     39 C         -16.3616   -0.1655   20.3001 C.ar    1  UNL1       -0.0020
@<TRIPOS>BOND
     1     9    10    1
     2    10    11   ar
     3    11    12   ar
     4    12     3    1
     5     3     4   am
     6     4     5    2
     7     4     6   am
     8     6     1    1
     9     1     2    1
    10     1    22    1
    11    22    23    1
    12    23    24    1
    13    23    26    1
    14    26    27    1
    15    27    28    1
    16    28    29    1
    17    29    30    1
    18    30    32    1
    19    32    33    1
    20    33    34   ar
    21    34    35   ar
    22    35    36   ar
    23    36    37    1
    24    36    38   ar
    25    38    39   ar
    26    30    31    1
    27    12    13   ar
    28    13    14   ar
    29    14    16    1
    30    16    17   ar
    31    17    18   ar
    32    18    19   ar
    33    19    20   ar
    34    20    21    1
    35    14    15   ar
    36    15    10   ar
    37    31    26    1
    38    20    16   ar
    39    39    33   ar
    40     3     7    1
    41     6     8    1
    42    24    25    1
@<TRIPOS>MOLECULE
*****
 39 42 0 0 0
SMALL
GASTEIGER

@<TRIPOS>ATOM
      1 C         -10.4425  -19.5481   20.0810 C.3     1  UNL1        0.0770
      2 C         -11.4973  -20.3667   20.7648 C.3     1  UNL1        0.0214
      3 N          -6.5057  -19.9180   20.4200 N.am    1  UNL1       -0.2683
      4 C          -7.8965  -19.3760   20.5688 C.2     1  UNL1        0.3044
      5 O          -8.1318  -18.1199   21.3542 O.2     1  UNL1       -0.2525
      6 N          -9.0518  -20.0901   19.9322 N.am    1  UNL1       -0.2902
      7 H          -6.3512  -20.7424   19.9046 H       1  UNL1        0.1564
      8 H          -8.8973  -20.9145   19.4167 H       1  UNL1        0.1509
      9 C          -4.4823  -17.3264   24.4437 C.3     1  UNL1        0.0311
     10 C          -4.3387  -17.9081   23.0685 C.ar    1  UNL1       -0.0205
     11 C          -5.4940  -18.6222   22.4318 C.ar    1  UNL1        0.0105
     12 C          -5.3504  -19.2039   21.0567 C.ar    1  UNL1        0.0514
     13 C          -4.0516  -19.0714   20.3182 C.ar    1  UNL1        0.0178
     14 C          -2.8963  -18.3573   20.9548 C.ar    1  UNL1        0.0383
     15 C          -3.0399  -17.7756   22.3300 C.ar    1  UNL1       -0.0011
     16 C          -1.5974  -18.2248   20.2163 C.ar    1  UNL1        0.1839
     17 N          -0.2425  -18.5967   20.7418 N.ar    1  UNL1       -0.1081
     18 N           0.7669  -18.2989   19.6730 N.ar    1  UNL1       -0.0227
     19 N           0.0359  -17.7430   18.4870 N.ar    1  UNL1       -0.0429
     20 N          -1.4253  -17.6972   18.8228 N.ar    1  UNL1       -0.2113
     21 C          -2.5218  -17.2094   17.9230 C.3     1  UNL1        0.1573
     22 C         -10.7785  -18.1876   19.5461 C.3     1  UNL1        0.0661
     23 C         -11.5877  -17.2346   20.3749 C.3     1  UNL1        0.1738
     24 O         -12.0513  -15.9354   19.7858 O.3     1  UNL1       -0.3697
     25 H         -12.5577  -15.4418   20.4497 H       1  UNL1        0.2119
     26 N         -11.9334  -17.5810   21.7929 N.3     1  UNL1       -0.2511
     27 C         -13.3692  -17.6324   22.2237 C.3     1  UNL1        0.0742
     28 C         -13.7148  -17.9787   23.6416 C.3     1  UNL1        0.0175
     29 C         -12.6246  -18.2735   24.6288 C.3     1  UNL1        0.0031
     30 C         -11.1887  -18.2221   24.1980 C.3     1  UNL1        0.0205
     31 C         -10.8431  -17.8758   22.7801 C.3     1  UNL1        0.0745
     32 C         -10.0985  -18.5169   25.1851 C.3     1  UNL1        0.0277
     33 C          -9.0962  -17.4570   25.5343 C.ar    1  UNL1       -0.0220
     34 C          -8.7199  -17.2236   26.9675 C.ar    1  UNL1       -0.0020
     35 C          -7.7176  -16.1637   27.3167 C.ar    1  UNL1        0.0293
     36 C          -7.0915  -15.3372   26.2328 C.ar    1  UNL1        0.1401
     37 F          -6.0892  -14.2772   26.5821 F       1  UNL1       -0.2042
     38 C          -7.4678  -15.5705   24.7997 C.ar    1  UNL1        0.0293
     39 C          -8.4701  -16.6305   24.4504 C.ar    1  UNL1       -0.0020
@<TRIPOS>BOND
     1     9    10    1
     2    10    11   ar
     3    11    12   ar
     4    12     3    1
     5     3     4   am
     6     4     5    2
     7     4     6   am
     8     6     1    1
     9     1     2    1
    10     1    22    1
    11    22    23    1
    12    23    24    1
    13    23    26    1
    14    26    27    1
    15    27    28    1
    16    28    29    1
    17    29    30    1
    18    30    32    1
    19    32    33    1
    20    33    34   ar
    21    34    35   ar
    22    35    36   ar
    23    36    37    1
    24    36    38   ar
    25    38    39   ar
    26    30    31    1
    27    12    13   ar
    28    13    14   ar
    29    14    16    1
    30    16    17   ar
    31    17    18   ar
    32    18    19   ar
    33    19    20   ar
    34    20    21    1
    35    14    15   ar
    36    15    10   ar
    37    31    26    1
    38    20    16   ar
    39    39    33   ar
    40     3     7    1
    41     6     8    1
    42    24    25    1
@<TRIPOS>MOLECULE
*****
 39 42 0 0 0
SMALL
GASTEIGER

@<TRIPOS>ATOM
      1 C         -10.0037  -19.5481   19.7074 C.3     1  UNL1        0.0770
      2 C         -10.7845  -20.4060   20.6583 C.3     1  UNL1        0.0214
      3 N          -6.0393  -19.7087   19.6212 N.am    1  UNL1       -0.2683
      4 C          -7.4338  -19.3179   20.0117 C.2     1  UNL1        0.3044
      5 O          -7.6530  -18.3060   21.0972 O.2     1  UNL1       -0.2525
      6 N          -8.6091  -19.9389   19.3168 N.am    1  UNL1       -0.2902
      7 H          -5.8954  -20.3728   18.9088 H       1  UNL1        0.1564
      8 H          -8.4653  -20.6030   18.6044 H       1  UNL1        0.1509
      9 C          -1.0936  -18.1166   19.5469 C.3     1  UNL1        0.0311
     10 C          -2.3911  -18.2916   20.2790 C.ar    1  UNL1       -0.0205
     11 C          -3.5664  -18.9126   19.5841 C.ar    1  UNL1        0.0105
     12 C          -4.8639  -19.0876   20.3161 C.ar    1  UNL1        0.0514
     13 C          -4.9861  -18.6416   21.7430 C.ar    1  UNL1        0.0178
     14 C          -3.8107  -18.0206   22.4379 C.ar    1  UNL1        0.0383
     15 C          -2.5132  -17.8456   21.7059 C.ar    1  UNL1       -0.0011
     16 C          -3.9329  -17.5745   23.8649 C.ar    1  UNL1        0.1839
     17 N          -3.3746  -18.2857   25.0618 N.ar    1  UNL1       -0.1081
     18 N          -3.7313  -17.4897   26.2821 N.ar    1  UNL1       -0.0227
     19 N          -4.5102  -16.2866   25.8393 N.ar    1  UNL1       -0.0429
     20 N          -4.6347  -16.3390   24.3454 N.ar    1  UNL1       -0.2113
     21 C          -5.3377  -15.3326   23.4835 C.3     1  UNL1        0.1573
     22 C         -10.6174  -18.2994   19.1470 C.3     1  UNL1        0.0661
     23 C         -11.0696  -17.2066   20.0697 C.3     1  UNL1        0.1738
     24 O         -11.0454  -15.7790   19.6101 O.3     1  UNL1       -0.3697
     25 H         -11.3670  -15.2045   20.3224 H       1  UNL1        0.2119
     26 N         -11.5462  -17.5415   21.4520 N.3     1  UNL1       -0.2511
     27 C         -13.0139  -17.5361   21.7612 C.3     1  UNL1        0.0742
     28 C         -13.4904  -17.8710   23.1435 C.3     1  UNL1        0.0175
     29 C         -12.4991  -18.2113   24.2166 C.3     1  UNL1        0.0031
     30 C         -11.0313  -18.2168   23.9074 C.3     1  UNL1        0.0205
     31 C         -10.5549  -17.8819   22.5251 C.3     1  UNL1        0.0745
     32 C         -10.0400  -18.5572   24.9805 C.3     1  UNL1        0.0277
     33 C          -9.2708  -17.4661   25.6643 C.ar    1  UNL1       -0.0220
     34 C          -9.0922  -17.4941   27.1534 C.ar    1  UNL1       -0.0020
     35 C          -8.3229  -16.4030   27.8372 C.ar    1  UNL1        0.0293
     36 C          -7.7322  -15.2838   27.0320 C.ar    1  UNL1        0.1401
     37 F          -6.9629  -14.1927   27.7159 F       1  UNL1       -0.2042
     38 C          -7.9108  -15.2557   25.5430 C.ar    1  UNL1        0.0293
     39 C          -8.6801  -16.3468   24.8591 C.ar    1  UNL1       -0.0020
@<TRIPOS>BOND
     1     9    10    1
     2    10    11   ar
     3    11    12   ar
     4    12     3    1
     5     3     4   am
     6     4     5    2
     7     4     6   am
     8     6     1    1
     9     1     2    1
    10     1    22    1
    11    22    23    1
    12    23    24    1
    13    23    26    1
    14    26    27    1
    15    27    28    1
    16    28    29    1
    17    29    30    1
    18    30    32    1
    19    32    33    1
    20    33    34   ar
    21    34    35   ar
    22    35    36   ar
    23    36    37    1
    24    36    38   ar
    25    38    39   ar
    26    30    31    1
    27    12    13   ar
    28    13    14   ar
    29    14    16    1
    30    16    17   ar
    31    17    18   ar
    32    18    19   ar
    33    19    20   ar
    34    20    21    1
    35    14    15   ar
    36    15    10   ar
    37    31    26    1
    38    20    16   ar
    39    39    33   ar
    40     3     7    1
    41     6     8    1
    42    24    25    1
@<TRIPOS>MOLECULE
*****
 39 42 0 0 0
SMALL
GASTEIGER

@<TRIPOS>ATOM
      1 C           7.6462   -4.7431   30.6119 C.3     1  UNL1        0.0770
      2 C           8.8431   -5.3622   31.2711 C.3     1  UNL1        0.0214
      3 N           4.7750   -2.9723   32.7024 N.am    1  UNL1       -0.2683
      4 C           6.0391   -3.1771   31.9214 C.2     1  UNL1        0.3044
      5 O           6.9604   -2.0205   31.6688 O.2     1  UNL1       -0.2525
      6 N           6.3821   -4.5384   31.3929 N.am    1  UNL1       -0.2902
      7 H           4.1703   -3.7314   32.8681 H       1  UNL1        0.1564
      8 H           5.7774   -5.2974   31.5587 H       1  UNL1        0.1509
      9 C           4.9714    0.5572   36.5107 C.3     1  UNL1        0.0311
     10 C           4.5303    0.1538   35.1350 C.ar    1  UNL1       -0.0205
     11 C           4.8732   -1.2075   34.6065 C.ar    1  UNL1        0.0105
     12 C           4.4321   -1.6110   33.2308 C.ar    1  UNL1        0.0514
     13 C           3.6481   -0.6532   32.3836 C.ar    1  UNL1        0.0178
     14 C           3.3052    0.7081   32.9120 C.ar    1  UNL1        0.0383
     15 C           3.7463    1.1116   34.2878 C.ar    1  UNL1       -0.0011
     16 C           2.5211    1.6660   32.0648 C.ar    1  UNL1        0.1839
     17 N           1.0273    1.7105   31.9365 N.ar    1  UNL1       -0.1081
     18 N           0.6762    2.8195   30.9895 N.ar    1  UNL1       -0.0227
     19 N           1.9531    3.4605   30.5325 N.ar    1  UNL1       -0.0429
     20 N           3.0933    2.7475   31.1971 N.ar    1  UNL1       -0.2113
     21 C           4.5499    3.0611   31.0242 C.3     1  UNL1        0.1573
     22 C           7.7136   -4.3289   29.1719 C.3     1  UNL1        0.0661
     23 C           6.4705   -4.3294   28.3324 C.3     1  UNL1        0.1738
     24 O           5.6596   -5.5836   28.1938 O.3     1  UNL1       -0.3697
     25 H           4.8951   -5.4128   27.6217 H       1  UNL1        0.2119
     26 N           6.0384   -3.0755   27.6315 N.3     1  UNL1       -0.2511
     27 C           6.2949   -2.9108   26.1628 C.3     1  UNL1        0.0742
     28 C           5.8627   -1.6570   25.4620 C.3     1  UNL1        0.0175
     29 C           5.1741   -0.5679   26.2299 C.3     1  UNL1        0.0031
     30 C           4.9177   -0.7326   27.6985 C.3     1  UNL1        0.0205
     31 C           5.3498   -1.9864   28.3993 C.3     1  UNL1        0.0745
     32 C           4.2291    0.3566   28.4664 C.3     1  UNL1        0.0277
     33 C           2.7463    0.5429   28.3375 C.ar    1  UNL1       -0.0220
     34 C           1.8090   -0.3751   29.0647 C.ar    1  UNL1       -0.0020
     35 C           0.3262   -0.1887   28.9358 C.ar    1  UNL1        0.0293
     36 C          -0.2193    0.9156   28.0797 C.ar    1  UNL1        0.1401
     37 F          -1.7021    1.1019   27.9508 F       1  UNL1       -0.2042
     38 C           0.7180    1.8335   27.3525 C.ar    1  UNL1        0.0293
     39 C           2.2008    1.6472   27.4813 C.ar    1  UNL1       -0.0020
@<TRIPOS>BOND
     1     9    10    1
     2    10    11   ar
     3    11    12   ar
     4    12     3    1
     5     3     4   am
     6     4     5    2
     7     4     6   am
     8     6     1    1
     9     1     2    1
    10     1    22    1
    11    22    23    1
    12    23    24    1
    13    23    26    1
    14    26    27    1
    15    27    28    1
    16    28    29    1
    17    29    30    1
    18    30    32    1
    19    32    33    1
    20    33    34   ar
    21    34    35   ar
    22    35    36   ar
    23    36    37    1
    24    36    38   ar
    25    38    39   ar
    26    30    31    1
    27    12    13   ar
    28    13    14   ar
    29    14    16    1
    30    16    17   ar
    31    17    18   ar
    32    18    19   ar
    33    19    20   ar
    34    20    21    1
    35    14    15   ar
    36    15    10   ar
    37    31    26    1
    38    20    16   ar
    39    39    33   ar
    40     3     7    1
    41     6     8    1
    42    24    25    1
