@<TRIPOS>MOLECULE
*****
 30 33 0 0 0
SMALL
GASTEIGER

@<TRIPOS>ATOM
      1 C           8.1467   -7.1807   24.2480 C.3     1  UNL1        0.0493
      2 C           7.7245   -5.8132   23.7989 C.2     1  UNL1        0.0588
      3 N           7.8851   -5.2500   22.4180 N.2     1  UNL1       -0.2525
      4 C           7.3274   -3.8575   22.4175 C.2     1  UNL1        0.0748
      5 C           6.8222   -3.5601   23.7982 C.2     1  UNL1       -0.0034
      6 C           6.1836   -2.2790   24.2464 C.3     1  UNL1        0.0300
      7 C           7.0676   -4.7688   24.6520 C.3     1  UNL1        0.1281
      8 C           7.2828   -2.9260   21.2426 C.2     1  UNL1        0.0231
      9 C           6.0097   -2.7566   20.4677 C.2     1  UNL1        0.0564
     10 C           4.7084   -3.4482   20.7477 C.2     1  UNL1        0.2496
     11 O           4.4518   -4.4305   21.8519 O.2     1  UNL1       -0.2698
     12 N           3.7089   -2.9849   19.7297 N.am    1  UNL1       -0.2804
     13 C           4.3924   -2.0071   18.8205 C.ar    1  UNL1        0.0508
     14 C           3.9037   -1.2269   17.6363 C.ar    1  UNL1        0.0170
     15 C           4.8370   -0.3057   16.9081 C.ar    1  UNL1        0.0309
     16 C           6.2590   -0.1646   17.3642 C.ar    1  UNL1        0.1402
     17 F           7.1923    0.7567   16.6360 F       1  UNL1       -0.2042
     18 C           6.7477   -0.9447   18.5485 C.ar    1  UNL1        0.0310
     19 C           5.8144   -1.8660   19.2766 C.ar    1  UNL1        0.0201
     20 H           2.7692   -3.2722   19.6690 H       1  UNL1        0.1552
     21 N           6.7175   -4.9086   26.1038 N.am    1  UNL1       -0.2968
     22 C           7.7392   -4.5916   27.1555 C.2     1  UNL1        0.2372
     23 O           9.1108   -4.1350   26.7553 O.2     1  UNL1       -0.2736
     24 H           5.8173   -5.2083   26.3665 H       1  UNL1        0.1500
     25 C           7.3891   -4.7314   28.6073 C.3     1  UNL1        0.1315
     26 C           7.1982   -3.6060   29.5805 C.3     1  UNL1        0.0265
     27 C           6.8596   -4.2002   30.9156 C.3     1  UNL1        0.0190
     28 C           6.8414   -5.6927   30.7675 C.3     1  UNL1        0.0689
     29 N           7.1686   -6.0210   29.3409 N.3     1  UNL1       -0.2913
     30 H           6.3945   -6.5323   28.9171 H       1  UNL1        0.1236
@<TRIPOS>BOND
     1     1     2    1
     2     2     3    2
     3     3     4    1
     4     4     8    1
     5     8     9    2
     6     9    10    1
     7    10    11    2
     8    10    12   am
     9    12    13    1
    10    13    14   ar
    11    14    15   ar
    12    15    16   ar
    13    16    17    1
    14    16    18   ar
    15    18    19   ar
    16     4     5    2
    17     5     6    1
    18     5     7    1
    19     7    21    1
    20    21    22   am
    21    22    23    2
    22    25    22    1
    23    25    26    1
    24    26    27    1
    25    27    28    1
    26    28    29    1
    27     7     2    1
    28    29    25    1
    29    19     9    1
    30    19    13   ar
    31    12    20    1
    32    21    24    1
    33    29    30    1
@<TRIPOS>MOLECULE
*****
 30 33 0 0 0
SMALL
GASTEIGER

@<TRIPOS>ATOM
      1 C           4.6911   -4.8376   19.0074 C.3     1  UNL1        0.0493
      2 C           4.1058   -3.5698   19.5550 C.2     1  UNL1        0.0588
      3 N           3.4112   -2.5041   18.7601 N.2     1  UNL1       -0.2525
      4 C           2.9884   -1.4207   19.7074 C.2     1  UNL1        0.0748
      5 C           3.4217   -1.8168   21.0877 C.2     1  UNL1       -0.0034
      6 C           3.2028   -1.0238   22.3420 C.3     1  UNL1        0.0300
      7 C           4.1123   -3.1450   20.9935 C.3     1  UNL1        0.1281
      8 C           2.2601   -0.1621   19.3390 C.2     1  UNL1        0.0231
      9 C           3.0298    1.0506   18.9066 C.2     1  UNL1        0.0564
     10 C           4.5220    1.1541   18.7946 C.2     1  UNL1        0.2496
     11 O           5.5066    0.0631   19.0954 O.2     1  UNL1       -0.2698
     12 N           4.8568    2.5402   18.3291 N.am    1  UNL1       -0.2804
     13 C           3.5716    3.2933   18.1533 C.ar    1  UNL1        0.0508
     14 C           3.2835    4.6984   17.7144 C.ar    1  UNL1        0.0170
     15 C           1.8663    5.1829   17.6324 C.ar    1  UNL1        0.0309
     16 C           0.7372    4.2623   17.9894 C.ar    1  UNL1        0.1402
     17 F          -0.6801    4.7468   17.9074 F       1  UNL1       -0.2042
     18 C           1.0252    2.8572   18.4283 C.ar    1  UNL1        0.0310
     19 C           2.4424    2.3727   18.5103 C.ar    1  UNL1        0.0201
     20 H           5.7614    2.8936   18.1673 H       1  UNL1        0.1552
     21 N           4.7052   -3.9135   22.1371 N.am    1  UNL1       -0.2968
     22 C           6.0311   -3.5053   22.7077 C.2     1  UNL1        0.2372
     23 O           6.7640   -2.3286   22.1347 O.2     1  UNL1       -0.2736
     24 H           4.2243   -4.6858   22.5132 H       1  UNL1        0.1500
     25 C           6.6241   -4.2738   23.8513 C.3     1  UNL1        0.1315
     26 C           7.6979   -5.3163   23.7504 C.3     1  UNL1        0.0265
     27 C           7.9848   -5.8215   25.1333 C.3     1  UNL1        0.0190
     28 C           7.0883   -5.0913   26.0888 C.3     1  UNL1        0.0689
     29 N           6.2474   -4.1348   25.2965 N.3     1  UNL1       -0.2913
     30 H           6.4216   -3.1797   25.6093 H       1  UNL1        0.1236
@<TRIPOS>BOND
     1     1     2    1
     2     2     3    2
     3     3     4    1
     4     4     8    1
     5     8     9    2
     6     9    10    1
     7    10    11    2
     8    10    12   am
     9    12    13    1
    10    13    14   ar
    11    14    15   ar
    12    15    16   ar
    13    16    17    1
    14    16    18   ar
    15    18    19   ar
    16     4     5    2
    17     5     6    1
    18     5     7    1
    19     7    21    1
    20    21    22   am
    21    22    23    2
    22    25    22    1
    23    25    26    1
    24    26    27    1
    25    27    28    1
    26    28    29    1
    27     7     2    1
    28    29    25    1
    29    19     9    1
    30    19    13   ar
    31    12    20    1
    32    21    24    1
    33    29    30    1
@<TRIPOS>MOLECULE
*****
 30 33 0 0 0
SMALL
GASTEIGER

@<TRIPOS>ATOM
      1 C           7.6608    1.6714   33.5401 C.3     1  UNL1        0.0493
      2 C           7.1621    0.2959   33.2093 C.2     1  UNL1        0.0588
      3 N           7.8741   -0.7213   32.3677 N.2     1  UNL1       -0.2525
      4 C           7.0159   -1.9497   32.3003 C.2     1  UNL1        0.0748
      5 C           5.7736   -1.6916   33.1004 C.2     1  UNL1       -0.0034
      6 C           4.6399   -2.6527   33.3030 C.3     1  UNL1        0.0300
      7 C           5.8639   -0.3037   33.6621 C.3     1  UNL1        0.1281
      8 C           7.3427   -3.2142   31.5625 C.2     1  UNL1        0.0231
      9 C           6.9144   -3.3814   30.1347 C.2     1  UNL1        0.0564
     10 C           6.1574   -2.3767   29.3178 C.2     1  UNL1        0.2496
     11 O           5.6957   -1.0282   29.7853 O.2     1  UNL1       -0.2698
     12 N           5.9431   -2.9571   27.9514 N.am    1  UNL1       -0.2804
     13 C           6.5677   -4.3206   27.9237 C.ar    1  UNL1        0.0508
     14 C           6.6674   -5.3572   26.8442 C.ar    1  UNL1        0.0170
     15 C           7.3673   -6.6561   27.1140 C.ar    1  UNL1        0.0309
     16 C           7.9677   -6.9184   28.4634 C.ar    1  UNL1        0.1402
     17 F           8.6677   -8.2173   28.7332 F       1  UNL1       -0.2042
     18 C           7.8680   -5.8817   29.5430 C.ar    1  UNL1        0.0310
     19 C           7.1680   -4.5829   29.2731 C.ar    1  UNL1        0.0201
     20 H           5.4747   -2.5199   27.2039 H       1  UNL1        0.1552
     21 N           4.8365    0.3667   34.5252 N.am    1  UNL1       -0.2968
     22 C           4.9115    0.2380   36.0178 C.2     1  UNL1        0.2372
     23 O           6.0138   -0.5612   36.6474 O.2     1  UNL1       -0.2736
     24 H           4.1131    0.8912   34.1121 H       1  UNL1        0.1500
     25 C           3.8841    0.9084   36.8809 C.3     1  UNL1        0.1315
     26 C           3.1046    2.1406   36.5282 C.3     1  UNL1        0.0265
     27 C           2.1946    2.4581   37.6775 C.3     1  UNL1        0.0190
     28 C           2.4116    1.4223   38.7405 C.3     1  UNL1        0.0689
     29 N           3.4557    0.4646   38.2482 N.3     1  UNL1       -0.2913
     30 H           3.0667   -0.4771   38.2003 H       1  UNL1        0.1236
@<TRIPOS>BOND
     1     1     2    1
     2     2     3    2
     3     3     4    1
     4     4     8    1
     5     8     9    2
     6     9    10    1
     7    10    11    2
     8    10    12   am
     9    12    13    1
    10    13    14   ar
    11    14    15   ar
    12    15    16   ar
    13    16    17    1
    14    16    18   ar
    15    18    19   ar
    16     4     5    2
    17     5     6    1
    18     5     7    1
    19     7    21    1
    20    21    22   am
    21    22    23    2
    22    25    22    1
    23    25    26    1
    24    26    27    1
    25    27    28    1
    26    28    29    1
    27     7     2    1
    28    29    25    1
    29    19     9    1
    30    19    13   ar
    31    12    20    1
    32    21    24    1
    33    29    30    1
@<TRIPOS>MOLECULE
*****
 30 33 0 0 0
SMALL
GASTEIGER

@<TRIPOS>ATOM
      1 C          -7.8396  -15.8790   27.2275 C.3     1  UNL1        0.0493
      2 C          -7.2918  -16.0136   25.8376 C.2     1  UNL1        0.0588
      3 N          -5.8475  -15.9120   25.4455 N.2     1  UNL1       -0.2525
      4 C          -5.7552  -16.1091   23.9614 C.2     1  UNL1        0.0748
      5 C          -7.1424  -16.3324   23.4363 C.2     1  UNL1       -0.0034
      6 C          -7.5146  -16.5726   22.0032 C.3     1  UNL1        0.0300
      7 C          -8.0921  -16.2734   24.5959 C.3     1  UNL1        0.1281
      8 C          -4.4966  -16.0867   23.1456 C.2     1  UNL1        0.0231
      9 C          -4.0301  -17.3323   22.4520 C.2     1  UNL1        0.0564
     10 C          -4.7139  -18.6670   22.4824 C.2     1  UNL1        0.2496
     11 O          -5.9840  -18.9906   23.2117 O.2     1  UNL1       -0.2698
     12 N          -3.9043  -19.6213   21.6554 N.am    1  UNL1       -0.2804
     13 C          -2.7203  -18.8764   21.1139 C.ar    1  UNL1        0.0508
     14 C          -1.5815  -19.3035   20.2361 C.ar    1  UNL1        0.0170
     15 C          -0.5204  -18.3159   19.8507 C.ar    1  UNL1        0.0309
     16 C          -0.5981  -16.9012   20.3430 C.ar    1  UNL1        0.1402
     17 F           0.4630  -15.9135   19.9575 F       1  UNL1       -0.2042
     18 C          -1.7370  -16.4740   21.2208 C.ar    1  UNL1        0.0310
     19 C          -2.7981  -17.4616   21.6062 C.ar    1  UNL1        0.0201
     20 H          -4.1134  -20.5701   21.4960 H       1  UNL1        0.1552
     21 N          -9.5807  -16.4442   24.5260 N.am    1  UNL1       -0.2968
     22 C         -10.1678  -17.7931   24.2328 C.2     1  UNL1        0.2372
     23 O          -9.2665  -18.9711   24.0096 O.2     1  UNL1       -0.2736
     24 H         -10.1723  -15.6711   24.6725 H       1  UNL1        0.1500
     25 C         -11.6564  -17.9639   24.1629 C.3     1  UNL1        0.1315
     26 C         -12.5475  -17.4873   23.0543 C.3     1  UNL1        0.0265
     27 C         -13.9571  -17.8701   23.3956 C.3     1  UNL1        0.0190
     28 C         -13.9372  -18.5833   24.7150 C.3     1  UNL1        0.0689
     29 N         -12.5154  -18.6413   25.1892 N.3     1  UNL1       -0.2913
     30 H         -12.2255  -19.6133   25.2961 H       1  UNL1        0.1236
@<TRIPOS>BOND
     1     1     2    1
     2     2     3    2
     3     3     4    1
     4     4     8    1
     5     8     9    2
     6     9    10    1
     7    10    11    2
     8    10    12   am
     9    12    13    1
    10    13    14   ar
    11    14    15   ar
    12    15    16   ar
    13    16    17    1
    14    16    18   ar
    15    18    19   ar
    16     4     5    2
    17     5     6    1
    18     5     7    1
    19     7    21    1
    20    21    22   am
    21    22    23    2
    22    25    22    1
    23    25    26    1
    24    26    27    1
    25    27    28    1
    26    28    29    1
    27     7     2    1
    28    29    25    1
    29    19     9    1
    30    19    13   ar
    31    12    20    1
    32    21    24    1
    33    29    30    1
@<TRIPOS>MOLECULE
*****
 30 33 0 0 0
SMALL
GASTEIGER

@<TRIPOS>ATOM
      1 C           4.6610   -4.6507   18.6070 C.3     1  UNL1        0.0493
      2 C           4.6345   -3.1995   18.9853 C.2     1  UNL1        0.0588
      3 N           3.8743   -2.1175   18.2774 N.2     1  UNL1       -0.2525
      4 C           4.1336   -0.8248   18.9926 C.2     1  UNL1        0.0748
      5 C           5.0541   -1.1078   20.1426 C.2     1  UNL1       -0.0034
      6 C           5.5737   -0.1001   21.1246 C.3     1  UNL1        0.0300
      7 C           5.3637   -2.5755   20.1381 C.3     1  UNL1        0.1281
      8 C           3.5710    0.5158   18.6227 C.2     1  UNL1        0.0231
      9 C           2.2085    0.9164   19.1053 C.2     1  UNL1        0.0564
     10 C           1.2966    0.0869   19.9599 C.2     1  UNL1        0.2496
     11 O           1.5872   -1.2890   20.4819 O.2     1  UNL1       -0.2698
     12 N           0.0432    0.8748   20.2008 N.am    1  UNL1       -0.2804
     13 C           0.1803    2.1913   19.4950 C.ar    1  UNL1        0.0508
     14 C          -0.7404    3.3699   19.3814 C.ar    1  UNL1        0.0170
     15 C          -0.3229    4.5743   18.5908 C.ar    1  UNL1        0.0309
     16 C           1.0153    4.6000   17.9138 C.ar    1  UNL1        0.1402
     17 F           1.4328    5.8045   17.1231 F       1  UNL1       -0.2042
     18 C           1.9361    3.4214   18.0273 C.ar    1  UNL1        0.0310
     19 C           1.5186    2.2170   18.8180 C.ar    1  UNL1        0.0201
     20 H          -0.7332    0.5797   20.7293 H       1  UNL1        0.1552
     21 N           6.2473   -3.2932   21.1149 N.am    1  UNL1       -0.2968
     22 C           5.7084   -3.7017   22.4539 C.2     1  UNL1        0.2372
     23 O           4.2860   -3.3926   22.8160 O.2     1  UNL1       -0.2736
     24 H           7.1809   -3.4961   20.8773 H       1  UNL1        0.1500
     25 C           6.5921   -4.4193   23.4307 C.3     1  UNL1        0.1315
     26 C           6.5620   -4.2683   24.9228 C.3     1  UNL1        0.0265
     27 C           7.6123   -5.1696   25.5011 C.3     1  UNL1        0.0190
     28 C           8.2914   -5.8778   24.3665 C.3     1  UNL1        0.0689
     29 N           7.6609   -5.4140   23.0870 N.3     1  UNL1       -0.2913
     30 H           7.2498   -6.2080   22.5960 H       1  UNL1        0.1236
@<TRIPOS>BOND
     1     1     2    1
     2     2     3    2
     3     3     4    1
     4     4     8    1
     5     8     9    2
     6     9    10    1
     7    10    11    2
     8    10    12   am
     9    12    13    1
    10    13    14   ar
    11    14    15   ar
    12    15    16   ar
    13    16    17    1
    14    16    18   ar
    15    18    19   ar
    16     4     5    2
    17     5     6    1
    18     5     7    1
    19     7    21    1
    20    21    22   am
    21    22    23    2
    22    25    22    1
    23    25    26    1
    24    26    27    1
    25    27    28    1
    26    28    29    1
    27     7     2    1
    28    29    25    1
    29    19     9    1
    30    19    13   ar
    31    12    20    1
    32    21    24    1
    33    29    30    1
@<TRIPOS>MOLECULE
*****
 30 33 0 0 0
SMALL
GASTEIGER

@<TRIPOS>ATOM
      1 C           1.6942    5.2536   29.4920 C.3     1  UNL1        0.0493
      2 C           0.7600    4.3708   28.7189 C.2     1  UNL1        0.0588
      3 N          -0.3769    4.8317   27.8557 N.2     1  UNL1       -0.2525
      4 C          -1.0409    3.6178   27.2766 C.2     1  UNL1        0.0748
      5 C          -0.3144    2.4066   27.7818 C.2     1  UNL1       -0.0034
      6 C          -0.6432    0.9805   27.4533 C.3     1  UNL1        0.0300
      7 C           0.7986    2.8720   28.6733 C.3     1  UNL1        0.1281
      8 C          -2.2237    3.6154   26.3541 C.2     1  UNL1        0.0231
      9 C          -2.0164    3.5836   24.8688 C.2     1  UNL1        0.0564
     10 C          -0.6928    3.5521   24.1638 C.2     1  UNL1        0.2496
     11 O           0.6559    3.5470   24.8202 O.2     1  UNL1       -0.2698
     12 N          -0.9548    3.5267   22.6871 N.am    1  UNL1       -0.2804
     13 C          -2.4403    3.5424   22.4794 C.ar    1  UNL1        0.0508
     14 C          -3.2802    3.5292   21.2367 C.ar    1  UNL1        0.0170
     15 C          -4.7762    3.5512   21.3424 C.ar    1  UNL1        0.0309
     16 C          -5.4324    3.5863   22.6909 C.ar    1  UNL1        0.1402
     17 F          -6.9286    3.6083   22.7965 F       1  UNL1       -0.2042
     18 C          -4.5925    3.5995   23.9335 C.ar    1  UNL1        0.0310
     19 C          -3.0964    3.5775   23.8278 C.ar    1  UNL1        0.0201
     20 H          -0.2717    3.5037   21.9785 H       1  UNL1        0.1552
     21 N           1.7782    1.9929   29.3927 N.am    1  UNL1       -0.2968
     22 C           1.4369    1.4392   30.7444 C.2     1  UNL1        0.2372
     23 O           0.1161    1.7644   31.3765 O.2     1  UNL1       -0.2736
     24 H           2.6451    1.7795   28.9778 H       1  UNL1        0.1500
     25 C           2.4166    0.5601   31.4638 C.3     1  UNL1        0.1315
     26 C           3.1090   -0.6412   30.8915 C.3     1  UNL1        0.0265
     27 C           3.9961   -1.2157   31.9559 C.3     1  UNL1        0.0190
     28 C           3.8520   -0.3696   33.1860 C.3     1  UNL1        0.0689
     29 N           2.8758    0.7279   32.8819 N.3     1  UNL1       -0.2913
     30 H           3.3287    1.6349   32.9940 H       1  UNL1        0.1236
@<TRIPOS>BOND
     1     1     2    1
     2     2     3    2
     3     3     4    1
     4     4     8    1
     5     8     9    2
     6     9    10    1
     7    10    11    2
     8    10    12   am
     9    12    13    1
    10    13    14   ar
    11    14    15   ar
    12    15    16   ar
    13    16    17    1
    14    16    18   ar
    15    18    19   ar
    16     4     5    2
    17     5     6    1
    18     5     7    1
    19     7    21    1
    20    21    22   am
    21    22    23    2
    22    25    22    1
    23    25    26    1
    24    26    27    1
    25    27    28    1
    26    28    29    1
    27     7     2    1
    28    29    25    1
    29    19     9    1
    30    19    13   ar
    31    12    20    1
    32    21    24    1
    33    29    30    1
@<TRIPOS>MOLECULE
*****
 30 33 0 0 0
SMALL
GASTEIGER

@<TRIPOS>ATOM
      1 C           8.3251   -6.1907   23.9840 C.3     1  UNL1        0.0493
      2 C           7.3492   -5.0523   23.9413 C.2     1  UNL1        0.0588
      3 N           6.5028   -4.6603   22.7667 N.2     1  UNL1       -0.2525
      4 C           5.6789   -3.4718   23.1651 C.2     1  UNL1        0.0748
      5 C           6.0163   -3.1293   24.5860 C.2     1  UNL1       -0.0034
      6 C           5.4251   -2.0070   25.3866 C.3     1  UNL1        0.0300
      7 C           7.0486   -4.1061   25.0657 C.3     1  UNL1        0.1281
      8 C           4.6911   -2.7521   22.2953 C.2     1  UNL1        0.0231
      9 C           5.1652   -1.7118   21.3242 C.2     1  UNL1        0.0564
     10 C           6.5880   -1.2867   21.1124 C.2     1  UNL1        0.2496
     11 O           7.7865   -1.8272   21.8344 O.2     1  UNL1       -0.2698
     12 N           6.6018   -0.2261   20.0517 N.am    1  UNL1       -0.2804
     13 C           5.1875    0.0042   19.6081 C.ar    1  UNL1        0.0508
     14 C           4.5935    0.9314   18.5896 C.ar    1  UNL1        0.0170
     15 C           3.1116    0.9404   18.3576 C.ar    1  UNL1        0.0309
     16 C           2.2237    0.0222   19.1440 C.ar    1  UNL1        0.1402
     17 F           0.7417    0.0312   18.9120 F       1  UNL1       -0.2042
     18 C           2.8177   -0.9050   20.1625 C.ar    1  UNL1        0.0310
     19 C           4.2996   -0.9140   20.3945 C.ar    1  UNL1        0.0201
     20 H           7.3991    0.2374   19.7072 H       1  UNL1        0.1552
     21 N           7.6710   -4.1322   26.4302 N.am    1  UNL1       -0.2968
     22 C           7.2505   -5.1717   27.4266 C.2     1  UNL1        0.2372
     23 O           6.2077   -6.1851   27.0585 O.2     1  UNL1       -0.2736
     24 H           8.3554   -3.4670   26.6719 H       1  UNL1        0.1500
     25 C           7.8729   -5.1977   28.7911 C.3     1  UNL1        0.1315
     26 C           7.2729   -5.8093   30.0224 C.3     1  UNL1        0.0265
     27 C           8.2337   -5.6063   31.1562 C.3     1  UNL1        0.0190
     28 C           9.4276   -4.8693   30.6256 C.3     1  UNL1        0.0689
     29 N           9.2046   -4.6168   29.1640 N.3     1  UNL1       -0.2913
     30 H           9.9420   -5.0637   28.6191 H       1  UNL1        0.1236
@<TRIPOS>BOND
     1     1     2    1
     2     2     3    2
     3     3     4    1
     4     4     8    1
     5     8     9    2
     6     9    10    1
     7    10    11    2
     8    10    12   am
     9    12    13    1
    10    13    14   ar
    11    14    15   ar
    12    15    16   ar
    13    16    17    1
    14    16    18   ar
    15    18    19   ar
    16     4     5    2
    17     5     6    1
    18     5     7    1
    19     7    21    1
    20    21    22   am
    21    22    23    2
    22    25    22    1
    23    25    26    1
    24    26    27    1
    25    27    28    1
    26    28    29    1
    27     7     2    1
    28    29    25    1
    29    19     9    1
    30    19    13   ar
    31    12    20    1
    32    21    24    1
    33    29    30    1
@<TRIPOS>MOLECULE
*****
 30 33 0 0 0
SMALL
GASTEIGER

@<TRIPOS>ATOM
      1 C         -11.9166   -6.2614   19.2298 C.3     1  UNL1        0.0493
      2 C         -13.0087   -5.2419   19.3638 C.2     1  UNL1        0.0588
      3 N         -12.8272   -3.7531   19.3850 N.2     1  UNL1       -0.2525
      4 C         -14.1804   -3.1234   19.5344 C.2     1  UNL1        0.0748
      5 C         -15.1981   -4.2229   19.6057 C.2     1  UNL1       -0.0034
      6 C         -16.6798   -4.0445   19.7559 C.3     1  UNL1        0.0300
      7 C         -14.4740   -5.5323   19.5002 C.3     1  UNL1        0.1281
      8 C         -14.4657   -1.6522   19.6010 C.2     1  UNL1        0.0231
      9 C         -14.6347   -0.8630   18.3366 C.2     1  UNL1        0.0564
     10 C         -14.5464   -1.4049   16.9406 C.2     1  UNL1        0.2496
     11 O         -14.2737   -2.8310   16.5640 O.2     1  UNL1       -0.2698
     12 N         -14.7788   -0.2702   15.9875 N.am    1  UNL1       -0.2804
     13 C         -15.0107    0.9729   16.7943 C.ar    1  UNL1        0.0508
     14 C         -15.2914    2.3911   16.3946 C.ar    1  UNL1        0.0170
     15 C         -15.4831    3.4429   17.4467 C.ar    1  UNL1        0.0309
     16 C         -15.3940    3.0765   18.8985 C.ar    1  UNL1        0.1402
     17 F         -15.5857    4.1284   19.9506 F       1  UNL1       -0.2042
     18 C         -15.1133    1.6583   19.2982 C.ar    1  UNL1        0.0310
     19 C         -14.9216    0.6065   18.2462 C.ar    1  UNL1        0.0201
     20 H         -14.7791   -0.3307   15.0049 H       1  UNL1        0.1552
     21 N         -15.1044   -6.8932   19.5265 N.am    1  UNL1       -0.2968
     22 C         -15.8256   -7.4091   18.3167 C.2     1  UNL1        0.2372
     23 O         -15.9165   -6.5643   17.0806 O.2     1  UNL1       -0.2736
     24 H         -15.0448   -7.4477   20.3378 H       1  UNL1        0.1500
     25 C         -16.4561   -8.7699   18.3430 C.3     1  UNL1        0.1315
     26 C         -17.9052   -9.0751   18.1041 C.3     1  UNL1        0.0265
     27 C         -18.0928  -10.5582   18.2263 C.3     1  UNL1        0.0190
     28 C         -16.7597  -11.1697   18.5408 C.3     1  UNL1        0.0689
     29 N         -15.7482  -10.0645   18.6129 N.3     1  UNL1       -0.2913
     30 H         -15.0215  -10.2141   17.9130 H       1  UNL1        0.1236
@<TRIPOS>BOND
     1     1     2    1
     2     2     3    2
     3     3     4    1
     4     4     8    1
     5     8     9    2
     6     9    10    1
     7    10    11    2
     8    10    12   am
     9    12    13    1
    10    13    14   ar
    11    14    15   ar
    12    15    16   ar
    13    16    17    1
    14    16    18   ar
    15    18    19   ar
    16     4     5    2
    17     5     6    1
    18     5     7    1
    19     7    21    1
    20    21    22   am
    21    22    23    2
    22    25    22    1
    23    25    26    1
    24    26    27    1
    25    27    28    1
    26    28    29    1
    27     7     2    1
    28    29    25    1
    29    19     9    1
    30    19    13   ar
    31    12    20    1
    32    21    24    1
    33    29    30    1
@<TRIPOS>MOLECULE
*****
 30 33 0 0 0
SMALL
GASTEIGER

@<TRIPOS>ATOM
      1 C           1.1448    3.4972   25.3020 C.3     1  UNL1        0.0493
      2 C           0.9661    2.5170   26.4233 C.2     1  UNL1        0.0588
      3 N           2.0651    1.8806   27.2215 N.2     1  UNL1       -0.2525
      4 C           1.4353    0.9715   28.2348 C.2     1  UNL1        0.0748
      5 C          -0.0530    1.0461   28.0628 C.2     1  UNL1       -0.0034
      6 C          -1.0723    0.2970   28.8689 C.3     1  UNL1        0.0300
      7 C          -0.3429    2.0014   26.9432 C.3     1  UNL1        0.1281
      8 C           2.1655    0.1347   29.2431 C.2     1  UNL1        0.0231
      9 C           2.4659    0.6912   30.6033 C.2     1  UNL1        0.0564
     10 C           2.1006    2.0600   31.0961 C.2     1  UNL1        0.2496
     11 O           1.3708    3.1126   30.3155 O.2     1  UNL1       -0.2698
     12 N           2.5932    2.1914   32.5068 N.am    1  UNL1       -0.2804
     13 C           3.2630    0.9038   32.8858 C.ar    1  UNL1        0.0508
     14 C           3.9344    0.4559   34.1501 C.ar    1  UNL1        0.0170
     15 C           4.5270   -0.9193   34.2379 C.ar    1  UNL1        0.0309
     16 C           4.4483   -1.8464   33.0614 C.ar    1  UNL1        0.1402
     17 F           5.0410   -3.2216   33.1493 F       1  UNL1       -0.2042
     18 C           3.7769   -1.3985   31.7971 C.ar    1  UNL1        0.0310
     19 C           3.1843   -0.0234   31.7093 C.ar    1  UNL1        0.0201
     20 H           2.4944    2.9836   33.0829 H       1  UNL1        0.1552
     21 N          -1.7031    2.3752   26.4332 N.am    1  UNL1       -0.2968
     22 C          -2.2528    3.7455   26.6980 C.2     1  UNL1        0.2372
     23 O          -1.4424    4.7420   27.4728 O.2     1  UNL1       -0.2736
     24 H          -2.2350    1.7212   25.9246 H       1  UNL1        0.1500
     25 C          -3.6129    4.1194   26.1879 C.3     1  UNL1        0.1315
     26 C          -4.5785    5.0537   26.8548 C.3     1  UNL1        0.0265
     27 C          -5.8087    5.1363   26.0005 C.3     1  UNL1        0.0190
     28 C          -5.6034    4.2531   24.8056 C.3     1  UNL1        0.0689
     29 N          -4.2463    3.6246   24.9215 N.3     1  UNL1       -0.2913
     30 H          -3.6726    3.8898   24.1209 H       1  UNL1        0.1236
@<TRIPOS>BOND
     1     1     2    1
     2     2     3    2
     3     3     4    1
     4     4     8    1
     5     8     9    2
     6     9    10    1
     7    10    11    2
     8    10    12   am
     9    12    13    1
    10    13    14   ar
    11    14    15   ar
    12    15    16   ar
    13    16    17    1
    14    16    18   ar
    15    18    19   ar
    16     4     5    2
    17     5     6    1
    18     5     7    1
    19     7    21    1
    20    21    22   am
    21    22    23    2
    22    25    22    1
    23    25    26    1
    24    26    27    1
    25    27    28    1
    26    28    29    1
    27     7     2    1
    28    29    25    1
    29    19     9    1
    30    19    13   ar
    31    12    20    1
    32    21    24    1
    33    29    30    1
