@<TRIPOS>MOLECULE
*****
 36 39 0 0 0
SMALL
GASTEIGER

@<TRIPOS>ATOM
      1 C           1.4186    2.4843   18.4903 C.ar    1  UNL1        0.0527
      2 C           2.4798    3.5412   18.4088 C.ar    1  UNL1        0.0466
      3 C           3.9269    3.1492   18.3643 C.ar    1  UNL1        0.1684
      4 F           4.9881    4.2062   18.2827 F       1  UNL1       -0.2018
      5 C           4.3130    1.7002   18.4013 C.ar    1  UNL1        0.1652
      6 F           5.7602    1.3083   18.3568 F       1  UNL1       -0.2021
      7 C           3.2518    0.6432   18.4829 C.ar    1  UNL1        0.0288
      8 C           1.8047    1.0352   18.5274 C.ar    1  UNL1        0.0146
      9 C           3.6378   -0.8058   18.5200 C.3     1  UNL1        0.1081
     10 C           3.5760   -0.5905   17.0368 C.3     1  UNL1        0.0291
     11 N           4.0024   -2.1801   18.0419 N.2     1  UNL1       -0.2509
     12 C           4.2947   -3.2663   19.0342 C.2     1  UNL1        0.1482
     13 N           4.6592   -4.6405   18.5562 N.pl3   1  UNL1       -0.3380
     14 S           4.2224   -2.9784   20.5045 S.3     1  UNL1       -0.0800
     15 C           3.8578   -1.6041   20.9826 C.3     1  UNL1        0.0752
     16 C           3.4932   -0.2299   21.4606 C.3     1  UNL1        0.0160
     17 C           3.5655   -0.5178   19.9903 C.3     1  UNL1        0.0375
     18 H           4.7067   -4.8296   17.5912 H       1  UNL1        0.1442
     19 H           4.8511   -5.3535   19.2074 H       1  UNL1        0.1442
     20 C           3.9848   -2.0649   22.4043 C.3     1  UNL1        0.1525
     21 O           3.4278   -1.2272   23.5169 O.3     1  UNL1       -0.3502
     22 C           4.0291   -1.3065   24.8889 C.3     1  UNL1        0.1741
     23 C          -0.7537    2.9203   19.8473 C.2     1  UNL1        0.2688
     24 O          -0.0315    2.5723   21.1151 O.2     1  UNL1       -0.2681
     25 N          -0.0285    2.8763   18.5348 N.am    1  UNL1       -0.2790
     26 H          -0.5025    3.1047   17.7027 H       1  UNL1        0.1552
     27 C          -5.0952    4.0963   19.9808 C.ar    1  UNL1        0.2457
     28 C          -4.5136    3.2494   21.0737 C.ar    1  UNL1        0.1566
     29 N          -3.0664    2.8574   21.0292 N.ar    1  UNL1       -0.2328
     30 C          -2.2008    3.3123   19.8918 C.ar    1  UNL1        0.1541
     31 C          -2.7824    4.1592   18.7988 C.ar    1  UNL1        0.1258
     32 N          -4.2295    4.5512   18.8433 N.ar    1  UNL1       -0.2070
     33 O          -6.5423    4.4883   20.0253 O.3     1  UNL1       -0.4444
     34 C          -7.0167    5.4924   21.0336 C.3     1  UNL1        0.2838
     35 C          -7.7314    4.6077   23.8097 C.1     1  UNL1       -0.0105
     36 C          -7.3740    5.0501   22.4217 C.1     1  UNL1       -0.0306
@<TRIPOS>BOND
     1    35    36    3
     2    36    34    1
     3    34    33    1
     4    33    27    1
     5    27    28   ar
     6    28    29   ar
     7    29    30   ar
     8    30    23    1
     9    23    24    2
    10    23    25   am
    11    25     1    1
    12     1     2   ar
    13     2     3   ar
    14     3     4    1
    15     3     5   ar
    16     5     6    1
    17     5     7   ar
    18     7     9    1
    19     9    10    1
    20     9    11    1
    21    11    12    2
    22    12    13    1
    23    12    14    1
    24    14    15    1
    25    15    20    1
    26    20    21    1
    27    21    22    1
    28    15    16    1
    29    17    16    1
    30     7     8   ar
    31    30    31   ar
    32    31    32   ar
    33    32    27   ar
    34     8     1   ar
    35    17     9    1
    36    17    15    1
    37    25    26    1
    38    13    18    1
    39    13    19    1
@<TRIPOS>MOLECULE
*****
 36 39 0 0 0
SMALL
GASTEIGER

@<TRIPOS>ATOM
      1 C           4.8185   -3.1058   21.8410 C.ar    1  UNL1        0.0527
      2 C           4.8250   -4.2164   20.8328 C.ar    1  UNL1        0.0466
      3 C           4.7064   -3.9029   19.3708 C.ar    1  UNL1        0.1684
      4 F           4.7128   -5.0135   18.3626 F       1  UNL1       -0.2018
      5 C           4.5813   -2.4786   18.9169 C.ar    1  UNL1        0.1652
      6 F           4.4627   -2.1652   17.4548 F       1  UNL1       -0.2021
      7 C           4.5749   -1.3680   19.9251 C.ar    1  UNL1        0.0288
      8 C           4.6935   -1.6815   21.3871 C.ar    1  UNL1        0.0146
      9 C           4.4499    0.0562   19.4712 C.3     1  UNL1        0.1081
     10 C           5.9406   -0.1029   19.4223 C.3     1  UNL1        0.0291
     11 N           4.8425    1.4252   19.0003 N.2     1  UNL1       -0.2509
     12 C           3.7879    2.4586   18.7359 C.2     1  UNL1        0.1482
     13 N           4.1806    3.8275   18.2651 N.pl3   1  UNL1       -0.3380
     14 S           2.3406    2.1230   18.9425 S.3     1  UNL1       -0.0800
     15 C           1.9479    0.7540   19.4134 C.3     1  UNL1        0.0752
     16 C           1.5552   -0.6149   19.8843 C.3     1  UNL1        0.0160
     17 C           3.0025   -0.2794   19.6777 C.3     1  UNL1        0.0375
     18 H           5.1305    4.0478   18.1295 H       1  UNL1        0.1442
     19 H           3.4884    4.5058   18.0916 H       1  UNL1        0.1442
     20 C           0.5034    1.1569   19.3801 C.3     1  UNL1        0.1525
     21 O          -0.2867    1.2219   20.6535 O.3     1  UNL1       -0.3502
     22 C          -0.6620    2.5523   21.2361 C.3     1  UNL1        0.1741
     23 C           6.2824   -3.7053   23.9021 C.2     1  UNL1        0.2688
     24 O           7.5088   -3.6776   23.0390 O.2     1  UNL1       -0.2681
     25 N           4.9371   -3.4193   23.3030 N.am    1  UNL1       -0.2790
     26 H           4.1321   -3.4375   23.8694 H       1  UNL1        0.1552
     27 C           6.6382   -4.6460   28.2882 C.ar    1  UNL1        0.2457
     28 C           6.8582   -5.7248   27.2695 C.ar    1  UNL1        0.1566
     29 N           6.7396   -5.4112   25.8075 N.ar    1  UNL1       -0.2328
     30 C           6.4010   -4.0188   25.3641 C.ar    1  UNL1        0.1541
     31 C           6.1809   -2.9400   26.3828 C.ar    1  UNL1        0.1258
     32 N           6.2995   -3.2535   27.8448 N.ar    1  UNL1       -0.2070
     33 O           6.7568   -4.9596   29.7502 O.3     1  UNL1       -0.4444
     34 C           7.2314   -3.9064   30.7071 C.3     1  UNL1        0.2838
     35 C           5.3030   -2.6478   32.6299 C.1     1  UNL1       -0.0105
     36 C           6.2671   -3.2771   31.6685 C.1     1  UNL1       -0.0306
@<TRIPOS>BOND
     1    35    36    3
     2    36    34    1
     3    34    33    1
     4    33    27    1
     5    27    28   ar
     6    28    29   ar
     7    29    30   ar
     8    30    23    1
     9    23    24    2
    10    23    25   am
    11    25     1    1
    12     1     2   ar
    13     2     3   ar
    14     3     4    1
    15     3     5   ar
    16     5     6    1
    17     5     7   ar
    18     7     9    1
    19     9    10    1
    20     9    11    1
    21    11    12    2
    22    12    13    1
    23    12    14    1
    24    14    15    1
    25    15    20    1
    26    20    21    1
    27    21    22    1
    28    15    16    1
    29    17    16    1
    30     7     8   ar
    31    30    31   ar
    32    31    32   ar
    33    32    27   ar
    34     8     1   ar
    35    17     9    1
    36    17    15    1
    37    25    26    1
    38    13    18    1
    39    13    19    1
@<TRIPOS>MOLECULE
*****
 36 39 0 0 0
SMALL
GASTEIGER

@<TRIPOS>ATOM
      1 C           6.7485   -4.6256   26.2832 C.ar    1  UNL1        0.0527
      2 C           7.1614   -6.0527   26.0764 C.ar    1  UNL1        0.0466
      3 C           7.7206   -6.4876   24.7543 C.ar    1  UNL1        0.1684
      4 F           8.1335   -7.9147   24.5475 F       1  UNL1       -0.2018
      5 C           7.8669   -5.4954   23.6389 C.ar    1  UNL1        0.1652
      6 F           8.4261   -5.9304   22.3167 F       1  UNL1       -0.2021
      7 C           7.4539   -4.0682   23.8456 C.ar    1  UNL1        0.0288
      8 C           6.8948   -3.6333   25.1678 C.ar    1  UNL1        0.0146
      9 C           7.6002   -3.0760   22.7302 C.3     1  UNL1        0.1081
     10 C           8.9899   -3.0413   23.2937 C.3     1  UNL1        0.0291
     11 N           8.2291   -2.0718   21.8105 N.2     1  UNL1       -0.2509
     12 C           7.4175   -1.4468   20.7147 C.2     1  UNL1        0.1482
     13 N           8.0464   -0.4426   19.7950 N.pl3   1  UNL1       -0.3380
     14 S           5.9770   -1.8262   20.5386 S.3     1  UNL1       -0.0800
     15 C           5.3480   -2.8305   21.4584 C.3     1  UNL1        0.0752
     16 C           4.7191   -3.8347   22.3781 C.3     1  UNL1        0.0160
     17 C           6.1596   -3.4554   22.5542 C.3     1  UNL1        0.0375
     18 H           8.9918   -0.1936   19.9105 H       1  UNL1        0.1442
     19 H           7.5137   -0.0324   19.0758 H       1  UNL1        0.1442
     20 C           4.0478   -2.6887   20.7241 C.3     1  UNL1        0.1525
     21 O           3.9339   -3.1561   19.3033 O.3     1  UNL1       -0.3502
     22 C           3.8173   -4.6211   19.0028 C.3     1  UNL1        0.1741
     23 C           7.0903   -3.5757   28.6350 C.2     1  UNL1        0.2688
     24 O           8.5504   -3.3957   28.3424 O.2     1  UNL1       -0.2681
     25 N           6.1893   -4.1906   27.6053 N.am    1  UNL1       -0.2790
     26 H           5.2310   -4.3088   27.7974 H       1  UNL1        0.1552
     27 C           5.4127   -2.2708   32.6015 C.ar    1  UNL1        0.2457
     28 C           5.2207   -1.4120   31.3868 C.ar    1  UNL1        0.1566
     29 N           5.7798   -1.8469   30.0647 N.ar    1  UNL1       -0.2328
     30 C           6.5311   -3.1407   29.9572 C.ar    1  UNL1        0.1541
     31 C           6.7233   -3.9996   31.1719 C.ar    1  UNL1        0.1258
     32 N           6.1641   -3.5647   32.4940 N.ar    1  UNL1       -0.2070
     33 O           4.8536   -1.8359   33.9237 O.3     1  UNL1       -0.4444
     34 C           5.5706   -0.7993   34.7368 C.3     1  UNL1        0.2838
     35 C           4.2135    0.4565   37.0993 C.1     1  UNL1       -0.0105
     36 C           4.8921   -0.1713   35.9181 C.1     1  UNL1       -0.0306
@<TRIPOS>BOND
     1    35    36    3
     2    36    34    1
     3    34    33    1
     4    33    27    1
     5    27    28   ar
     6    28    29   ar
     7    29    30   ar
     8    30    23    1
     9    23    24    2
    10    23    25   am
    11    25     1    1
    12     1     2   ar
    13     2     3   ar
    14     3     4    1
    15     3     5   ar
    16     5     6    1
    17     5     7   ar
    18     7     9    1
    19     9    10    1
    20     9    11    1
    21    11    12    2
    22    12    13    1
    23    12    14    1
    24    14    15    1
    25    15    20    1
    26    20    21    1
    27    21    22    1
    28    15    16    1
    29    17    16    1
    30     7     8   ar
    31    30    31   ar
    32    31    32   ar
    33    32    27   ar
    34     8     1   ar
    35    17     9    1
    36    17    15    1
    37    25    26    1
    38    13    18    1
    39    13    19    1
@<TRIPOS>MOLECULE
*****
 36 39 0 0 0
SMALL
GASTEIGER

@<TRIPOS>ATOM
      1 C           4.3620   -2.7480   22.4331 C.ar    1  UNL1        0.0527
      2 C           4.7757   -3.8555   21.5100 C.ar    1  UNL1        0.0466
      3 C           4.5394   -3.7295   20.0342 C.ar    1  UNL1        0.1684
      4 F           4.9531   -4.8371   19.1111 F       1  UNL1       -0.2018
      5 C           3.8894   -2.4959   19.4813 C.ar    1  UNL1        0.1652
      6 F           3.6531   -2.3699   18.0054 F       1  UNL1       -0.2021
      7 C           3.4756   -1.3883   20.4044 C.ar    1  UNL1        0.0288
      8 C           3.7119   -1.5143   21.8802 C.ar    1  UNL1        0.0146
      9 C           2.8256   -0.1546   19.8515 C.3     1  UNL1        0.1081
     10 C           1.6073   -0.9492   20.2179 C.3     1  UNL1        0.0291
     11 N           1.7524    0.8030   19.4259 N.2     1  UNL1       -0.2509
     12 C           2.1234    2.1268   18.8259 C.2     1  UNL1        0.1482
     13 N           1.0503    3.0845   18.4003 N.pl3   1  UNL1       -0.3380
     14 S           3.5675    2.4930   18.6516 S.3     1  UNL1       -0.0800
     15 C           4.6407    1.5353   19.0772 C.3     1  UNL1        0.0752
     16 C           5.7139    0.5776   19.5028 C.3     1  UNL1        0.0160
     17 C           4.2698    0.2115   19.6772 C.3     1  UNL1        0.0375
     18 H           0.1024    2.8442   18.5148 H       1  UNL1        0.1442
     19 H           1.2937    3.9533   18.0066 H       1  UNL1        0.1442
     20 C           5.6887    2.5109   18.6302 C.3     1  UNL1        0.1525
     21 O           5.7274    2.9681   17.2021 O.3     1  UNL1       -0.3502
     22 C           6.5577    4.1567   16.8173 C.3     1  UNL1        0.1741
     23 C           5.9500   -2.5649   24.4812 C.2     1  UNL1        0.2688
     24 O           7.0653   -2.1297   23.5775 O.2     1  UNL1       -0.2681
     25 N           4.5982   -2.8740   23.9089 N.am    1  UNL1       -0.2790
     26 H           3.8662   -3.1596   24.5020 H       1  UNL1        0.1552
     27 C           6.6589   -2.9430   28.9089 C.ar    1  UNL1        0.2457
     28 C           7.4150   -3.8152   27.9510 C.ar    1  UNL1        0.1566
     29 N           7.1787   -3.6892   26.4752 N.ar    1  UNL1       -0.2328
     30 C           6.1863   -2.6909   25.9571 C.ar    1  UNL1        0.1541
     31 C           5.4301   -1.8186   26.9149 C.ar    1  UNL1        0.1258
     32 N           5.6664   -1.9446   28.3908 N.ar    1  UNL1       -0.2070
     33 O           6.8952   -3.0691   30.3847 O.3     1  UNL1       -0.4444
     34 C           6.4194   -1.9929   31.3151 C.3     1  UNL1        0.2838
     35 C           4.3730   -2.6234   33.4162 C.1     1  UNL1       -0.0105
     36 C           5.3962   -2.3082   32.3657 C.1     1  UNL1       -0.0306
@<TRIPOS>BOND
     1    35    36    3
     2    36    34    1
     3    34    33    1
     4    33    27    1
     5    27    28   ar
     6    28    29   ar
     7    29    30   ar
     8    30    23    1
     9    23    24    2
    10    23    25   am
    11    25     1    1
    12     1     2   ar
    13     2     3   ar
    14     3     4    1
    15     3     5   ar
    16     5     6    1
    17     5     7   ar
    18     7     9    1
    19     9    10    1
    20     9    11    1
    21    11    12    2
    22    12    13    1
    23    12    14    1
    24    14    15    1
    25    15    20    1
    26    20    21    1
    27    21    22    1
    28    15    16    1
    29    17    16    1
    30     7     8   ar
    31    30    31   ar
    32    31    32   ar
    33    32    27   ar
    34     8     1   ar
    35    17     9    1
    36    17    15    1
    37    25    26    1
    38    13    18    1
    39    13    19    1
@<TRIPOS>MOLECULE
*****
 36 39 0 0 0
SMALL
GASTEIGER

@<TRIPOS>ATOM
      1 C           6.5160   -2.1445   31.7776 C.ar    1  UNL1        0.0527
      2 C           6.4632   -3.6348   31.9395 C.ar    1  UNL1        0.0466
      3 C           6.7954   -4.5273   30.7806 C.ar    1  UNL1        0.1684
      4 F           6.7426   -6.0176   30.9424 F       1  UNL1       -0.2018
      5 C           7.1804   -3.9295   29.4598 C.ar    1  UNL1        0.1652
      6 F           7.5125   -4.8221   28.3010 F       1  UNL1       -0.2021
      7 C           7.2332   -2.4392   29.2980 C.ar    1  UNL1        0.0288
      8 C           6.9010   -1.5467   30.4568 C.ar    1  UNL1        0.0146
      9 C           7.6182   -1.8414   27.9772 C.3     1  UNL1        0.1081
     10 C           8.9762   -2.0168   28.5895 C.3     1  UNL1        0.0291
     11 N           8.4748   -1.3046   26.8690 N.2     1  UNL1       -0.2509
     12 C           7.8397   -0.7999   25.6073 C.2     1  UNL1        0.1482
     13 N           8.6963   -0.2631   24.4992 N.pl3   1  UNL1       -0.3380
     14 S           6.3479   -0.8321   25.4537 S.3     1  UNL1       -0.0800
     15 C           5.4912   -1.3690   26.5618 C.3     1  UNL1        0.0752
     16 C           4.6346   -1.9059   27.6699 C.3     1  UNL1        0.0160
     17 C           6.1263   -1.8736   27.8236 C.3     1  UNL1        0.0375
     18 H           9.6754   -0.2419   24.6000 H       1  UNL1        0.1442
     19 H           8.2794    0.0682   23.6711 H       1  UNL1        0.1442
     20 C           4.2633   -1.0963   25.7447 C.3     1  UNL1        0.1525
     21 O           4.2242   -1.4856   24.2967 O.3     1  UNL1       -0.3502
     22 C           3.2037   -0.8743   23.3829 C.3     1  UNL1        0.1741
     23 C           4.7508   -0.9798   33.2869 C.2     1  UNL1        0.2688
     24 O           3.6502   -1.6000   32.4783 O.2     1  UNL1       -0.2681
     25 N           6.1838   -1.2520   32.9365 N.am    1  UNL1       -0.2790
     26 H           6.9062   -0.8449   33.4672 H       1  UNL1        0.1552
     27 C           3.7542    1.6978   36.7636 C.ar    1  UNL1        0.2457
     28 C           3.2551    2.0351   35.3899 C.ar    1  UNL1        0.1566
     29 N           3.5873    1.1427   34.2310 N.ar    1  UNL1       -0.2328
     30 C           4.4186   -0.0873   34.4458 C.ar    1  UNL1        0.1541
     31 C           4.9178   -0.4247   35.8195 C.ar    1  UNL1        0.1258
     32 N           4.5856    0.4678   36.9784 N.ar    1  UNL1       -0.2070
     33 O           3.4220    2.5903   37.9224 O.3     1  UNL1       -0.4444
     34 C           2.0601    2.5312   38.5483 C.3     1  UNL1        0.2838
     35 C           1.0430   -0.0515   39.6864 C.1     1  UNL1       -0.0105
     36 C           1.5516    1.2399   39.1174 C.1     1  UNL1       -0.0306
@<TRIPOS>BOND
     1    35    36    3
     2    36    34    1
     3    34    33    1
     4    33    27    1
     5    27    28   ar
     6    28    29   ar
     7    29    30   ar
     8    30    23    1
     9    23    24    2
    10    23    25   am
    11    25     1    1
    12     1     2   ar
    13     2     3   ar
    14     3     4    1
    15     3     5   ar
    16     5     6    1
    17     5     7   ar
    18     7     9    1
    19     9    10    1
    20     9    11    1
    21    11    12    2
    22    12    13    1
    23    12    14    1
    24    14    15    1
    25    15    20    1
    26    20    21    1
    27    21    22    1
    28    15    16    1
    29    17    16    1
    30     7     8   ar
    31    30    31   ar
    32    31    32   ar
    33    32    27   ar
    34     8     1   ar
    35    17     9    1
    36    17    15    1
    37    25    26    1
    38    13    18    1
    39    13    19    1
@<TRIPOS>MOLECULE
*****
 36 39 0 0 0
SMALL
GASTEIGER

@<TRIPOS>ATOM
      1 C           1.8696    0.7207   23.6334 C.ar    1  UNL1        0.0527
      2 C           0.5479    1.2867   23.2060 C.ar    1  UNL1        0.0466
      3 C           0.3872    1.8590   21.8288 C.ar    1  UNL1        0.1684
      4 F          -0.9346    2.4250   21.4014 F       1  UNL1       -0.2018
      5 C           1.5482    1.8653   20.8790 C.ar    1  UNL1        0.1652
      6 F           1.3873    2.4376   19.5018 F       1  UNL1       -0.2021
      7 C           2.8699    1.2993   21.3064 C.ar    1  UNL1        0.0288
      8 C           3.0306    0.7271   22.6835 C.ar    1  UNL1        0.0146
      9 C           4.0309    1.3056   20.3566 C.3     1  UNL1        0.1081
     10 C           4.2060    2.6535   20.9911 C.3     1  UNL1        0.0291
     11 N           5.2527    1.7800   19.6271 N.2     1  UNL1       -0.2509
     12 C           5.8961    0.9044   18.5931 C.2     1  UNL1        0.1482
     13 N           7.1179    1.3788   17.8636 N.pl3   1  UNL1       -0.3380
     14 S           5.3177   -0.4456   18.2885 S.3     1  UNL1       -0.0800
     15 C           4.0959   -0.9201   19.0179 C.3     1  UNL1        0.0752
     16 C           2.8741   -1.3945   19.7473 C.3     1  UNL1        0.0160
     17 C           3.4524   -0.0445   20.0520 C.3     1  UNL1        0.0375
     18 H           7.4975    2.2649   18.0636 H       1  UNL1        0.1442
     19 H           7.5402    0.8041   17.1850 H       1  UNL1        0.1442
     20 C           4.1334   -2.2051   18.2450 C.3     1  UNL1        0.1525
     21 O           5.0554   -3.3093   18.6700 O.3     1  UNL1       -0.3502
     22 C           4.4959   -4.5617   19.2771 C.3     1  UNL1        0.1741
     23 C           2.1460    1.0630   26.1940 C.2     1  UNL1        0.2688
     24 O           2.1007    2.5497   26.0001 O.2     1  UNL1       -0.2681
     25 N           2.0304    0.1485   25.0105 N.am    1  UNL1       -0.2790
     26 H           2.0601   -0.8273   25.1377 H       1  UNL1        0.1552
     27 C           2.6283   -0.6539   30.3255 C.ar    1  UNL1        0.2457
     28 C           3.8265   -0.4841   29.4393 C.ar    1  UNL1        0.1566
     29 N           3.6657    0.0882   28.0621 N.ar    1  UNL1       -0.2328
     30 C           2.3067    0.4907   27.5711 C.ar    1  UNL1        0.1541
     31 C           1.1084    0.3210   28.4574 C.ar    1  UNL1        0.1258
     32 N           1.2692   -0.2513   29.8345 N.ar    1  UNL1       -0.2070
     33 O           2.7890   -1.2261   31.7027 O.3     1  UNL1       -0.4444
     34 C           4.0923   -1.0757   32.4299 C.3     1  UNL1        0.2838
     35 C           6.0895   -3.3143   32.4074 C.1     1  UNL1       -0.0105
     36 C           5.0909   -2.1950   32.4187 C.1     1  UNL1       -0.0306
@<TRIPOS>BOND
     1    35    36    3
     2    36    34    1
     3    34    33    1
     4    33    27    1
     5    27    28   ar
     6    28    29   ar
     7    29    30   ar
     8    30    23    1
     9    23    24    2
    10    23    25   am
    11    25     1    1
    12     1     2   ar
    13     2     3   ar
    14     3     4    1
    15     3     5   ar
    16     5     6    1
    17     5     7   ar
    18     7     9    1
    19     9    10    1
    20     9    11    1
    21    11    12    2
    22    12    13    1
    23    12    14    1
    24    14    15    1
    25    15    20    1
    26    20    21    1
    27    21    22    1
    28    15    16    1
    29    17    16    1
    30     7     8   ar
    31    30    31   ar
    32    31    32   ar
    33    32    27   ar
    34     8     1   ar
    35    17     9    1
    36    17    15    1
    37    25    26    1
    38    13    18    1
    39    13    19    1
@<TRIPOS>MOLECULE
*****
 36 39 0 0 0
SMALL
GASTEIGER

@<TRIPOS>ATOM
      1 C           3.4309   -0.2499   24.2457 C.ar    1  UNL1        0.0527
      2 C           4.7295    0.2346   24.8191 C.ar    1  UNL1        0.0466
      3 C           6.0286   -0.2808   24.2745 C.ar    1  UNL1        0.1684
      4 F           7.3272    0.2037   24.8478 F       1  UNL1       -0.2018
      5 C           6.0290   -1.2808   23.1564 C.ar    1  UNL1        0.1652
      6 F           7.3282   -1.7962   22.6117 F       1  UNL1       -0.2021
      7 C           4.7304   -1.7653   22.5830 C.ar    1  UNL1        0.0288
      8 C           3.4314   -1.2499   23.1276 C.ar    1  UNL1        0.0146
      9 C           4.7309   -2.7653   21.4649 C.3     1  UNL1        0.1081
     10 C           4.6207   -3.6896   22.6411 C.3     1  UNL1        0.0291
     11 N           4.6931   -4.0862   20.7553 N.2     1  UNL1       -0.2509
     12 C           4.7653   -4.1356   19.2578 C.2     1  UNL1        0.1482
     13 N           4.7275   -5.4565   18.5483 N.pl3   1  UNL1       -0.3380
     14 S           4.8754   -2.8639   18.4700 S.3     1  UNL1       -0.0800
     15 C           4.9132   -1.5429   19.1796 C.3     1  UNL1        0.0752
     16 C           4.9510   -0.2219   19.8892 C.3     1  UNL1        0.0160
     17 C           4.8409   -1.4935   20.6770 C.3     1  UNL1        0.0375
     18 H           4.6553   -6.2912   19.0653 H       1  UNL1        0.1442
     19 H           4.7749   -5.4889   17.5654 H       1  UNL1        0.1442
     20 C           5.0184   -0.8371   17.8602 C.3     1  UNL1        0.1525
     21 O           6.3410   -0.7542   17.1574 O.3     1  UNL1       -0.3502
     22 C           6.8662    0.5751   16.7021 C.3     1  UNL1        0.1741
     23 C           1.6480    1.6330   24.4079 C.2     1  UNL1        0.2688
     24 O           2.4633    2.4848   23.4808 O.2     1  UNL1       -0.2681
     25 N           2.1318    0.2655   24.7904 N.am    1  UNL1       -0.2790
     26 H           1.5967   -0.2936   25.3989 H       1  UNL1        0.1552
     27 C          -2.2493    3.1793   26.0419 C.ar    1  UNL1        0.2457
     28 C          -1.8793    3.4402   24.6119 C.ar    1  UNL1        0.1566
     29 N          -0.5803    2.9248   24.0672 N.ar    1  UNL1       -0.2328
     30 C           0.3489    2.1484   24.9526 C.ar    1  UNL1        0.1541
     31 C          -0.0211    1.8874   26.3827 C.ar    1  UNL1        0.1258
     32 N          -1.3201    2.4029   26.9273 N.ar    1  UNL1       -0.2070
     33 O          -3.5484    3.6947   26.5866 O.3     1  UNL1       -0.4444
     34 C          -4.7302    3.8592   25.6776 C.3     1  UNL1        0.2838
     35 C          -5.6226    6.6042   24.8595 C.1     1  UNL1       -0.0105
     36 C          -5.1764    5.2317   25.2685 C.1     1  UNL1       -0.0306
@<TRIPOS>BOND
     1    35    36    3
     2    36    34    1
     3    34    33    1
     4    33    27    1
     5    27    28   ar
     6    28    29   ar
     7    29    30   ar
     8    30    23    1
     9    23    24    2
    10    23    25   am
    11    25     1    1
    12     1     2   ar
    13     2     3   ar
    14     3     4    1
    15     3     5   ar
    16     5     6    1
    17     5     7   ar
    18     7     9    1
    19     9    10    1
    20     9    11    1
    21    11    12    2
    22    12    13    1
    23    12    14    1
    24    14    15    1
    25    15    20    1
    26    20    21    1
    27    21    22    1
    28    15    16    1
    29    17    16    1
    30     7     8   ar
    31    30    31   ar
    32    31    32   ar
    33    32    27   ar
    34     8     1   ar
    35    17     9    1
    36    17    15    1
    37    25    26    1
    38    13    18    1
    39    13    19    1
@<TRIPOS>MOLECULE
*****
 36 39 0 0 0
SMALL
GASTEIGER

@<TRIPOS>ATOM
      1 C           5.6643   -3.5176   21.4018 C.ar    1  UNL1        0.0527
      2 C           4.4214   -4.1996   20.9116 C.ar    1  UNL1        0.0466
      3 C           3.8077   -3.7916   19.6052 C.ar    1  UNL1        0.1684
      4 F           2.5649   -4.4735   19.1150 F       1  UNL1       -0.2018
      5 C           4.4367   -2.7016   18.7889 C.ar    1  UNL1        0.1652
      6 F           3.8229   -2.2936   17.4825 F       1  UNL1       -0.2021
      7 C           5.6796   -2.0196   19.2791 C.ar    1  UNL1        0.0288
      8 C           6.2933   -2.4276   20.5855 C.ar    1  UNL1        0.0146
      9 C           6.3086   -0.9296   18.4629 C.3     1  UNL1        0.1081
     10 C           7.1240   -2.1021   18.0044 C.3     1  UNL1        0.0291
     11 N           7.2208   -0.2469   17.4874 N.2     1  UNL1       -0.2509
     12 C           7.0992    1.2299   17.2539 C.2     1  UNL1        0.1482
     13 N           8.0114    1.9126   16.2784 N.pl3   1  UNL1       -0.3380
     14 S           6.0653    2.0238   17.9959 S.3     1  UNL1       -0.0800
     15 C           5.1530    1.3411   18.9714 C.3     1  UNL1        0.0752
     16 C           4.2407    0.6583   19.9469 C.3     1  UNL1        0.0160
     17 C           5.2746   -0.1357   19.2049 C.3     1  UNL1        0.0375
     18 H           8.6900    1.3915   15.7914 H       1  UNL1        0.1442
     19 H           7.9315    2.8818   16.1252 H       1  UNL1        0.1442
     20 C           4.4858    2.6520   19.2651 C.3     1  UNL1        0.1525
     21 O           3.5139    3.2356   18.2827 O.3     1  UNL1       -0.3502
     22 C           2.0392    3.1420   18.5408 C.3     1  UNL1        0.1741
     23 C           5.7768   -3.3304   23.9907 C.2     1  UNL1        0.2688
     24 O           4.6618   -2.3273   23.9666 O.2     1  UNL1       -0.2681
     25 N           6.2780   -3.9256   22.7082 N.am    1  UNL1       -0.2790
     26 H           7.0098   -4.5840   22.7240 H       1  UNL1        0.1552
     27 C           7.6181   -4.5545   27.9101 C.ar    1  UNL1        0.2457
     28 C           7.5996   -5.5145   26.7577 C.ar    1  UNL1        0.1566
     29 N           6.9859   -5.1065   25.4513 N.ar    1  UNL1       -0.2328
     30 C           6.3905   -3.7384   25.2972 C.ar    1  UNL1        0.1541
     31 C           6.4090   -2.7783   26.4495 C.ar    1  UNL1        0.1258
     32 N           7.0227   -3.1863   27.7559 N.ar    1  UNL1       -0.2070
     33 O           8.2319   -4.9625   29.2165 O.3     1  UNL1       -0.4444
     34 C           8.4307   -3.9461   30.3016 C.3     1  UNL1        0.2838
     35 C           6.2655   -3.4659   32.3219 C.1     1  UNL1       -0.0105
     36 C           7.3481   -3.7059   31.3117 C.1     1  UNL1       -0.0306
@<TRIPOS>BOND
     1    35    36    3
     2    36    34    1
     3    34    33    1
     4    33    27    1
     5    27    28   ar
     6    28    29   ar
     7    29    30   ar
     8    30    23    1
     9    23    24    2
    10    23    25   am
    11    25     1    1
    12     1     2   ar
    13     2     3   ar
    14     3     4    1
    15     3     5   ar
    16     5     6    1
    17     5     7   ar
    18     7     9    1
    19     9    10    1
    20     9    11    1
    21    11    12    2
    22    12    13    1
    23    12    14    1
    24    14    15    1
    25    15    20    1
    26    20    21    1
    27    21    22    1
    28    15    16    1
    29    17    16    1
    30     7     8   ar
    31    30    31   ar
    32    31    32   ar
    33    32    27   ar
    34     8     1   ar
    35    17     9    1
    36    17    15    1
    37    25    26    1
    38    13    18    1
    39    13    19    1
@<TRIPOS>MOLECULE
*****
 36 39 0 0 0
SMALL
GASTEIGER

@<TRIPOS>ATOM
      1 C           1.0072    0.9145   27.0001 C.ar    1  UNL1        0.0527
      2 C          -0.3661    0.5136   27.4513 C.ar    1  UNL1        0.0466
      3 C          -0.8109    0.8087   28.8530 C.ar    1  UNL1        0.1684
      4 F          -2.1841    0.4078   29.3042 F       1  UNL1       -0.2018
      5 C           0.1174    1.5047   29.8037 C.ar    1  UNL1        0.1652
      6 F          -0.3275    1.7998   31.2055 F       1  UNL1       -0.2021
      7 C           1.4907    1.9056   29.3526 C.ar    1  UNL1        0.0288
      8 C           1.9355    1.6105   27.9508 C.ar    1  UNL1        0.0146
      9 C           2.4190    2.6017   30.3033 C.3     1  UNL1        0.1081
     10 C           1.8339    3.7875   29.5953 C.3     1  UNL1        0.0291
     11 N           3.1442    3.7095   31.0080 N.2     1  UNL1       -0.2509
     12 C           4.1320    3.3897   32.0906 C.2     1  UNL1        0.1482
     13 N           4.8571    4.4976   32.7954 N.pl3   1  UNL1       -0.3380
     14 S           4.3946    1.9621   32.4684 S.3     1  UNL1       -0.0800
     15 C           3.6695    0.8541   31.7636 C.3     1  UNL1        0.0752
     16 C           2.9444   -0.2537   31.0588 C.3     1  UNL1        0.0160
     17 C           2.6817    1.1739   30.6810 C.3     1  UNL1        0.0375
     18 H           4.6847    5.4346   32.5475 H       1  UNL1        0.1442
     19 H           5.5054    4.2877   33.5059 H       1  UNL1        0.1442
     20 C           4.3914   -0.1548   32.6067 C.3     1  UNL1        0.1525
     21 O           3.7269   -1.4533   32.9562 O.3     1  UNL1       -0.3502
     22 C           4.5561   -2.6319   33.3727 C.3     1  UNL1        0.1741
     23 C           0.7842    1.3003   24.4405 C.2     1  UNL1        0.2688
     24 O          -0.3284    2.2763   24.6846 O.2     1  UNL1       -0.2681
     25 N           1.4520    0.6194   25.5984 N.am    1  UNL1       -0.2790
     26 H           2.1823   -0.0212   25.4383 H       1  UNL1        0.1552
     27 C           2.1188    0.4151   20.2352 C.ar    1  UNL1        0.2457
     28 C           0.6783    0.7258   20.5152 C.ar    1  UNL1        0.1566
     29 N           0.2335    1.0209   21.9170 N.ar    1  UNL1       -0.2328
     30 C           1.2291    1.0053   23.0388 C.ar    1  UNL1        0.1541
     31 C           2.6696    0.6945   22.7588 C.ar    1  UNL1        0.1258
     32 N           3.1145    0.3994   21.3570 N.ar    1  UNL1       -0.2070
     33 O           2.5636    0.1200   18.8334 O.3     1  UNL1       -0.4444
     34 C           3.7402   -0.7790   18.5935 C.3     1  UNL1        0.2838
     35 C           3.5548   -3.7002   19.2511 C.1     1  UNL1       -0.0105
     36 C           3.6474   -2.2396   18.9223 C.1     1  UNL1       -0.0306
@<TRIPOS>BOND
     1    35    36    3
     2    36    34    1
     3    34    33    1
     4    33    27    1
     5    27    28   ar
     6    28    29   ar
     7    29    30   ar
     8    30    23    1
     9    23    24    2
    10    23    25   am
    11    25     1    1
    12     1     2   ar
    13     2     3   ar
    14     3     4    1
    15     3     5   ar
    16     5     6    1
    17     5     7   ar
    18     7     9    1
    19     9    10    1
    20     9    11    1
    21    11    12    2
    22    12    13    1
    23    12    14    1
    24    14    15    1
    25    15    20    1
    26    20    21    1
    27    21    22    1
    28    15    16    1
    29    17    16    1
    30     7     8   ar
    31    30    31   ar
    32    31    32   ar
    33    32    27   ar
    34     8     1   ar
    35    17     9    1
    36    17    15    1
    37    25    26    1
    38    13    18    1
    39    13    19    1
