@<TRIPOS>MOLECULE
*****
 31 35 0 0 0
SMALL
GASTEIGER

@<TRIPOS>ATOM
      1 C          -7.7049  -19.3297   19.9933 C.ar    1  UNL1        0.0207
      2 C          -8.9243  -19.7816   19.2458 C.ar    1  UNL1        0.0994
      3 N         -10.2300  -19.0694   19.4402 N.ar    1  UNL1       -0.2126
      4 C         -10.3165  -17.9053   20.3822 C.ar    1  UNL1        0.2172
      5 N          -9.0970  -17.4534   21.1298 N.ar    1  UNL1       -0.2126
      6 C          -7.7913  -18.1655   20.9353 C.ar    1  UNL1        0.0994
      7 N         -11.6223  -17.1932   20.5766 N.pl3   1  UNL1       -0.2978
      8 H         -12.1820  -16.9701   19.7980 H       1  UNL1        0.1500
      9 C         -12.0752  -16.8210   21.9573 C.3     1  UNL1        0.1360
     10 C         -11.3681  -17.3820   23.1553 C.ar    1  UNL1        0.0802
     11 C         -11.7990  -18.6976   23.7326 C.ar    1  UNL1        0.0165
     12 C         -11.0919  -19.2586   24.9307 C.ar    1  UNL1        0.0041
     13 C          -9.9538  -18.5040   25.5514 C.ar    1  UNL1        0.0343
     14 C          -9.5229  -17.1883   24.9740 C.ar    1  UNL1        0.1313
     15 N         -10.2300  -16.6273   23.7760 N.ar    1  UNL1       -0.2333
     16 N          -8.3848  -16.4336   25.5947 N.pl3   1  UNL1       -0.2933
     17 C          -8.1609  -16.2268   27.0634 C.3     1  UNL1        0.0922
     18 C          -6.9085  -15.4187   27.2321 C.3     1  UNL1        0.0232
     19 C          -6.3584  -15.1260   25.8677 C.3     1  UNL1        0.0232
     20 C          -7.2708  -15.7532   24.8557 C.3     1  UNL1        0.0922
     21 C          -6.3991  -20.0418   19.7989 C.3     1  UNL1        0.0596
     22 C          -1.3439  -17.7467   17.8067 C.3     1  UNL1        0.0307
     23 C          -1.9335  -18.2295   19.0987 C.2     1  UNL1        0.0074
     24 C          -1.1207  -18.1812   20.3584 C.2     1  UNL1        0.2278
     25 N          -1.7104  -18.6640   21.6504 N.2     1  UNL1       -0.0314
     26 C          -3.1128  -19.1950   21.6827 C.2     1  UNL1        0.3716
     27 N          -3.9555  -19.7368   22.7991 N.2     1  UNL1       -0.0311
     28 C          -5.2891  -20.1199   22.2293 C.2     1  UNL1        0.2319
     29 C          -5.2707  -19.8150   20.7607 C.2     1  UNL1        0.0328
     30 C          -3.9256  -19.2433   20.4229 C.2     1  UNL1        0.0704
     31 C          -3.3360  -18.7606   19.1309 C.3     1  UNL1        0.0598
@<TRIPOS>BOND
     1    22    23    1
     2    23    24    2
     3    24    25    1
     4    25    26    2
     5    26    27    1
     6    27    28    2
     7    28    29    1
     8    29    21    1
     9    21     1    1
    10     1     2   ar
    11     2     3   ar
    12     3     4   ar
    13     4     7    1
    14     7     9    1
    15     9    10    1
    16    10    11   ar
    17    11    12   ar
    18    12    13   ar
    19    13    14   ar
    20    14    16    1
    21    16    17    1
    22    17    18    1
    23    18    19    1
    24    19    20    1
    25    14    15   ar
    26     4     5   ar
    27     5     6   ar
    28    29    30    2
    29    30    31    1
    30    31    23    1
    31    30    26    1
    32     6     1   ar
    33    15    10   ar
    34    20    16    1
    35     7     8    1
@<TRIPOS>MOLECULE
*****
 31 35 0 0 0
SMALL
GASTEIGER

@<TRIPOS>ATOM
      1 C          -7.1948  -19.7023   20.2967 C.ar    1  UNL1        0.0207
      2 C          -7.3035  -18.5308   21.2272 C.ar    1  UNL1        0.0994
      3 N          -8.5341  -17.6733   21.2129 N.ar    1  UNL1       -0.2126
      4 C          -9.6561  -17.9872   20.2681 C.ar    1  UNL1        0.2172
      5 N          -9.5474  -19.1587   19.3376 N.ar    1  UNL1       -0.2126
      6 C          -8.3168  -20.0162   19.3518 C.ar    1  UNL1        0.0994
      7 N         -10.8867  -17.1296   20.2539 N.pl3   1  UNL1       -0.2978
      8 H         -11.2474  -16.8003   19.3990 H       1  UNL1        0.1500
      9 C         -11.5679  -16.7738   21.5420 C.3     1  UNL1        0.1360
     10 C         -11.0515  -17.3214   22.8396 C.ar    1  UNL1        0.0802
     11 C         -11.6181  -18.5944   23.3949 C.ar    1  UNL1        0.0165
     12 C         -11.1018  -19.1419   24.6924 C.ar    1  UNL1        0.0041
     13 C         -10.0188  -18.4164   25.4347 C.ar    1  UNL1        0.0343
     14 C          -9.4522  -17.1434   24.8793 C.ar    1  UNL1        0.1313
     15 N          -9.9686  -16.5959   23.5818 N.ar    1  UNL1       -0.2333
     16 N          -8.3693  -16.4179   25.6215 N.pl3   1  UNL1       -0.2933
     17 C          -7.2276  -15.6666   25.0033 C.3     1  UNL1        0.0922
     18 C          -6.3906  -15.1007   26.1120 C.3     1  UNL1        0.0232
     19 C          -7.0149  -15.5023   27.4155 C.3     1  UNL1        0.0232
     20 C          -8.2378  -16.3164   27.1124 C.3     1  UNL1        0.0922
     21 C          -5.9642  -20.5598   20.3109 C.3     1  UNL1        0.0596
     22 C          -3.9355  -17.5014   24.9285 C.3     1  UNL1        0.0307
     23 C          -3.4911  -17.8948   23.5509 C.2     1  UNL1        0.0074
     24 C          -2.1493  -17.4578   23.0423 C.2     1  UNL1        0.2278
     25 N          -1.7049  -17.8512   21.6648 N.2     1  UNL1       -0.0314
     26 C          -2.6022  -18.6817   20.7958 C.2     1  UNL1        0.3716
     27 N          -2.4363  -19.2187   19.4051 N.2     1  UNL1       -0.0311
     28 C          -3.6755  -19.9876   19.0542 C.2     1  UNL1        0.2319
     29 C          -4.6073  -19.9258   20.2280 C.2     1  UNL1        0.0328
     30 C          -3.9439  -19.1187   21.3044 C.2     1  UNL1        0.0704
     31 C          -4.3884  -18.7252   22.6820 C.3     1  UNL1        0.0598
@<TRIPOS>BOND
     1    22    23    1
     2    23    24    2
     3    24    25    1
     4    25    26    2
     5    26    27    1
     6    27    28    2
     7    28    29    1
     8    29    21    1
     9    21     1    1
    10     1     2   ar
    11     2     3   ar
    12     3     4   ar
    13     4     7    1
    14     7     9    1
    15     9    10    1
    16    10    11   ar
    17    11    12   ar
    18    12    13   ar
    19    13    14   ar
    20    14    16    1
    21    16    17    1
    22    17    18    1
    23    18    19    1
    24    19    20    1
    25    14    15   ar
    26     4     5   ar
    27     5     6   ar
    28    29    30    2
    29    30    31    1
    30    31    23    1
    31    30    26    1
    32     6     1   ar
    33    15    10   ar
    34    20    16    1
    35     7     8    1
@<TRIPOS>MOLECULE
*****
 31 35 0 0 0
SMALL
GASTEIGER

@<TRIPOS>ATOM
      1 C          -8.0472  -20.0084   19.5701 C.ar    1  UNL1        0.0207
      2 C          -7.3854  -21.3544   19.5831 C.ar    1  UNL1        0.0994
      3 N          -5.9283  -21.4705   19.9195 N.ar    1  UNL1       -0.2126
      4 C          -5.1328  -20.2406   20.2430 C.ar    1  UNL1        0.2172
      5 N          -5.7947  -18.8945   20.2300 N.ar    1  UNL1       -0.2126
      6 C          -7.2518  -18.7784   19.8935 C.ar    1  UNL1        0.0994
      7 N          -3.6757  -20.3568   20.5795 N.pl3   1  UNL1       -0.2978
      8 H          -3.0530  -20.7659   19.9360 H       1  UNL1        0.1500
      9 C          -3.1673  -19.8496   21.8964 C.3     1  UNL1        0.1360
     10 C          -3.3010  -18.3962   22.2424 C.ar    1  UNL1        0.0802
     11 C          -2.3812  -17.3889   21.6184 C.ar    1  UNL1        0.0165
     12 C          -2.5149  -15.9355   21.9644 C.ar    1  UNL1        0.0041
     13 C          -3.5683  -15.4894   22.9346 C.ar    1  UNL1        0.0343
     14 C          -4.4881  -16.4967   23.5587 C.ar    1  UNL1        0.1313
     15 N          -4.3544  -17.9500   23.2126 N.ar    1  UNL1       -0.2333
     16 N          -5.5415  -16.0505   24.5288 N.pl3   1  UNL1       -0.2933
     17 C          -5.3190  -15.6894   25.9677 C.3     1  UNL1        0.0922
     18 C          -6.6424  -15.3028   26.5586 C.3     1  UNL1        0.0232
     19 C          -7.6828  -15.4249   25.4850 C.3     1  UNL1        0.0232
     20 C          -7.0025  -15.8870   24.2306 C.3     1  UNL1        0.0922
     21 C          -9.5044  -19.8922   19.2336 C.3     1  UNL1        0.0596
     22 C          -9.9583  -20.7637   25.0496 C.3     1  UNL1        0.0307
     23 C         -10.4968  -19.8361   24.0010 C.2     1  UNL1        0.0074
     24 C         -11.4517  -18.7446   24.3841 C.2     1  UNL1        0.2278
     25 N         -11.9902  -17.8170   23.3355 N.2     1  UNL1       -0.0314
     26 C         -11.5738  -17.9809   21.9038 C.2     1  UNL1        0.3716
     27 N         -11.9359  -17.2243   20.6603 N.2     1  UNL1       -0.0311
     28 C         -11.2047  -17.8481   19.5086 C.2     1  UNL1        0.2319
     29 C         -10.3908  -18.9903   20.0404 C.2     1  UNL1        0.0328
     30 C         -10.6189  -19.0724   21.5208 C.2     1  UNL1        0.0704
     31 C         -10.0804  -19.9999   22.5694 C.3     1  UNL1        0.0598
@<TRIPOS>BOND
     1    22    23    1
     2    23    24    2
     3    24    25    1
     4    25    26    2
     5    26    27    1
     6    27    28    2
     7    28    29    1
     8    29    21    1
     9    21     1    1
    10     1     2   ar
    11     2     3   ar
    12     3     4   ar
    13     4     7    1
    14     7     9    1
    15     9    10    1
    16    10    11   ar
    17    11    12   ar
    18    12    13   ar
    19    13    14   ar
    20    14    16    1
    21    16    17    1
    22    17    18    1
    23    18    19    1
    24    19    20    1
    25    14    15   ar
    26     4     5   ar
    27     5     6   ar
    28    29    30    2
    29    30    31    1
    30    31    23    1
    31    30    26    1
    32     6     1   ar
    33    15    10   ar
    34    20    16    1
    35     7     8    1
@<TRIPOS>MOLECULE
*****
 31 35 0 0 0
SMALL
GASTEIGER

@<TRIPOS>ATOM
      1 C          -3.6622  -16.7406   23.7569 C.ar    1  UNL1        0.0207
      2 C          -4.1262  -17.0646   25.1460 C.ar    1  UNL1        0.0994
      3 N          -5.3251  -16.3679   25.7180 N.ar    1  UNL1       -0.2126
      4 C          -6.0601  -15.3471   24.9008 C.ar    1  UNL1        0.2172
      5 N          -5.5960  -15.0231   23.5116 N.ar    1  UNL1       -0.2126
      6 C          -4.3971  -15.7198   22.9396 C.ar    1  UNL1        0.0994
      7 N          -7.2590  -14.6504   25.4728 N.pl3   1  UNL1       -0.2978
      8 H          -7.3411  -13.6720   25.3999 H       1  UNL1        0.1500
      9 C          -8.3328  -15.4443   26.1558 C.3     1  UNL1        0.1360
     10 C          -9.0353  -16.5455   25.4183 C.ar    1  UNL1        0.0802
     11 C          -9.2873  -17.8600   26.0955 C.ar    1  UNL1        0.0165
     12 C          -9.9898  -18.9612   25.3581 C.ar    1  UNL1        0.0041
     13 C         -10.4403  -18.7479   23.9433 C.ar    1  UNL1        0.0343
     14 C         -10.1883  -17.4334   23.2660 C.ar    1  UNL1        0.1313
     15 N          -9.4858  -16.3323   24.0035 N.ar    1  UNL1       -0.2333
     16 N         -10.6388  -17.2202   21.8513 N.pl3   1  UNL1       -0.2933
     17 C         -11.0279  -15.9076   21.2381 C.3     1  UNL1        0.0922
     18 C         -11.4089  -16.1583   19.8091 C.3     1  UNL1        0.0232
     19 C         -11.2552  -17.6257   19.5390 C.3     1  UNL1        0.0232
     20 C         -10.7793  -18.2821   20.8011 C.3     1  UNL1        0.0922
     21 C          -2.4632  -17.4373   23.1849 C.3     1  UNL1        0.0596
     22 C          -7.5621  -20.2768   22.3301 C.3     1  UNL1        0.0307
     23 C          -6.2228  -20.1365   21.6693 C.2     1  UNL1        0.0074
     24 C          -5.9323  -20.8775   20.3980 C.2     1  UNL1        0.2278
     25 N          -4.5930  -20.7371   19.7373 N.2     1  UNL1       -0.0314
     26 C          -3.5442  -19.8557   20.3479 C.2     1  UNL1        0.3716
     27 N          -2.1431  -19.5235   19.9276 N.2     1  UNL1       -0.0311
     28 C          -1.5676  -18.5772   20.9391 C.2     1  UNL1        0.2319
     29 C          -2.6130  -18.3244   21.9847 C.2     1  UNL1        0.0328
     30 C          -3.8346  -19.1146   21.6193 C.2     1  UNL1        0.0704
     31 C          -5.1739  -19.2550   22.2800 C.3     1  UNL1        0.0598
@<TRIPOS>BOND
     1    22    23    1
     2    23    24    2
     3    24    25    1
     4    25    26    2
     5    26    27    1
     6    27    28    2
     7    28    29    1
     8    29    21    1
     9    21     1    1
    10     1     2   ar
    11     2     3   ar
    12     3     4   ar
    13     4     7    1
    14     7     9    1
    15     9    10    1
    16    10    11   ar
    17    11    12   ar
    18    12    13   ar
    19    13    14   ar
    20    14    16    1
    21    16    17    1
    22    17    18    1
    23    18    19    1
    24    19    20    1
    25    14    15   ar
    26     4     5   ar
    27     5     6   ar
    28    29    30    2
    29    30    31    1
    30    31    23    1
    31    30    26    1
    32     6     1   ar
    33    15    10   ar
    34    20    16    1
    35     7     8    1
@<TRIPOS>MOLECULE
*****
 31 35 0 0 0
SMALL
GASTEIGER

@<TRIPOS>ATOM
      1 C          -7.4436  -15.7622   24.4363 C.ar    1  UNL1        0.0207
      2 C          -6.3015  -16.3186   25.2337 C.ar    1  UNL1        0.0994
      3 N          -4.9142  -16.3106   24.6634 N.ar    1  UNL1       -0.2126
      4 C          -4.6690  -15.7461   23.2954 C.ar    1  UNL1        0.2172
      5 N          -5.8111  -15.1896   22.4979 N.ar    1  UNL1       -0.2126
      6 C          -7.1984  -15.1976   23.0683 C.ar    1  UNL1        0.0994
      7 N          -3.2817  -15.7381   22.7251 N.pl3   1  UNL1       -0.2978
      8 H          -2.8619  -14.8868   22.4635 H       1  UNL1        0.1500
      9 C          -2.5339  -17.0270   22.5533 C.3     1  UNL1        0.1360
     10 C          -3.1435  -18.1484   21.7653 C.ar    1  UNL1        0.0802
     11 C          -2.2662  -19.2064   21.1645 C.ar    1  UNL1        0.0165
     12 C          -2.8758  -20.3277   20.3765 C.ar    1  UNL1        0.0041
     13 C          -4.3627  -20.3911   20.1893 C.ar    1  UNL1        0.0343
     14 C          -5.2400  -19.3330   20.7901 C.ar    1  UNL1        0.1313
     15 N          -4.6304  -18.2118   21.5780 N.ar    1  UNL1       -0.2333
     16 N          -6.7269  -19.3964   20.6028 N.pl3   1  UNL1       -0.2933
     17 C          -7.7585  -19.2514   21.6821 C.3     1  UNL1        0.0922
     18 C          -9.1125  -19.3813   21.0498 C.3     1  UNL1        0.0232
     19 C          -8.9178  -19.6067   19.5796 C.3     1  UNL1        0.0232
     20 C          -7.4435  -19.6160   19.3034 C.3     1  UNL1        0.0922
     21 C          -8.8309  -15.7702   25.0066 C.3     1  UNL1        0.0596
     22 C         -11.8352  -15.8305   19.9309 C.3     1  UNL1        0.0307
     23 C         -11.6749  -16.6770   21.1588 C.2     1  UNL1        0.0074
     24 C         -12.4415  -17.9595   21.2909 C.2     1  UNL1        0.2278
     25 N         -12.2813  -18.8060   22.5188 N.2     1  UNL1       -0.0314
     26 C         -11.3545  -18.3701   23.6146 C.2     1  UNL1        0.3716
     27 N         -10.9944  -18.9918   24.9313 N.2     1  UNL1       -0.0311
     28 C         -10.0053  -18.0936   25.6131 C.2     1  UNL1        0.2319
     29 C          -9.7539  -16.9167   24.7177 C.2     1  UNL1        0.0328
     30 C         -10.5878  -17.0876   23.4825 C.2     1  UNL1        0.0704
     31 C         -10.7481  -16.2411   22.2546 C.3     1  UNL1        0.0598
@<TRIPOS>BOND
     1    22    23    1
     2    23    24    2
     3    24    25    1
     4    25    26    2
     5    26    27    1
     6    27    28    2
     7    28    29    1
     8    29    21    1
     9    21     1    1
    10     1     2   ar
    11     2     3   ar
    12     3     4   ar
    13     4     7    1
    14     7     9    1
    15     9    10    1
    16    10    11   ar
    17    11    12   ar
    18    12    13   ar
    19    13    14   ar
    20    14    16    1
    21    16    17    1
    22    17    18    1
    23    18    19    1
    24    19    20    1
    25    14    15   ar
    26     4     5   ar
    27     5     6   ar
    28    29    30    2
    29    30    31    1
    30    31    23    1
    31    30    26    1
    32     6     1   ar
    33    15    10   ar
    34    20    16    1
    35     7     8    1
@<TRIPOS>MOLECULE
*****
 31 35 0 0 0
SMALL
GASTEIGER

@<TRIPOS>ATOM
      1 C           4.8374   -3.4188   22.2775 C.ar    1  UNL1        0.0207
      2 C           6.1258   -3.9549   22.8276 C.ar    1  UNL1        0.0994
      3 N           6.6386   -3.4648   24.1493 N.ar    1  UNL1       -0.2126
      4 C           5.8630   -2.4387   24.9210 C.ar    1  UNL1        0.2172
      5 N           4.5745   -1.9026   24.3708 N.ar    1  UNL1       -0.2126
      6 C           4.0617   -2.3926   23.0491 C.ar    1  UNL1        0.0994
      7 N           6.3758   -1.9487   26.2427 N.pl3   1  UNL1       -0.2978
      8 H           7.0462   -1.2284   26.2742 H       1  UNL1        0.1500
      9 C           5.8671   -2.5560   27.5164 C.3     1  UNL1        0.1360
     10 C           4.9830   -1.7571   28.4275 C.ar    1  UNL1        0.0802
     11 C           5.4212   -1.4659   29.8321 C.ar    1  UNL1        0.0165
     12 C           4.5372   -0.6670   30.7433 C.ar    1  UNL1        0.0041
     13 C           3.2149   -0.1592   30.2497 C.ar    1  UNL1        0.0343
     14 C           2.7766   -0.4504   28.8449 C.ar    1  UNL1        0.1313
     15 N           3.6607   -1.2493   27.9339 N.ar    1  UNL1       -0.2333
     16 N           1.4543    0.0574   28.3514 N.pl3   1  UNL1       -0.2933
     17 C           0.1146   -0.2365   28.9586 C.3     1  UNL1        0.0922
     18 C          -0.9282    0.4727   28.1465 C.3     1  UNL1        0.0232
     19 C          -0.2330    1.2050   27.0373 C.3     1  UNL1        0.0232
     20 C           1.2395    0.9484   27.1638 C.3     1  UNL1        0.0922
     21 C           4.3246   -3.9088   20.9558 C.3     1  UNL1        0.0596
     22 C           0.3305    0.3890   20.3489 C.3     1  UNL1        0.0307
     23 C           1.5151   -0.1642   19.6136 C.2     1  UNL1        0.0074
     24 C           1.9447    0.4494   18.3140 C.2     1  UNL1        0.2278
     25 N           3.1293   -0.1039   17.5787 N.2     1  UNL1       -0.0314
     26 C           3.8843   -1.2707   18.1430 C.2     1  UNL1        0.3716
     27 N           5.0821   -2.0255   17.6475 N.2     1  UNL1       -0.0311
     28 C           5.3928   -3.1056   18.6409 C.2     1  UNL1        0.2319
     29 C           4.3871   -3.0184   19.7503 C.2     1  UNL1        0.0328
     30 C           3.4548   -1.8842   19.4425 C.2     1  UNL1        0.0704
     31 C           2.2702   -1.3310   20.1778 C.3     1  UNL1        0.0598
@<TRIPOS>BOND
     1    22    23    1
     2    23    24    2
     3    24    25    1
     4    25    26    2
     5    26    27    1
     6    27    28    2
     7    28    29    1
     8    29    21    1
     9    21     1    1
    10     1     2   ar
    11     2     3   ar
    12     3     4   ar
    13     4     7    1
    14     7     9    1
    15     9    10    1
    16    10    11   ar
    17    11    12   ar
    18    12    13   ar
    19    13    14   ar
    20    14    16    1
    21    16    17    1
    22    17    18    1
    23    18    19    1
    24    19    20    1
    25    14    15   ar
    26     4     5   ar
    27     5     6   ar
    28    29    30    2
    29    30    31    1
    30    31    23    1
    31    30    26    1
    32     6     1   ar
    33    15    10   ar
    34    20    16    1
    35     7     8    1
@<TRIPOS>MOLECULE
*****
 31 35 0 0 0
SMALL
GASTEIGER

@<TRIPOS>ATOM
      1 C           5.2604   -3.6361   21.9098 C.ar    1  UNL1        0.0207
      2 C           6.7290   -3.9283   21.9976 C.ar    1  UNL1        0.0994
      3 N           7.4893   -3.5829   23.2436 N.ar    1  UNL1       -0.2126
      4 C           6.7810   -2.9453   24.4020 C.ar    1  UNL1        0.2172
      5 N           5.3123   -2.6531   24.3142 N.ar    1  UNL1       -0.2126
      6 C           4.5520   -2.9985   23.0681 C.ar    1  UNL1        0.0994
      7 N           7.5413   -2.5999   25.6480 N.pl3   1  UNL1       -0.2978
      8 H           7.4924   -1.6888   26.0179 H       1  UNL1        0.1500
      9 C           8.3761   -3.6426   26.3305 C.3     1  UNL1        0.1360
     10 C           7.9246   -4.2292   27.6351 C.ar    1  UNL1        0.0802
     11 C           8.1140   -5.6924   27.9052 C.ar    1  UNL1        0.0165
     12 C           7.6624   -6.2789   29.2098 C.ar    1  UNL1        0.0041
     13 C           7.0214   -5.4022   30.2444 C.ar    1  UNL1        0.0343
     14 C           6.8320   -3.9389   29.9743 C.ar    1  UNL1        0.1313
     15 N           7.2836   -3.3524   28.6697 N.ar    1  UNL1       -0.2333
     16 N           6.1910   -3.0621   31.0089 N.pl3   1  UNL1       -0.2933
     17 C           5.9623   -3.4189   32.4479 C.3     1  UNL1        0.0922
     18 C           5.2961   -2.2519   33.1145 C.3     1  UNL1        0.0232
     19 C           5.1130   -1.1740   32.0877 C.3     1  UNL1        0.0232
     20 C           5.6660   -1.6746   30.7863 C.3     1  UNL1        0.0922
     21 C           4.5001   -3.9815   20.6638 C.3     1  UNL1        0.0596
     22 C           0.3514    0.2099   20.5533 C.3     1  UNL1        0.0307
     23 C           1.5070   -0.2578   19.7192 C.2     1  UNL1        0.0074
     24 C           1.8417    0.4476   18.4385 C.2     1  UNL1        0.2278
     25 N           2.9973   -0.0201   17.6044 N.2     1  UNL1       -0.0314
     26 C           3.8183   -1.1933   18.0510 C.2     1  UNL1        0.3716
     27 N           5.0071   -1.8763   17.4425 N.2     1  UNL1       -0.0311
     28 C           5.4072   -3.0040   18.3472 C.2     1  UNL1        0.2319
     29 C           4.4657   -3.0178   19.5148 C.2     1  UNL1        0.0328
     30 C           3.4837   -1.8987   19.3317 C.2     1  UNL1        0.0704
     31 C           2.3281   -1.4310   20.1658 C.3     1  UNL1        0.0598
@<TRIPOS>BOND
     1    22    23    1
     2    23    24    2
     3    24    25    1
     4    25    26    2
     5    26    27    1
     6    27    28    2
     7    28    29    1
     8    29    21    1
     9    21     1    1
    10     1     2   ar
    11     2     3   ar
    12     3     4   ar
    13     4     7    1
    14     7     9    1
    15     9    10    1
    16    10    11   ar
    17    11    12   ar
    18    12    13   ar
    19    13    14   ar
    20    14    16    1
    21    16    17    1
    22    17    18    1
    23    18    19    1
    24    19    20    1
    25    14    15   ar
    26     4     5   ar
    27     5     6   ar
    28    29    30    2
    29    30    31    1
    30    31    23    1
    31    30    26    1
    32     6     1   ar
    33    15    10   ar
    34    20    16    1
    35     7     8    1
@<TRIPOS>MOLECULE
*****
 31 35 0 0 0
SMALL
GASTEIGER

@<TRIPOS>ATOM
      1 C          -8.1709  -18.6551   22.8024 C.ar    1  UNL1        0.0207
      2 C          -7.7172  -20.0771   22.9506 C.ar    1  UNL1        0.0994
      3 N          -6.7186  -20.6499   21.9890 N.ar    1  UNL1       -0.2126
      4 C          -6.1738  -19.8007   20.8790 C.ar    1  UNL1        0.2172
      5 N          -6.6275  -18.3787   20.7308 N.ar    1  UNL1       -0.2126
      6 C          -7.6261  -17.8058   21.6925 C.ar    1  UNL1        0.0994
      7 N          -5.1753  -20.3736   19.9173 N.pl3   1  UNL1       -0.2978
      8 H          -5.4819  -20.9077   19.1493 H       1  UNL1        0.1500
      9 C          -3.7095  -20.1326   20.1259 C.3     1  UNL1        0.1360
     10 C          -3.2429  -18.8620   20.7723 C.ar    1  UNL1        0.0802
     11 C          -2.0427  -18.1425   20.2321 C.ar    1  UNL1        0.0165
     12 C          -1.5761  -16.8719   20.8785 C.ar    1  UNL1        0.0041
     13 C          -2.3097  -16.3207   22.0651 C.ar    1  UNL1        0.0343
     14 C          -3.5099  -17.0403   22.6053 C.ar    1  UNL1        0.1313
     15 N          -3.9765  -18.3108   21.9589 N.ar    1  UNL1       -0.2333
     16 N          -4.2435  -16.4891   23.7919 N.pl3   1  UNL1       -0.2933
     17 C          -5.1916  -15.3267   23.7805 C.3     1  UNL1        0.0922
     18 C          -5.6919  -15.1227   25.1798 C.3     1  UNL1        0.0232
     19 C          -5.0530  -16.1590   26.0561 C.3     1  UNL1        0.0232
     20 C          -4.1579  -17.0035   25.1984 C.3     1  UNL1        0.0922
     21 C          -9.1694  -18.0823   23.7641 C.3     1  UNL1        0.0596
     22 C         -10.6998  -15.0898   18.9169 C.3     1  UNL1        0.0307
     23 C         -11.3550  -15.8814   20.0097 C.2     1  UNL1        0.0074
     24 C         -12.8442  -16.0602   20.0167 C.2     1  UNL1        0.2278
     25 N         -13.4995  -16.8518   21.1094 N.2     1  UNL1       -0.0314
     26 C         -12.6654  -17.4646   22.1951 C.2     1  UNL1        0.3716
     27 N         -13.0274  -18.2910   23.3934 N.2     1  UNL1       -0.0311
     28 C         -11.7619  -18.6230   24.1271 C.2     1  UNL1        0.2319
     29 C         -10.6177  -18.0018   23.3821 C.2     1  UNL1        0.0328
     30 C         -11.1762  -17.2858   22.1881 C.2     1  UNL1        0.0704
     31 C         -10.5210  -16.4942   21.0954 C.3     1  UNL1        0.0598
@<TRIPOS>BOND
     1    22    23    1
     2    23    24    2
     3    24    25    1
     4    25    26    2
     5    26    27    1
     6    27    28    2
     7    28    29    1
     8    29    21    1
     9    21     1    1
    10     1     2   ar
    11     2     3   ar
    12     3     4   ar
    13     4     7    1
    14     7     9    1
    15     9    10    1
    16    10    11   ar
    17    11    12   ar
    18    12    13   ar
    19    13    14   ar
    20    14    16    1
    21    16    17    1
    22    17    18    1
    23    18    19    1
    24    19    20    1
    25    14    15   ar
    26     4     5   ar
    27     5     6   ar
    28    29    30    2
    29    30    31    1
    30    31    23    1
    31    30    26    1
    32     6     1   ar
    33    15    10   ar
    34    20    16    1
    35     7     8    1
@<TRIPOS>MOLECULE
*****
 31 35 0 0 0
SMALL
GASTEIGER

@<TRIPOS>ATOM
      1 C           0.7706    0.5132   19.9073 C.ar    1  UNL1        0.0207
      2 C           0.9420    1.0877   18.5324 C.ar    1  UNL1        0.0994
      3 N           0.3601    2.4304   18.2026 N.ar    1  UNL1       -0.2126
      4 C          -0.3932    3.1985   19.2478 C.ar    1  UNL1        0.2172
      5 N          -0.5646    2.6240   20.6228 N.ar    1  UNL1       -0.2126
      6 C           0.0172    1.2813   20.9526 C.ar    1  UNL1        0.0994
      7 N          -0.9750    4.5412   18.9180 N.pl3   1  UNL1       -0.2978
      8 H          -0.5421    5.3604   19.2507 H       1  UNL1        0.1500
      9 C          -2.2165    4.6356   18.0814 C.3     1  UNL1        0.1360
     10 C          -3.5431    4.2432   18.6611 C.ar    1  UNL1        0.0802
     11 C          -4.6617    3.8202   17.7557 C.ar    1  UNL1        0.0165
     12 C          -5.9883    3.4278   18.3353 C.ar    1  UNL1        0.0041
     13 C          -6.1965    3.4585   19.8205 C.ar    1  UNL1        0.0343
     14 C          -5.0778    3.8816   20.7260 C.ar    1  UNL1        0.1313
     15 N          -3.7513    4.2739   20.1463 N.ar    1  UNL1       -0.2333
     16 N          -5.2860    3.9123   22.2112 N.pl3   1  UNL1       -0.2933
     17 C          -6.4569    4.5203   22.9250 C.3     1  UNL1        0.0922
     18 C          -6.2544    4.3242   24.3983 C.3     1  UNL1        0.0232
     19 C          -4.9583    3.5950   24.5950 C.3     1  UNL1        0.0232
     20 C          -4.3598    3.3405   23.2434 C.3     1  UNL1        0.0922
     21 C           1.3524   -0.8294   20.2371 C.3     1  UNL1        0.0596
     22 C           4.6374   -5.4641   18.6495 C.3     1  UNL1        0.0307
     23 C           4.7634   -4.2221   19.4811 C.2     1  UNL1        0.0074
     24 C           6.0507   -3.9214   20.1898 C.2     1  UNL1        0.2278
     25 N           6.1767   -2.6794   21.0214 N.2     1  UNL1       -0.0314
     26 C           5.0153   -1.7381   21.1444 C.2     1  UNL1        0.3716
     27 N           4.8445   -0.4464   21.8875 N.2     1  UNL1       -0.0311
     28 C           3.4516    0.0512   21.6381 C.2     1  UNL1        0.2319
     29 C           2.7615   -0.9329   20.7408 C.2     1  UNL1        0.0328
     30 C           3.7280   -2.0388   20.4357 C.2     1  UNL1        0.0704
     31 C           3.6020   -3.2808   19.6041 C.3     1  UNL1        0.0598
@<TRIPOS>BOND
     1    22    23    1
     2    23    24    2
     3    24    25    1
     4    25    26    2
     5    26    27    1
     6    27    28    2
     7    28    29    1
     8    29    21    1
     9    21     1    1
    10     1     2   ar
    11     2     3   ar
    12     3     4   ar
    13     4     7    1
    14     7     9    1
    15     9    10    1
    16    10    11   ar
    17    11    12   ar
    18    12    13   ar
    19    13    14   ar
    20    14    16    1
    21    16    17    1
    22    17    18    1
    23    18    19    1
    24    19    20    1
    25    14    15   ar
    26     4     5   ar
    27     5     6   ar
    28    29    30    2
    29    30    31    1
    30    31    23    1
    31    30    26    1
    32     6     1   ar
    33    15    10   ar
    34    20    16    1
    35     7     8    1
