@<TRIPOS>MOLECULE
*****
 29 34 0 0 0
SMALL
GASTEIGER

@<TRIPOS>ATOM
      1 C          -8.6538  -17.8014   23.2136 C.2     1  UNL1        0.0770
      2 N          -7.5350  -18.0416   22.2438 N.2     1  UNL1       -0.2460
      3 C          -8.0986  -18.7620   21.0549 C.2     1  UNL1        0.0773
      4 C          -7.4653  -19.2578   19.7888 C.2     1  UNL1        0.0185
      5 C          -8.2993  -19.9586   18.7577 C.2     1  UNL1       -0.0027
      6 C          -9.7665  -20.1637   18.9927 C.2     1  UNL1       -0.0213
      7 C         -10.3997  -19.6680   20.2588 C.3     1  UNL1        0.0536
      8 C          -9.5658  -18.9671   21.2899 C.2     1  UNL1       -0.0027
      9 C          -9.9089  -18.3734   22.6240 C.2     1  UNL1       -0.0069
     10 C         -11.2685  -18.3550   23.2574 C.3     1  UNL1        0.0268
     11 C         -11.4369  -18.7843   24.6848 C.3     1  UNL1        0.0242
     12 C         -12.7965  -18.7659   25.3182 C.3     1  UNL1        0.0731
     13 C         -14.2720  -18.5919   25.5243 C.3     1  UNL1        0.0214
     14 C         -14.8626  -18.0856   24.2417 C.3     1  UNL1        0.0214
     15 C         -13.7521  -17.9466   23.2430 C.3     1  UNL1        0.0731
     16 C         -12.4598  -17.9073   22.4635 C.3     1  UNL1        0.0242
     17 N         -12.4751  -18.3671   23.9083 N.pl3   1  UNL1       -0.3107
     18 C         -11.1156  -18.3855   23.2750 C.ar    1  UNL1        0.0477
     19 C         -10.6364  -17.1987   22.4927 C.ar    1  UNL1        0.0145
     20 C          -9.2769  -17.2171   21.8593 C.ar    1  UNL1        0.0013
     21 C          -8.3963  -18.4224   22.0082 C.ar    1  UNL1        0.0001
     22 C          -8.8754  -19.6092   22.7905 C.ar    1  UNL1        0.0013
     23 C         -10.2351  -19.5907   23.4238 C.ar    1  UNL1        0.0145
     24 C          -8.3062  -15.7288   27.1927 C.ar    1  UNL1        0.0000
     25 C          -7.8998  -15.0154   25.9374 C.ar    1  UNL1        0.0000
     26 C          -8.0157  -15.7062   24.6110 C.ar    1  UNL1        0.0015
     27 C          -8.5380  -17.1105   24.5399 C.ar    1  UNL1        0.0173
     28 C          -8.9444  -17.8240   25.7952 C.ar    1  UNL1        0.0015
     29 C          -8.8285  -17.1331   27.1216 C.ar    1  UNL1        0.0000
@<TRIPOS>BOND
     1    24    25   ar
     2    25    26   ar
     3    26    27   ar
     4    27     1    1
     5     1     2    2
     6     2     3    1
     7     3     4    2
     8     4     5    1
     9     5     6    2
    10     6     7    1
    11     7     8    1
    12     8     9    2
    13     9    10    1
    14    10    11    1
    15    11    12    1
    16    12    13    1
    17    13    14    1
    18    14    15    1
    19    15    16    1
    20    15    17    1
    21    17    18    1
    22    18    19   ar
    23    19    20   ar
    24    20    21   ar
    25    21    22   ar
    26    22    23   ar
    27    27    28   ar
    28    28    29   ar
    29    29    24   ar
    30     9     1    1
    31    16    10    1
    32    23    18   ar
    33     8     3    1
    34    17    12    1
@<TRIPOS>MOLECULE
*****
 29 34 0 0 0
SMALL
GASTEIGER

@<TRIPOS>ATOM
      1 C          -8.8334  -16.5336   23.8680 C.2     1  UNL1        0.0770
      2 N         -10.2696  -16.1145   23.9765 N.2     1  UNL1       -0.2460
      3 C         -11.0502  -16.8607   22.9354 C.2     1  UNL1        0.0773
      4 C         -12.5062  -16.8523   22.5750 C.2     1  UNL1        0.0185
      5 C         -13.0085  -17.7243   21.4627 C.2     1  UNL1       -0.0027
      6 C         -12.0547  -18.6046   20.7107 C.2     1  UNL1       -0.0213
      7 C         -10.5987  -18.6129   21.0711 C.3     1  UNL1        0.0536
      8 C         -10.0965  -17.7410   22.1835 C.2     1  UNL1       -0.0027
      9 C          -8.7265  -17.5388   22.7598 C.2     1  UNL1       -0.0069
     10 C          -7.4700  -18.2219   22.3074 C.3     1  UNL1        0.0268
     11 C          -7.5263  -19.2493   21.2158 C.3     1  UNL1        0.0242
     12 C          -6.2698  -19.9325   20.7634 C.3     1  UNL1        0.0731
     13 C          -4.8307  -20.3375   20.6418 C.3     1  UNL1        0.0214
     14 C          -4.0403  -19.5456   21.6410 C.3     1  UNL1        0.0214
     15 C          -4.9910  -18.6512   22.3801 C.3     1  UNL1        0.0731
     16 C          -6.1574  -17.8778   22.9464 C.3     1  UNL1        0.0242
     17 N          -6.3690  -18.8903   21.8377 N.pl3   1  UNL1       -0.3107
     18 C          -7.6253  -18.2072   22.2901 C.ar    1  UNL1        0.0477
     19 C          -8.0453  -16.9136   21.6573 C.ar    1  UNL1        0.0145
     20 C          -9.3017  -16.2304   22.1097 C.ar    1  UNL1        0.0013
     21 C         -10.1382  -16.8408   23.1950 C.ar    1  UNL1        0.0001
     22 C          -9.7183  -18.1344   23.8278 C.ar    1  UNL1        0.0013
     23 C          -8.4618  -18.8175   23.3753 C.ar    1  UNL1        0.0145
     24 C          -5.4415  -15.0378   26.4190 C.ar    1  UNL1        0.0000
     25 C          -5.4247  -14.8052   24.9372 C.ar    1  UNL1        0.0000
     26 C          -6.5553  -15.3038   24.0869 C.ar    1  UNL1        0.0015
     27 C          -7.7028  -16.0350   24.7183 C.ar    1  UNL1        0.0173
     28 C          -7.7196  -16.2675   26.2000 C.ar    1  UNL1        0.0015
     29 C          -6.5890  -15.7689   27.0504 C.ar    1  UNL1        0.0000
@<TRIPOS>BOND
     1    24    25   ar
     2    25    26   ar
     3    26    27   ar
     4    27     1    1
     5     1     2    2
     6     2     3    1
     7     3     4    2
     8     4     5    1
     9     5     6    2
    10     6     7    1
    11     7     8    1
    12     8     9    2
    13     9    10    1
    14    10    11    1
    15    11    12    1
    16    12    13    1
    17    13    14    1
    18    14    15    1
    19    15    16    1
    20    15    17    1
    21    17    18    1
    22    18    19   ar
    23    19    20   ar
    24    20    21   ar
    25    21    22   ar
    26    22    23   ar
    27    27    28   ar
    28    28    29   ar
    29    29    24   ar
    30     9     1    1
    31    16    10    1
    32    23    18   ar
    33     8     3    1
    34    17    12    1
@<TRIPOS>MOLECULE
*****
 29 34 0 0 0
SMALL
GASTEIGER

@<TRIPOS>ATOM
      1 C          -8.1798  -18.5264   21.5080 C.2     1  UNL1        0.0770
      2 N          -9.3474  -18.9988   20.6935 N.2     1  UNL1       -0.2460
      3 C         -10.5840  -18.3416   21.2310 C.2     1  UNL1        0.0773
      4 C         -12.0251  -18.4297   20.8245 C.2     1  UNL1        0.0185
      5 C         -13.0628  -17.6392   21.5647 C.2     1  UNL1       -0.0027
      6 C         -12.6595  -16.7605   22.7115 C.2     1  UNL1       -0.0213
      7 C         -11.2184  -16.6724   23.1181 C.3     1  UNL1        0.0536
      8 C         -10.1806  -17.4629   22.3779 C.2     1  UNL1       -0.0027
      9 C          -8.6948  -17.5771   22.5490 C.2     1  UNL1       -0.0069
     10 C          -7.8689  -16.8667   23.5802 C.3     1  UNL1        0.0268
     11 C          -8.4832  -16.4703   24.8901 C.3     1  UNL1        0.0242
     12 C          -7.6573  -15.7599   25.9212 C.3     1  UNL1        0.0731
     13 C          -6.5054  -15.0990   26.6186 C.3     1  UNL1        0.0214
     14 C          -5.3193  -15.1467   25.7015 C.3     1  UNL1        0.0214
     15 C          -5.7382  -15.8370   24.4374 C.3     1  UNL1        0.0731
     16 C          -6.4289  -16.5528   23.3017 C.3     1  UNL1        0.0242
     17 N          -7.1832  -16.2160   24.5732 N.pl3   1  UNL1       -0.3107
     18 C          -8.0090  -16.9264   23.5420 C.ar    1  UNL1        0.0477
     19 C          -8.2867  -16.2708   22.2217 C.ar    1  UNL1        0.0145
     20 C          -9.1125  -16.9811   21.1906 C.ar    1  UNL1        0.0013
     21 C          -9.6607  -18.3471   21.4796 C.ar    1  UNL1        0.0001
     22 C          -9.3831  -19.0028   22.7999 C.ar    1  UNL1        0.0013
     23 C          -8.5572  -18.2923   23.8311 C.ar    1  UNL1        0.0145
     24 C          -3.8861  -19.7431   20.9301 C.ar    1  UNL1        0.0000
     25 C          -4.6381  -19.0900   19.8085 C.ar    1  UNL1        0.0000
     26 C          -6.0693  -18.6844   20.0011 C.ar    1  UNL1        0.0015
     27 C          -6.7486  -18.9319   21.3154 C.ar    1  UNL1        0.0173
     28 C          -5.9966  -19.5850   22.4369 C.ar    1  UNL1        0.0015
     29 C          -4.5654  -19.9906   22.2443 C.ar    1  UNL1        0.0000
@<TRIPOS>BOND
     1    24    25   ar
     2    25    26   ar
     3    26    27   ar
     4    27     1    1
     5     1     2    2
     6     2     3    1
     7     3     4    2
     8     4     5    1
     9     5     6    2
    10     6     7    1
    11     7     8    1
    12     8     9    2
    13     9    10    1
    14    10    11    1
    15    11    12    1
    16    12    13    1
    17    13    14    1
    18    14    15    1
    19    15    16    1
    20    15    17    1
    21    17    18    1
    22    18    19   ar
    23    19    20   ar
    24    20    21   ar
    25    21    22   ar
    26    22    23   ar
    27    27    28   ar
    28    28    29   ar
    29    29    24   ar
    30     9     1    1
    31    16    10    1
    32    23    18   ar
    33     8     3    1
    34    17    12    1
@<TRIPOS>MOLECULE
*****
 29 34 0 0 0
SMALL
GASTEIGER

@<TRIPOS>ATOM
      1 C          -9.5137  -16.7701   23.8732 C.2     1  UNL1        0.0770
      2 N          -8.9551  -15.9384   24.9896 N.2     1  UNL1       -0.2460
      3 C          -7.4643  -15.8910   24.8314 C.2     1  UNL1        0.0773
      4 C          -6.3903  -15.2209   25.6360 C.2     1  UNL1        0.0185
      5 C          -4.9534  -15.3533   25.2265 C.2     1  UNL1       -0.0027
      6 C          -4.5905  -16.1558   24.0123 C.2     1  UNL1       -0.0213
      7 C          -5.6644  -16.8259   23.2076 C.3     1  UNL1        0.0536
      8 C          -7.1013  -16.6935   23.6172 C.2     1  UNL1       -0.0027
      9 C          -8.3679  -17.2368   23.0250 C.2     1  UNL1       -0.0069
     10 C          -8.4707  -18.0960   21.7998 C.3     1  UNL1        0.0268
     11 C          -9.8104  -18.3583   21.1779 C.3     1  UNL1        0.0242
     12 C          -9.9131  -19.2175   19.9526 C.3     1  UNL1        0.0731
     13 C          -9.5512  -20.0943   18.7906 C.3     1  UNL1        0.0214
     14 C          -8.0638  -20.2874   18.8012 C.3     1  UNL1        0.0214
     15 C          -7.5063  -19.5300   19.9698 C.3     1  UNL1        0.0731
     16 C          -7.2340  -18.6928   21.1963 C.3     1  UNL1        0.0242
     17 N          -8.6493  -18.8687   20.6815 N.pl3   1  UNL1       -0.3107
     18 C          -8.5465  -18.0096   21.9067 C.ar    1  UNL1        0.0477
     19 C          -8.4768  -18.6442   23.2641 C.ar    1  UNL1        0.0145
     20 C          -8.3740  -17.7851   24.4893 C.ar    1  UNL1        0.0013
     21 C          -8.3409  -16.2912   24.3572 C.ar    1  UNL1        0.0001
     22 C          -8.4106  -15.6565   22.9999 C.ar    1  UNL1        0.0013
     23 C          -8.5134  -16.5158   21.7746 C.ar    1  UNL1        0.0145
     24 C         -13.8627  -17.7015   23.1889 C.ar    1  UNL1        0.0000
     25 C         -13.0494  -18.5560   24.1153 C.ar    1  UNL1        0.0000
     26 C         -11.5998  -18.2455   24.3435 C.ar    1  UNL1        0.0015
     27 C         -10.9633  -17.0805   23.6451 C.ar    1  UNL1        0.0173
     28 C         -11.7766  -16.2260   22.7187 C.ar    1  UNL1        0.0015
     29 C         -13.2263  -16.5365   22.4905 C.ar    1  UNL1        0.0000
@<TRIPOS>BOND
     1    24    25   ar
     2    25    26   ar
     3    26    27   ar
     4    27     1    1
     5     1     2    2
     6     2     3    1
     7     3     4    2
     8     4     5    1
     9     5     6    2
    10     6     7    1
    11     7     8    1
    12     8     9    2
    13     9    10    1
    14    10    11    1
    15    11    12    1
    16    12    13    1
    17    13    14    1
    18    14    15    1
    19    15    16    1
    20    15    17    1
    21    17    18    1
    22    18    19   ar
    23    19    20   ar
    24    20    21   ar
    25    21    22   ar
    26    22    23   ar
    27    27    28   ar
    28    28    29   ar
    29    29    24   ar
    30     9     1    1
    31    16    10    1
    32    23    18   ar
    33     8     3    1
    34    17    12    1
@<TRIPOS>MOLECULE
*****
 29 34 0 0 0
SMALL
GASTEIGER

@<TRIPOS>ATOM
      1 C          -8.1976  -17.7509   22.1109 C.2     1  UNL1        0.0770
      2 N          -6.7865  -17.2585   22.2389 N.2     1  UNL1       -0.2460
      3 C          -6.6598  -16.5516   23.5558 C.2     1  UNL1        0.0773
      4 C          -5.5030  -15.8645   24.2189 C.2     1  UNL1        0.0185
      5 C          -5.6791  -15.2329   25.5680 C.2     1  UNL1       -0.0027
      6 C          -7.0119  -15.2884   26.2539 C.2     1  UNL1       -0.0213
      7 C          -8.1687  -15.9754   25.5908 C.3     1  UNL1        0.0536
      8 C          -7.9926  -16.6070   24.2417 C.2     1  UNL1       -0.0027
      9 C          -8.9430  -17.3483   23.3488 C.2     1  UNL1       -0.0069
     10 C         -10.3856  -17.6363   23.6422 C.3     1  UNL1        0.0268
     11 C         -11.4616  -16.9867   22.8234 C.3     1  UNL1        0.0242
     12 C         -12.9042  -17.2747   23.1168 C.3     1  UNL1        0.0731
     13 C         -14.1496  -17.8318   23.7403 C.3     1  UNL1        0.0214
     14 C         -13.7400  -18.7480   24.8550 C.3     1  UNL1        0.0214
     15 C         -12.2414  -18.7573   24.9205 C.3     1  UNL1        0.0731
     16 C         -10.7521  -18.5737   24.7542 C.3     1  UNL1        0.0242
     17 N         -11.7248  -17.8467   23.8462 N.pl3   1  UNL1       -0.3107
     18 C         -10.2824  -17.5587   23.5528 C.ar    1  UNL1        0.0477
     19 C          -9.8850  -16.2341   22.9716 C.ar    1  UNL1        0.0145
     20 C          -8.4426  -15.9462   22.6783 C.ar    1  UNL1        0.0013
     21 C          -7.3972  -16.9828   22.9661 C.ar    1  UNL1        0.0001
     22 C          -7.7944  -18.3073   23.5473 C.ar    1  UNL1        0.0013
     23 C          -9.2370  -18.5953   23.8406 C.ar    1  UNL1        0.0145
     24 C          -9.8963  -20.0350   18.6256 C.ar    1  UNL1        0.0000
     25 C         -10.7445  -19.0324   19.3503 C.ar    1  UNL1        0.0000
     26 C         -10.1783  -18.2710   20.5121 C.ar    1  UNL1        0.0015
     27 C          -8.7638  -18.5123   20.9492 C.ar    1  UNL1        0.0173
     28 C          -7.9156  -19.5149   20.2245 C.ar    1  UNL1        0.0015
     29 C          -8.4818  -20.2762   19.0627 C.ar    1  UNL1        0.0000
@<TRIPOS>BOND
     1    24    25   ar
     2    25    26   ar
     3    26    27   ar
     4    27     1    1
     5     1     2    2
     6     2     3    1
     7     3     4    2
     8     4     5    1
     9     5     6    2
    10     6     7    1
    11     7     8    1
    12     8     9    2
    13     9    10    1
    14    10    11    1
    15    11    12    1
    16    12    13    1
    17    13    14    1
    18    14    15    1
    19    15    16    1
    20    15    17    1
    21    17    18    1
    22    18    19   ar
    23    19    20   ar
    24    20    21   ar
    25    21    22   ar
    26    22    23   ar
    27    27    28   ar
    28    28    29   ar
    29    29    24   ar
    30     9     1    1
    31    16    10    1
    32    23    18   ar
    33     8     3    1
    34    17    12    1
@<TRIPOS>MOLECULE
*****
 29 34 0 0 0
SMALL
GASTEIGER

@<TRIPOS>ATOM
      1 C          -9.4165  -18.3116   21.9320 C.2     1  UNL1        0.0770
      2 N          -9.1250  -19.2190   20.7737 N.2     1  UNL1       -0.2460
      3 C          -7.6519  -19.5018   20.7657 C.2     1  UNL1        0.0773
      4 C          -6.7941  -20.3317   19.8572 C.2     1  UNL1        0.0185
      5 C          -5.3175  -20.4290   20.1021 C.2     1  UNL1       -0.0027
      6 C          -4.6986  -19.6965   21.2555 C.2     1  UNL1       -0.0213
      7 C          -5.5564  -18.8666   22.1640 C.3     1  UNL1        0.0536
      8 C          -7.0330  -18.7692   21.9191 C.2     1  UNL1       -0.0027
      9 C          -8.1237  -18.0337   22.6399 C.2     1  UNL1       -0.0069
     10 C          -7.9516  -17.1715   23.8553 C.3     1  UNL1        0.0268
     11 C          -9.0419  -17.0975   24.8828 C.3     1  UNL1        0.0242
     12 C          -8.8698  -16.2354   26.0982 C.3     1  UNL1        0.0731
     13 C          -8.2864  -15.2880   27.1043 C.3     1  UNL1        0.0214
     14 C          -6.9281  -14.8757   26.6195 C.3     1  UNL1        0.0214
     15 C          -6.6720  -15.5682   25.3138 C.3     1  UNL1        0.0731
     16 C          -6.6893  -16.3834   24.0431 C.3     1  UNL1        0.0242
     17 N          -7.8721  -16.4086   24.9916 N.pl3   1  UNL1       -0.3107
     18 C          -8.0441  -17.2707   23.7763 C.ar    1  UNL1        0.0477
     19 C          -8.3156  -18.7380   23.9298 C.ar    1  UNL1        0.0145
     20 C          -8.4876  -19.6001   22.7145 C.ar    1  UNL1        0.0013
     21 C          -8.3883  -18.9949   21.3455 C.ar    1  UNL1        0.0001
     22 C          -8.1168  -17.5277   21.1919 C.ar    1  UNL1        0.0013
     23 C          -7.9448  -16.6656   22.4073 C.ar    1  UNL1        0.0145
     24 C         -13.4600  -16.7055   23.0813 C.ar    1  UNL1        0.0000
     25 C         -13.0764  -18.1072   23.4529 C.ar    1  UNL1        0.0000
     26 C         -11.7286  -18.6426   23.0698 C.ar    1  UNL1        0.0015
     27 C         -10.7644  -17.7763   22.3151 C.ar    1  UNL1        0.0173
     28 C         -11.1479  -16.3746   21.9435 C.ar    1  UNL1        0.0015
     29 C         -12.4957  -15.8392   22.3267 C.ar    1  UNL1        0.0000
@<TRIPOS>BOND
     1    24    25   ar
     2    25    26   ar
     3    26    27   ar
     4    27     1    1
     5     1     2    2
     6     2     3    1
     7     3     4    2
     8     4     5    1
     9     5     6    2
    10     6     7    1
    11     7     8    1
    12     8     9    2
    13     9    10    1
    14    10    11    1
    15    11    12    1
    16    12    13    1
    17    13    14    1
    18    14    15    1
    19    15    16    1
    20    15    17    1
    21    17    18    1
    22    18    19   ar
    23    19    20   ar
    24    20    21   ar
    25    21    22   ar
    26    22    23   ar
    27    27    28   ar
    28    28    29   ar
    29    29    24   ar
    30     9     1    1
    31    16    10    1
    32    23    18   ar
    33     8     3    1
    34    17    12    1
