@<TRIPOS>MOLECULE
*****
 28 31 0 0 0
SMALL
GASTEIGER

@<TRIPOS>ATOM
      1 O           7.4892   -5.7669   23.4259 O.2     1  UNL1       -0.2522
      2 C           6.8736   -4.7731   24.3659 C.2     1  UNL1        0.3078
      3 N           6.1343   -3.5860   23.8235 N.am    1  UNL1       -0.2681
      4 N           6.9973   -4.9665   25.8482 N.am    1  UNL1       -0.2611
      5 C           7.7367   -6.1536   26.3906 C.3     1  UNL1        0.1123
      6 C           7.8604   -6.3469   27.8729 C.3     1  UNL1        0.0940
      7 N           7.2448   -5.3531   28.8129 N.3     1  UNL1       -0.2697
      8 C           6.5055   -4.1660   28.2705 C.3     1  UNL1        0.0940
      9 C           6.3818   -3.9727   26.7882 C.3     1  UNL1        0.1123
     10 H           5.7303   -2.9338   24.4404 H       1  UNL1        0.1564
     11 C           6.0105   -3.3927   22.3411 C.ar    1  UNL1        0.0525
     12 C           7.1055   -2.7055   21.5804 C.ar    1  UNL1        0.0156
     13 C           6.9817   -2.5122   20.0981 C.ar    1  UNL1        0.0135
     14 C           5.7630   -3.0060   19.3765 C.ar    1  UNL1        0.0683
     15 CL          5.6392   -2.8126   17.8941 Cl      1  UNL1       -0.0814
     16 C           4.6680   -3.6932   20.1372 C.ar    1  UNL1        0.0694
     17 CL          3.4492   -4.1870   19.4156 Cl      1  UNL1       -0.0813
     18 C           4.7918   -3.8865   21.6195 C.ar    1  UNL1        0.0270
     19 C           7.3685   -5.5465   30.2952 C.3     1  UNL1        0.0735
     20 C           7.6522   -4.3718   31.1837 C.3     1  UNL1        0.0320
     21 C           9.0696   -3.9733   31.4705 C.3     1  UNL1        0.0042
     22 C           9.3533   -2.7986   32.3590 C.3     1  UNL1        0.0174
     23 C           8.2196   -2.0222   32.9608 C.3     1  UNL1        0.0720
     24 N           6.8022   -2.4206   32.6740 N.3     1  UNL1       -0.2739
     25 C           6.5186   -3.5955   31.7854 C.3     1  UNL1        0.0734
     26 C           5.6686   -1.6444   33.2756 C.3     1  UNL1        0.0576
     27 C           4.3301   -1.6132   33.9520 C.3     1  UNL1        0.0173
     28 C           5.0434   -0.3308   33.6415 C.3     1  UNL1        0.0173
@<TRIPOS>BOND
     1     1     2    2
     2     2     3   am
     3     3    11    1
     4    11    12   ar
     5    12    13   ar
     6    13    14   ar
     7    14    15    1
     8    14    16   ar
     9    16    17    1
    10    16    18   ar
    11     2     4   am
    12     4     5    1
    13     5     6    1
    14     6     7    1
    15     7    19    1
    16    20    19    1
    17    20    21    1
    18    21    22    1
    19    22    23    1
    20    23    24    1
    21    24    26    1
    22    26    27    1
    23    27    28    1
    24    24    25    1
    25     7     8    1
    26     8     9    1
    27    18    11   ar
    28     9     4    1
    29    25    20    1
    30    28    26    1
    31     3    10    1
@<TRIPOS>MOLECULE
*****
 28 31 0 0 0
SMALL
GASTEIGER

@<TRIPOS>ATOM
      1 O           3.3401   -1.6801   27.4126 O.2     1  UNL1       -0.2522
      2 C           4.5443   -1.3523   26.5805 C.2     1  UNL1        0.3078
      3 N           5.9192   -1.6501   27.1010 N.am    1  UNL1       -0.2681
      4 N           4.3736   -0.7268   25.2278 N.am    1  UNL1       -0.2611
      5 C           2.9986   -0.4291   24.7074 C.3     1  UNL1        0.1123
      6 C           2.8279    0.1964   23.3548 C.3     1  UNL1        0.0940
      7 N           4.0322    0.5242   22.5227 N.3     1  UNL1       -0.2697
      8 C           5.4071    0.2265   23.0431 C.3     1  UNL1        0.0940
      9 C           5.5778   -0.3990   24.3957 C.3     1  UNL1        0.1123
     10 H           6.7096   -1.4349   26.5548 H       1  UNL1        0.1564
     11 C           6.0900   -2.2756   28.4536 C.ar    1  UNL1        0.0525
     12 C           5.8814   -1.4544   29.6914 C.ar    1  UNL1        0.0156
     13 C           6.0522   -2.0800   31.0440 C.ar    1  UNL1        0.0135
     14 C           6.4315   -3.5267   31.1588 C.ar    1  UNL1        0.0683
     15 CL          6.6023   -4.1522   32.5114 Cl      1  UNL1       -0.0814
     16 C           6.6401   -4.3478   29.9210 C.ar    1  UNL1        0.0694
     17 CL          7.0194   -5.7945   30.0358 Cl      1  UNL1       -0.0813
     18 C           6.4693   -3.7223   28.5684 C.ar    1  UNL1        0.0270
     19 C           3.8614    1.1497   21.1700 C.3     1  UNL1        0.0735
     20 C           3.9342    0.2999   19.9361 C.3     1  UNL1        0.0320
     21 C           4.0136    0.9455   18.5844 C.3     1  UNL1        0.0042
     22 C           4.0864    0.0957   17.3506 C.3     1  UNL1        0.0174
     23 C           4.0800   -1.3997   17.4683 C.3     1  UNL1        0.0720
     24 N           4.0007   -2.0452   18.8199 N.3     1  UNL1       -0.2739
     25 C           3.9278   -1.1954   20.0539 C.3     1  UNL1        0.0734
     26 C           3.9942   -3.5406   18.9377 C.3     1  UNL1        0.0576
     27 C           4.6683   -4.8634   18.7241 C.3     1  UNL1        0.0173
     28 C           3.3088   -4.8078   19.3554 C.3     1  UNL1        0.0173
@<TRIPOS>BOND
     1     1     2    2
     2     2     3   am
     3     3    11    1
     4    11    12   ar
     5    12    13   ar
     6    13    14   ar
     7    14    15    1
     8    14    16   ar
     9    16    17    1
    10    16    18   ar
    11     2     4   am
    12     4     5    1
    13     5     6    1
    14     6     7    1
    15     7    19    1
    16    20    19    1
    17    20    21    1
    18    21    22    1
    19    22    23    1
    20    23    24    1
    21    24    26    1
    22    26    27    1
    23    27    28    1
    24    24    25    1
    25     7     8    1
    26     8     9    1
    27    18    11   ar
    28     9     4    1
    29    25    20    1
    30    28    26    1
    31     3    10    1
@<TRIPOS>MOLECULE
*****
 28 31 0 0 0
SMALL
GASTEIGER

@<TRIPOS>ATOM
      1 O           7.1160  -11.8582   28.1409 O.2     1  UNL1       -0.2522
      2 C           6.4270  -10.6516   27.5758 C.2     1  UNL1        0.3078
      3 N           4.9611  -10.7033   27.2618 N.am    1  UNL1       -0.2681
      4 N           7.2039   -9.3932   27.3247 N.am    1  UNL1       -0.2611
      5 C           8.6697   -9.3415   27.6387 C.3     1  UNL1        0.1123
      6 C           9.4465   -8.0831   27.3876 C.3     1  UNL1        0.0940
      7 N           8.7575   -6.8765   26.8225 N.3     1  UNL1       -0.2697
      8 C           7.2917   -6.9283   26.5084 C.3     1  UNL1        0.0940
      9 C           6.5149   -8.1866   26.7595 C.3     1  UNL1        0.1123
     10 H           4.5089   -9.9114   26.8908 H       1  UNL1        0.1564
     11 C           4.1842  -11.9617   27.5129 C.ar    1  UNL1        0.0525
     12 C           4.3426  -13.1368   26.5942 C.ar    1  UNL1        0.0156
     13 C           3.5658  -14.3951   26.8453 C.ar    1  UNL1        0.0135
     14 C           2.6305  -14.4783   28.0151 C.ar    1  UNL1        0.0683
     15 CL          1.8536  -15.7367   28.2662 Cl      1  UNL1       -0.0814
     16 C           2.4721  -13.3032   28.9338 C.ar    1  UNL1        0.0694
     17 CL          1.5368  -13.3863   30.1035 Cl      1  UNL1       -0.0813
     18 C           3.2490  -12.0449   28.6826 C.ar    1  UNL1        0.0270
     19 C           9.5344   -5.6181   26.5714 C.3     1  UNL1        0.0735
     20 C           9.0828   -4.3238   27.1802 C.3     1  UNL1        0.0320
     21 C           9.0735   -3.0704   26.3563 C.3     1  UNL1        0.0042
     22 C           8.6218   -1.7760   26.9652 C.3     1  UNL1        0.0174
     23 C           8.1795   -1.7351   28.3979 C.3     1  UNL1        0.0720
     24 N           8.1888   -2.9886   29.2218 N.3     1  UNL1       -0.2739
     25 C           8.6405   -4.2830   28.6129 C.3     1  UNL1        0.0734
     26 C           7.7465   -2.9477   30.6545 C.3     1  UNL1        0.0576
     27 C           7.7886   -2.3051   32.0092 C.3     1  UNL1        0.0173
     28 C           6.9383   -3.5196   31.7813 C.3     1  UNL1        0.0173
@<TRIPOS>BOND
     1     1     2    2
     2     2     3   am
     3     3    11    1
     4    11    12   ar
     5    12    13   ar
     6    13    14   ar
     7    14    15    1
     8    14    16   ar
     9    16    17    1
    10    16    18   ar
    11     2     4   am
    12     4     5    1
    13     5     6    1
    14     6     7    1
    15     7    19    1
    16    20    19    1
    17    20    21    1
    18    21    22    1
    19    22    23    1
    20    23    24    1
    21    24    26    1
    22    26    27    1
    23    27    28    1
    24    24    25    1
    25     7     8    1
    26     8     9    1
    27    18    11   ar
    28     9     4    1
    29    25    20    1
    30    28    26    1
    31     3    10    1
@<TRIPOS>MOLECULE
*****
 28 31 0 0 0
SMALL
GASTEIGER

@<TRIPOS>ATOM
      1 O           2.0401   -0.3716   21.5344 O.2     1  UNL1       -0.2522
      2 C           2.0205    0.2705   20.1789 C.2     1  UNL1        0.3078
      3 N           3.0198   -0.1420   19.1391 N.am    1  UNL1       -0.2681
      4 N           1.0015    1.3251   19.8633 N.am    1  UNL1       -0.2611
      5 C           0.0023    1.7376   20.9031 C.3     1  UNL1        0.1123
      6 C          -1.0166    2.7922   20.5874 C.3     1  UNL1        0.0940
      7 N          -1.0362    3.4343   19.2319 N.3     1  UNL1       -0.2697
      8 C          -0.0369    3.0218   18.1921 C.3     1  UNL1        0.0940
      9 C           0.9819    1.9672   18.5078 C.3     1  UNL1        0.1123
     10 H           3.0069    0.2794   18.2494 H       1  UNL1        0.1564
     11 C           4.0387   -1.1967   19.4547 C.ar    1  UNL1        0.0525
     12 C           5.2749   -0.8385   20.2251 C.ar    1  UNL1        0.0156
     13 C           6.2937   -1.8932   20.5407 C.ar    1  UNL1        0.0135
     14 C           6.0764   -3.3059   20.0859 C.ar    1  UNL1        0.0683
     15 CL          7.0954   -4.3606   20.4015 Cl      1  UNL1       -0.0814
     16 C           4.8403   -3.6641   19.3155 C.ar    1  UNL1        0.0694
     17 CL          4.6229   -5.0769   18.8607 Cl      1  UNL1       -0.0813
     18 C           3.8214   -2.6095   18.9999 C.ar    1  UNL1        0.0270
     19 C          -2.0551    4.4889   18.9163 C.3     1  UNL1        0.0735
     20 C          -3.5131    4.2124   19.1347 C.3     1  UNL1        0.0320
     21 C          -4.3820    3.8124   17.9793 C.3     1  UNL1        0.0042
     22 C          -5.8400    3.5359   18.1977 C.3     1  UNL1        0.0174
     23 C          -6.4292    3.6594   19.5716 C.3     1  UNL1        0.0720
     24 N          -5.5603    4.0594   20.7271 N.3     1  UNL1       -0.2739
     25 C          -4.1023    4.3359   20.5086 C.3     1  UNL1        0.0734
     26 C          -6.1495    4.1828   22.1010 C.3     1  UNL1        0.0576
     27 C          -5.9792    4.1940   23.5912 C.3     1  UNL1        0.0173
     28 C          -7.3402    4.3856   22.9904 C.3     1  UNL1        0.0173
@<TRIPOS>BOND
     1     1     2    2
     2     2     3   am
     3     3    11    1
     4    11    12   ar
     5    12    13   ar
     6    13    14   ar
     7    14    15    1
     8    14    16   ar
     9    16    17    1
    10    16    18   ar
    11     2     4   am
    12     4     5    1
    13     5     6    1
    14     6     7    1
    15     7    19    1
    16    20    19    1
    17    20    21    1
    18    21    22    1
    19    22    23    1
    20    23    24    1
    21    24    26    1
    22    26    27    1
    23    27    28    1
    24    24    25    1
    25     7     8    1
    26     8     9    1
    27    18    11   ar
    28     9     4    1
    29    25    20    1
    30    28    26    1
    31     3    10    1
@<TRIPOS>MOLECULE
*****
 28 31 0 0 0
SMALL
GASTEIGER

@<TRIPOS>ATOM
      1 O          -1.7763    5.2230   21.1499 O.2     1  UNL1       -0.2522
      2 C          -1.6726    3.7711   20.7877 C.2     1  UNL1        0.3078
      3 N          -2.8203    2.8455   21.0634 N.am    1  UNL1       -0.2681
      4 N          -0.4211    3.2448   20.1498 N.am    1  UNL1       -0.2611
      5 C           0.7266    4.1703   19.8741 C.3     1  UNL1        0.1123
      6 C           1.9779    3.6440   19.2362 C.3     1  UNL1        0.0940
      7 N           2.0816    2.1921   18.8740 N.3     1  UNL1       -0.2697
      8 C           0.9339    1.2665   19.1497 C.3     1  UNL1        0.0940
      9 C          -0.3175    1.7928   19.7876 C.3     1  UNL1        0.1123
     10 H          -2.7522    1.8926   20.8257 H       1  UNL1        0.1564
     11 C          -4.0718    3.3719   21.7013 C.ar    1  UNL1        0.0525
     12 C          -5.2249    3.8050   20.8454 C.ar    1  UNL1        0.0156
     13 C          -6.4763    4.3313   21.4833 C.ar    1  UNL1        0.0135
     14 C          -6.5745    4.4245   22.9772 C.ar    1  UNL1        0.0683
     15 CL         -7.8260    4.9508   23.6151 Cl      1  UNL1       -0.0814
     16 C          -5.4214    3.9914   23.8331 C.ar    1  UNL1        0.0694
     17 CL         -5.5197    4.0846   25.3270 Cl      1  UNL1       -0.0813
     18 C          -4.1700    3.4651   23.1952 C.ar    1  UNL1        0.0270
     19 C           3.3331    1.6657   18.2361 C.3     1  UNL1        0.0735
     20 C           4.1228    0.5852   18.9133 C.3     1  UNL1        0.0320
     21 C           5.2696    0.9447   19.8109 C.3     1  UNL1        0.0042
     22 C           6.0593   -0.1358   20.4881 C.3     1  UNL1        0.0174
     23 C           5.7023   -1.5760   20.2678 C.3     1  UNL1        0.0720
     24 N           4.5555   -1.9355   19.3703 N.3     1  UNL1       -0.2739
     25 C           3.7658   -0.8549   18.6930 C.3     1  UNL1        0.0734
     26 C           4.1985   -3.3756   19.1500 C.3     1  UNL1        0.0576
     27 C           3.1609   -4.4457   18.9817 C.3     1  UNL1        0.0173
     28 C           4.6177   -4.8000   18.9366 C.3     1  UNL1        0.0173
@<TRIPOS>BOND
     1     1     2    2
     2     2     3   am
     3     3    11    1
     4    11    12   ar
     5    12    13   ar
     6    13    14   ar
     7    14    15    1
     8    14    16   ar
     9    16    17    1
    10    16    18   ar
    11     2     4   am
    12     4     5    1
    13     5     6    1
    14     6     7    1
    15     7    19    1
    16    20    19    1
    17    20    21    1
    18    21    22    1
    19    22    23    1
    20    23    24    1
    21    24    26    1
    22    26    27    1
    23    27    28    1
    24    24    25    1
    25     7     8    1
    26     8     9    1
    27    18    11   ar
    28     9     4    1
    29    25    20    1
    30    28    26    1
    31     3    10    1
@<TRIPOS>MOLECULE
*****
 28 31 0 0 0
SMALL
GASTEIGER

@<TRIPOS>ATOM
      1 O           8.2922   -3.8506   25.9366 O.2     1  UNL1       -0.2522
      2 C           6.8698   -3.6302   25.5142 C.2     1  UNL1        0.3078
      3 N           5.8126   -3.3709   26.5461 N.am    1  UNL1       -0.2681
      4 N           6.5048   -3.6693   24.0597 N.am    1  UNL1       -0.2611
      5 C           7.5621   -3.9286   23.0278 C.3     1  UNL1        0.1123
      6 C           7.1970   -3.9676   21.5735 C.3     1  UNL1        0.0940
      7 N           5.7747   -3.7473   21.1511 N.3     1  UNL1       -0.2697
      8 C           4.7174   -3.4880   22.1830 C.3     1  UNL1        0.0940
      9 C           5.0825   -3.4490   23.6373 C.3     1  UNL1        0.1123
     10 H           4.8791   -3.2263   26.2688 H       1  UNL1        0.1564
     11 C           6.1776   -3.3319   28.0005 C.ar    1  UNL1        0.0525
     12 C           6.2538   -2.0178   28.7197 C.ar    1  UNL1        0.0156
     13 C           6.6188   -1.9788   30.1740 C.ar    1  UNL1        0.0135
     14 C           6.9077   -3.2539   30.9092 C.ar    1  UNL1        0.0683
     15 CL          7.2727   -3.2149   32.3637 Cl      1  UNL1       -0.0814
     16 C           6.8315   -4.5681   30.1901 C.ar    1  UNL1        0.0694
     17 CL          7.1203   -5.8432   30.9253 Cl      1  UNL1       -0.0813
     18 C           6.4665   -4.6070   28.7357 C.ar    1  UNL1        0.0270
     19 C           5.4096   -3.7863   19.6966 C.3     1  UNL1        0.0735
     20 C           4.8281   -2.5714   19.0365 C.3     1  UNL1        0.0320
     21 C           5.5100   -1.9664   17.8453 C.3     1  UNL1        0.0042
     22 C           4.9285   -0.7515   17.1851 C.3     1  UNL1        0.0174
     23 C           3.6651   -0.1416   17.7161 C.3     1  UNL1        0.0720
     24 N           2.9832   -0.7467   18.9073 N.3     1  UNL1       -0.2739
     25 C           3.5648   -1.9616   19.5675 C.3     1  UNL1        0.0734
     26 C           1.7199   -0.1368   19.4383 C.3     1  UNL1        0.0576
     27 C           0.5531   -0.1788   20.3800 C.3     1  UNL1        0.0173
     28 C           0.6985    0.9615   19.4164 C.3     1  UNL1        0.0173
@<TRIPOS>BOND
     1     1     2    2
     2     2     3   am
     3     3    11    1
     4    11    12   ar
     5    12    13   ar
     6    13    14   ar
     7    14    15    1
     8    14    16   ar
     9    16    17    1
    10    16    18   ar
    11     2     4   am
    12     4     5    1
    13     5     6    1
    14     6     7    1
    15     7    19    1
    16    20    19    1
    17    20    21    1
    18    21    22    1
    19    22    23    1
    20    23    24    1
    21    24    26    1
    22    26    27    1
    23    27    28    1
    24    24    25    1
    25     7     8    1
    26     8     9    1
    27    18    11   ar
    28     9     4    1
    29    25    20    1
    30    28    26    1
    31     3    10    1
@<TRIPOS>MOLECULE
*****
 28 31 0 0 0
SMALL
GASTEIGER

@<TRIPOS>ATOM
      1 O           2.4139   -0.9147   29.1989 O.2     1  UNL1       -0.2522
      2 C           2.5642    0.2336   30.1522 C.2     1  UNL1        0.3078
      3 N           1.9881    1.5749   29.8074 N.am    1  UNL1       -0.2681
      4 N           3.2905    0.0405   31.4504 N.am    1  UNL1       -0.2611
      5 C           3.8666   -1.3008   31.7952 C.3     1  UNL1        0.1123
      6 C           4.5929   -1.4939   33.0933 C.3     1  UNL1        0.0940
      7 N           4.7432   -0.3455   34.0466 N.3     1  UNL1       -0.2697
      8 C           4.1671    0.9958   33.7018 C.3     1  UNL1        0.0940
      9 C           3.4408    1.1888   32.4037 C.3     1  UNL1        0.1123
     10 H           2.0867    2.3286   30.4331 H       1  UNL1        0.1564
     11 C           1.2617    1.7680   28.5093 C.ar    1  UNL1        0.0525
     12 C          -0.2377    1.7995   28.4863 C.ar    1  UNL1        0.0156
     13 C          -0.9640    1.9926   27.1882 C.ar    1  UNL1        0.0135
     14 C          -0.1908    2.1542   25.9130 C.ar    1  UNL1        0.0683
     15 CL         -0.9172    2.3472   24.6148 Cl      1  UNL1       -0.0814
     16 C           1.3086    2.1226   25.9359 C.ar    1  UNL1        0.0694
     17 CL          2.0818    2.2842   24.6608 Cl      1  UNL1       -0.0813
     18 C           2.0349    1.9296   27.2341 C.ar    1  UNL1        0.0270
     19 C           5.4696   -0.5386   35.3448 C.3     1  UNL1        0.0735
     20 C           5.1406    0.3276   36.5244 C.3     1  UNL1        0.0320
     21 C           6.1665    1.2785   37.0660 C.3     1  UNL1        0.0042
     22 C           5.8375    2.1447   38.2455 C.3     1  UNL1        0.0174
     23 C           4.4825    2.0601   38.8835 C.3     1  UNL1        0.0720
     24 N           3.4566    1.1092   38.3419 N.3     1  UNL1       -0.2739
     25 C           3.7856    0.2430   37.1623 C.3     1  UNL1        0.0734
     26 C           2.1017    1.0246   38.9798 C.3     1  UNL1        0.0576
     27 C           0.8468    1.6930   39.4576 C.3     1  UNL1        0.0173
     28 C           1.0098    0.2095   39.6070 C.3     1  UNL1        0.0173
@<TRIPOS>BOND
     1     1     2    2
     2     2     3   am
     3     3    11    1
     4    11    12   ar
     5    12    13   ar
     6    13    14   ar
     7    14    15    1
     8    14    16   ar
     9    16    17    1
    10    16    18   ar
    11     2     4   am
    12     4     5    1
    13     5     6    1
    14     6     7    1
    15     7    19    1
    16    20    19    1
    17    20    21    1
    18    21    22    1
    19    22    23    1
    20    23    24    1
    21    24    26    1
    22    26    27    1
    23    27    28    1
    24    24    25    1
    25     7     8    1
    26     8     9    1
    27    18    11   ar
    28     9     4    1
    29    25    20    1
    30    28    26    1
    31     3    10    1
@<TRIPOS>MOLECULE
*****
 28 31 0 0 0
SMALL
GASTEIGER

@<TRIPOS>ATOM
      1 O           7.0976  -11.8289   28.1946 O.2     1  UNL1       -0.2522
      2 C           6.4169  -10.6416   27.5808 C.2     1  UNL1        0.3078
      3 N           4.9564  -10.7051   27.2450 N.am    1  UNL1       -0.2681
      4 N           7.1967   -9.3907   27.3029 N.am    1  UNL1       -0.2611
      5 C           8.6572   -9.3272   27.6388 C.3     1  UNL1        0.1123
      6 C           9.4369   -8.0763   27.3609 C.3     1  UNL1        0.0940
      7 N           8.7562   -6.8889   26.7471 N.3     1  UNL1       -0.2697
      8 C           7.2957   -6.9524   26.4113 C.3     1  UNL1        0.0940
      9 C           6.5159   -8.2033   26.6892 C.3     1  UNL1        0.1123
     10 H           4.5096   -9.9258   26.8421 H       1  UNL1        0.1564
     11 C           4.1766  -11.9560   27.5229 C.ar    1  UNL1        0.0525
     12 C           4.3148  -13.1430   26.6163 C.ar    1  UNL1        0.0156
     13 C           3.5350  -14.3938   26.8942 C.ar    1  UNL1        0.0135
     14 C           2.6170  -14.4577   28.0787 C.ar    1  UNL1        0.0683
     15 CL          1.8371  -15.7086   28.3566 Cl      1  UNL1       -0.0814
     16 C           2.4787  -13.2707   28.9853 C.ar    1  UNL1        0.0694
     17 CL          1.5606  -13.3346   30.1698 Cl      1  UNL1       -0.0813
     18 C           3.2585  -12.0199   28.7074 C.ar    1  UNL1        0.0270
     19 C           9.5360   -5.6380   26.4693 C.3     1  UNL1        0.0735
     20 C           8.9773   -4.5952   25.5472 C.3     1  UNL1        0.0320
     21 C           8.1886   -3.4469   26.1036 C.3     1  UNL1        0.0042
     22 C           7.6299   -2.4041   25.1815 C.3     1  UNL1        0.0174
     23 C           7.8598   -2.5095   23.7029 C.3     1  UNL1        0.0720
     24 N           8.6485   -3.6577   23.1465 N.3     1  UNL1       -0.2739
     25 C           9.2072   -4.7005   24.0687 C.3     1  UNL1        0.0734
     26 C           8.8785   -3.7631   21.6680 C.3     1  UNL1        0.0576
     27 C           9.5214   -4.4486   20.4990 C.3     1  UNL1        0.0173
     28 C           8.6338   -3.2601   20.2762 C.3     1  UNL1        0.0173
@<TRIPOS>BOND
     1     1     2    2
     2     2     3   am
     3     3    11    1
     4    11    12   ar
     5    12    13   ar
     6    13    14   ar
     7    14    15    1
     8    14    16   ar
     9    16    17    1
    10    16    18   ar
    11     2     4   am
    12     4     5    1
    13     5     6    1
    14     6     7    1
    15     7    19    1
    16    20    19    1
    17    20    21    1
    18    21    22    1
    19    22    23    1
    20    23    24    1
    21    24    26    1
    22    26    27    1
    23    27    28    1
    24    24    25    1
    25     7     8    1
    26     8     9    1
    27    18    11   ar
    28     9     4    1
    29    25    20    1
    30    28    26    1
    31     3    10    1
@<TRIPOS>MOLECULE
*****
 28 31 0 0 0
SMALL
GASTEIGER

@<TRIPOS>ATOM
      1 O           7.3892   -0.4079   32.8620 O.2     1  UNL1       -0.2522
      2 C           6.6578   -1.7166   32.8112 C.2     1  UNL1        0.3078
      3 N           5.3021   -1.8430   33.4405 N.am    1  UNL1       -0.2681
      4 N           7.2822   -2.8988   32.1311 N.am    1  UNL1       -0.2611
      5 C           8.6379   -2.7724   31.5018 C.3     1  UNL1        0.1123
      6 C           9.2622   -3.9547   30.8218 C.3     1  UNL1        0.0940
      7 N           8.5308   -5.2633   30.7710 N.3     1  UNL1       -0.2697
      8 C           7.1751   -5.3897   31.4003 C.3     1  UNL1        0.0940
      9 C           6.5508   -4.2075   32.0803 C.3     1  UNL1        0.1123
     10 H           4.8221   -2.7019   33.4071 H       1  UNL1        0.1564
     11 C           4.6777   -0.6607   34.1206 C.ar    1  UNL1        0.0525
     12 C           3.8349    0.2986   33.3335 C.ar    1  UNL1        0.0156
     13 C           3.2106    1.4807   34.0136 C.ar    1  UNL1        0.0135
     14 C           3.4290    1.7037   35.4808 C.ar    1  UNL1        0.0683
     15 CL          2.8046    2.8859   36.1609 Cl      1  UNL1       -0.0814
     16 C           4.2718    0.7444   36.2679 C.ar    1  UNL1        0.0694
     17 CL          4.4903    0.9674   37.7350 Cl      1  UNL1       -0.0813
     18 C           4.8961   -0.4378   35.5878 C.ar    1  UNL1        0.0270
     19 C           9.1552   -6.4456   30.0909 C.3     1  UNL1        0.0735
     20 C           8.6988   -6.8498   28.7204 C.3     1  UNL1        0.0320
     21 C           8.7113   -8.2958   28.3219 C.3     1  UNL1        0.0042
     22 C           8.2549   -8.7000   26.9514 C.3     1  UNL1        0.0174
     23 C           7.7861   -7.6582   25.9793 C.3     1  UNL1        0.0720
     24 N           7.7736   -6.2122   26.3779 N.3     1  UNL1       -0.2739
     25 C           8.2300   -5.8080   27.7484 C.3     1  UNL1        0.0734
     26 C           7.3048   -5.1703   25.4059 C.3     1  UNL1        0.0576
     27 C           6.5346   -3.9160   25.1172 C.3     1  UNL1        0.0173
     28 C           7.2629   -4.6203   24.0110 C.3     1  UNL1        0.0173
@<TRIPOS>BOND
     1     1     2    2
     2     2     3   am
     3     3    11    1
     4    11    12   ar
     5    12    13   ar
     6    13    14   ar
     7    14    15    1
     8    14    16   ar
     9    16    17    1
    10    16    18   ar
    11     2     4   am
    12     4     5    1
    13     5     6    1
    14     6     7    1
    15     7    19    1
    16    20    19    1
    17    20    21    1
    18    21    22    1
    19    22    23    1
    20    23    24    1
    21    24    26    1
    22    26    27    1
    23    27    28    1
    24    24    25    1
    25     7     8    1
    26     8     9    1
    27    18    11   ar
    28     9     4    1
    29    25    20    1
    30    28    26    1
    31     3    10    1
