@<TRIPOS>MOLECULE
*****
 28 31 0 0 0
SMALL
GASTEIGER

@<TRIPOS>ATOM
      1 C          -4.3523  -16.6954   23.7103 C.ar    1  UNL1        0.0192
      2 C          -5.3388  -15.5753   23.5612 C.ar    1  UNL1        0.0047
      3 C          -6.0419  -15.0294   24.7685 C.ar    1  UNL1        0.0369
      4 C          -5.7586  -15.6038   26.1250 C.ar    1  UNL1        0.1386
      5 C          -4.7722  -16.7238   26.2741 C.ar    1  UNL1        0.0369
      6 C          -4.0690  -17.2696   25.0668 C.ar    1  UNL1        0.0047
      7 C          -0.4210  -16.4948   20.3185 C.3     1  UNL1        0.1571
      8 N          -1.6835  -17.1410   20.8071 N.ar    1  UNL1       -0.2149
      9 N          -2.3867  -16.5951   22.0144 N.ar    1  UNL1       -0.1671
     10 C          -3.6491  -17.2412   22.5030 C.ar    1  UNL1        0.0968
     11 C          -4.2084  -18.4332   21.7843 C.ar    1  UNL1       -0.0022
     12 C          -3.5052  -18.9790   20.5770 C.ar    1  UNL1        0.0329
     13 C          -2.2427  -18.3328   20.0884 C.ar    1  UNL1        0.2721
     14 O          -1.5396  -18.8787   18.8811 O.2     1  UNL1       -0.2659
     15 C          -4.0645  -20.1709   19.8583 C.3     1  UNL1        0.0310
     16 C          -5.3269  -20.8170   20.3469 C.3     1  UNL1        0.0052
     17 C          -6.0301  -20.2711   21.5542 C.3     1  UNL1        0.0051
     18 C          -5.4709  -19.0792   22.2729 C.3     1  UNL1        0.0278
     19 O          -6.4618  -15.0579   27.3323 O.3     1  UNL1       -0.4754
     20 C          -7.9092  -15.3758   27.5648 C.3     1  UNL1        0.2068
     21 C          -8.5360  -16.5574   26.8859 C.3     1  UNL1        0.0646
     22 C          -9.1009  -16.4156   25.5036 C.3     1  UNL1        0.0759
     23 N          -9.3647  -17.6361   24.6724 N.3     1  UNL1       -0.2726
     24 C         -10.0211  -18.8358   25.2887 C.3     1  UNL1        0.0721
     25 C         -10.2849  -20.0562   24.4575 C.3     1  UNL1        0.0174
     26 C          -9.8924  -20.0770   23.0100 C.3     1  UNL1        0.0029
     27 C          -9.2360  -18.8773   22.3936 C.3     1  UNL1        0.0174
     28 C          -8.9722  -17.6568   23.2249 C.3     1  UNL1        0.0721
@<TRIPOS>BOND
     1     7     8    1
     2     8     9   ar
     3     9    10   ar
     4    10     1    1
     5     1     2   ar
     6     2     3   ar
     7     3     4   ar
     8     4    19    1
     9    19    20    1
    10    20    21    1
    11    21    22    1
    12    22    23    1
    13    23    24    1
    14    24    25    1
    15    25    26    1
    16    26    27    1
    17    27    28    1
    18     4     5   ar
    19     5     6   ar
    20    10    11   ar
    21    11    12   ar
    22    12    13   ar
    23    13    14    2
    24    12    15    1
    25    15    16    1
    26    16    17    1
    27    17    18    1
    28    13     8   ar
    29     6     1   ar
    30    18    11    1
    31    28    23    1
@<TRIPOS>MOLECULE
*****
 28 31 0 0 0
SMALL
GASTEIGER

@<TRIPOS>ATOM
      1 C         -14.6392   -6.7007   18.5465 C.ar    1  UNL1        0.0192
      2 C         -15.5242   -7.1493   19.6715 C.ar    1  UNL1        0.0047
      3 C         -16.3343   -8.4042   19.5339 C.ar    1  UNL1        0.0369
      4 C         -16.2594   -9.2105   18.2712 C.ar    1  UNL1        0.1386
      5 C         -15.3744   -8.7620   17.1463 C.ar    1  UNL1        0.0369
      6 C         -14.5643   -7.5071   17.2839 C.ar    1  UNL1        0.0047
      7 C         -14.3856   -1.5207   18.8668 C.3     1  UNL1        0.1571
      8 N         -13.7022   -2.8558   18.8443 N.ar    1  UNL1       -0.2149
      9 N         -14.5123   -4.1107   18.7067 N.ar    1  UNL1       -0.1671
     10 C         -13.8291   -5.4458   18.6842 C.ar    1  UNL1        0.0968
     11 C         -12.3356   -5.5261   18.7994 C.ar    1  UNL1       -0.0022
     12 C         -11.5255   -4.2712   18.9370 C.ar    1  UNL1        0.0329
     13 C         -12.2088   -2.9360   18.9595 C.ar    1  UNL1        0.2721
     14 O         -11.3987   -1.6811   19.0971 O.2     1  UNL1       -0.2659
     15 C         -10.0321   -4.3514   19.0522 C.3     1  UNL1        0.0310
     16 C          -9.3488   -5.6866   19.0297 C.3     1  UNL1        0.0052
     17 C         -10.1589   -6.9415   18.8921 C.3     1  UNL1        0.0051
     18 C         -11.6523   -6.8612   18.7769 C.3     1  UNL1        0.0278
     19 O         -17.0695  -10.4654   18.1336 O.3     1  UNL1       -0.4754
     20 C         -18.5671  -10.3905   18.0918 C.3     1  UNL1        0.2068
     21 C         -19.2572   -9.8455   16.8766 C.3     1  UNL1        0.0646
     22 C         -20.0398   -8.5691   16.9677 C.3     1  UNL1        0.0759
     23 N         -19.4014   -7.3369   17.5371 N.3     1  UNL1       -0.2726
     24 C         -19.7401   -6.8917   18.9289 C.3     1  UNL1        0.0721
     25 C         -19.1017   -5.6595   19.4983 C.3     1  UNL1        0.0174
     26 C         -18.1247   -4.8726   18.6760 C.3     1  UNL1        0.0029
     27 C         -17.7861   -5.3179   17.2843 C.3     1  UNL1        0.0174
     28 C         -18.4244   -6.5501   16.7148 C.3     1  UNL1        0.0721
@<TRIPOS>BOND
     1     7     8    1
     2     8     9   ar
     3     9    10   ar
     4    10     1    1
     5     1     2   ar
     6     2     3   ar
     7     3     4   ar
     8     4    19    1
     9    19    20    1
    10    20    21    1
    11    21    22    1
    12    22    23    1
    13    23    24    1
    14    24    25    1
    15    25    26    1
    16    26    27    1
    17    27    28    1
    18     4     5   ar
    19     5     6   ar
    20    10    11   ar
    21    11    12   ar
    22    12    13   ar
    23    13    14    2
    24    12    15    1
    25    15    16    1
    26    16    17    1
    27    17    18    1
    28    13     8   ar
    29     6     1   ar
    30    18    11    1
    31    28    23    1
@<TRIPOS>MOLECULE
*****
 28 31 0 0 0
SMALL
GASTEIGER

@<TRIPOS>ATOM
      1 C          -4.8046  -17.2259   23.4965 C.ar    1  UNL1        0.0192
      2 C          -5.7685  -16.0920   23.3082 C.ar    1  UNL1        0.0047
      3 C          -6.1249  -15.2102   24.4681 C.ar    1  UNL1        0.0369
      4 C          -5.5175  -15.4623   25.8163 C.ar    1  UNL1        0.1386
      5 C          -4.5537  -16.5961   26.0046 C.ar    1  UNL1        0.0369
      6 C          -4.1973  -17.4779   24.8447 C.ar    1  UNL1        0.0047
      7 C          -5.8788  -21.2804   20.4294 C.3     1  UNL1        0.1571
      8 N          -4.9853  -20.1349   20.8030 N.ar    1  UNL1       -0.2149
      9 N          -5.3417  -19.2531   21.9630 N.ar    1  UNL1       -0.1671
     10 C          -4.4482  -18.1077   22.3366 C.ar    1  UNL1        0.0968
     11 C          -3.1983  -17.8440   21.5503 C.ar    1  UNL1       -0.0022
     12 C          -2.8418  -18.7258   20.3904 C.ar    1  UNL1        0.0329
     13 C          -3.7354  -19.8713   20.0168 C.ar    1  UNL1        0.2721
     14 O          -3.3789  -20.7531   18.8569 O.2     1  UNL1       -0.2659
     15 C          -1.5919  -18.4622   19.6042 C.3     1  UNL1        0.0310
     16 C          -0.6985  -17.3168   19.9778 C.3     1  UNL1        0.0052
     17 C          -1.0549  -16.4350   21.1377 C.3     1  UNL1        0.0051
     18 C          -2.3048  -16.6986   21.9240 C.3     1  UNL1        0.0278
     19 O          -5.8739  -14.5805   26.9762 O.3     1  UNL1       -0.4754
     20 C          -7.0324  -14.9360   27.8604 C.3     1  UNL1        0.2068
     21 C          -8.3211  -15.4076   27.2548 C.3     1  UNL1        0.0646
     22 C          -8.4851  -16.8473   26.8673 C.3     1  UNL1        0.0759
     23 N          -9.2233  -17.2068   25.6120 N.3     1  UNL1       -0.2726
     24 C          -9.8349  -18.5686   25.4654 C.3     1  UNL1        0.0721
     25 C         -10.5731  -18.9280   24.2101 C.3     1  UNL1        0.0174
     26 C         -10.6997  -17.9257   23.1014 C.3     1  UNL1        0.0029
     27 C         -10.0881  -16.5640   23.2480 C.3     1  UNL1        0.0174
     28 C          -9.3499  -16.2045   24.5033 C.3     1  UNL1        0.0721
@<TRIPOS>BOND
     1     7     8    1
     2     8     9   ar
     3     9    10   ar
     4    10     1    1
     5     1     2   ar
     6     2     3   ar
     7     3     4   ar
     8     4    19    1
     9    19    20    1
    10    20    21    1
    11    21    22    1
    12    22    23    1
    13    23    24    1
    14    24    25    1
    15    25    26    1
    16    26    27    1
    17    27    28    1
    18     4     5   ar
    19     5     6   ar
    20    10    11   ar
    21    11    12   ar
    22    12    13   ar
    23    13    14    2
    24    12    15    1
    25    15    16    1
    26    16    17    1
    27    17    18    1
    28    13     8   ar
    29     6     1   ar
    30    18    11    1
    31    28    23    1
@<TRIPOS>MOLECULE
*****
 28 31 0 0 0
SMALL
GASTEIGER

@<TRIPOS>ATOM
      1 C          -7.8514  -18.8196   21.1525 C.ar    1  UNL1        0.0192
      2 C          -6.7811  -18.5505   22.1685 C.ar    1  UNL1        0.0047
      3 C          -5.4095  -19.1290   21.9840 C.ar    1  UNL1        0.0369
      4 C          -5.1082  -19.9766   20.7836 C.ar    1  UNL1        0.1386
      5 C          -6.1785  -20.2457   19.7678 C.ar    1  UNL1        0.0369
      6 C          -7.5501  -19.6671   19.9522 C.ar    1  UNL1        0.0047
      7 C         -11.7436  -15.8335   19.4395 C.3     1  UNL1        0.1571
      8 N         -11.1691  -16.7481   20.4805 N.ar    1  UNL1       -0.2149
      9 N          -9.7975  -17.3266   20.2961 N.ar    1  UNL1       -0.1671
     10 C          -9.2230  -18.2411   21.3370 C.ar    1  UNL1        0.0968
     11 C         -10.0201  -18.5771   22.5625 C.ar    1  UNL1       -0.0022
     12 C         -11.3917  -17.9985   22.7470 C.ar    1  UNL1        0.0329
     13 C         -11.9662  -17.0840   21.7060 C.ar    1  UNL1        0.2721
     14 O         -13.3378  -16.5055   21.8904 O.2     1  UNL1       -0.2659
     15 C         -12.1888  -18.3345   23.9724 C.3     1  UNL1        0.0310
     16 C         -11.6143  -19.2490   25.0134 C.3     1  UNL1        0.0052
     17 C         -10.2427  -19.8275   24.8289 C.3     1  UNL1        0.0051
     18 C          -9.4456  -19.4915   23.6035 C.3     1  UNL1        0.0278
     19 O          -3.7366  -20.5552   20.5991 O.3     1  UNL1       -0.4754
     20 C          -2.5252  -19.7268   20.9098 C.3     1  UNL1        0.2068
     21 C          -2.4709  -18.2891   20.4856 C.3     1  UNL1        0.0646
     22 C          -2.1009  -17.2275   21.4786 C.3     1  UNL1        0.0759
     23 N          -3.0387  -16.8894   22.5995 N.3     1  UNL1       -0.2726
     24 C          -3.0923  -17.7589   23.8206 C.3     1  UNL1        0.0721
     25 C          -4.0300  -17.4208   24.9414 C.3     1  UNL1        0.0174
     26 C          -4.9142  -16.2133   24.8411 C.3     1  UNL1        0.0029
     27 C          -4.8606  -15.3439   23.6200 C.3     1  UNL1        0.0174
     28 C          -3.9229  -15.6819   22.4992 C.3     1  UNL1        0.0721
@<TRIPOS>BOND
     1     7     8    1
     2     8     9   ar
     3     9    10   ar
     4    10     1    1
     5     1     2   ar
     6     2     3   ar
     7     3     4   ar
     8     4    19    1
     9    19    20    1
    10    20    21    1
    11    21    22    1
    12    22    23    1
    13    23    24    1
    14    24    25    1
    15    25    26    1
    16    26    27    1
    17    27    28    1
    18     4     5   ar
    19     5     6   ar
    20    10    11   ar
    21    11    12   ar
    22    12    13   ar
    23    13    14    2
    24    12    15    1
    25    15    16    1
    26    16    17    1
    27    17    18    1
    28    13     8   ar
    29     6     1   ar
    30    18    11    1
    31    28    23    1
@<TRIPOS>MOLECULE
*****
 28 31 0 0 0
SMALL
GASTEIGER

@<TRIPOS>ATOM
      1 C         -14.4010   -3.0029   18.6896 C.ar    1  UNL1        0.0192
      2 C         -13.6523   -3.7083   19.7814 C.ar    1  UNL1        0.0047
      3 C         -13.8591   -5.1771   20.0047 C.ar    1  UNL1        0.0369
      4 C         -14.8145   -5.9405   19.1361 C.ar    1  UNL1        0.1386
      5 C         -15.5631   -5.2352   18.0443 C.ar    1  UNL1        0.0369
      6 C         -15.3564   -3.7664   17.8210 C.ar    1  UNL1        0.0047
      7 C         -11.7000    0.8875   16.5518 C.3     1  UNL1        0.1571
      8 N         -12.8438    0.4111   17.3974 N.ar    1  UNL1       -0.2149
      9 N         -13.0505   -1.0577   17.6207 N.ar    1  UNL1       -0.1671
     10 C         -14.1942   -1.5341   18.4663 C.ar    1  UNL1        0.0968
     11 C         -15.1312   -0.5417   19.0887 C.ar    1  UNL1       -0.0022
     12 C         -14.9244    0.9271   18.8654 C.ar    1  UNL1        0.0329
     13 C         -13.7806    1.4035   18.0198 C.ar    1  UNL1        0.2721
     14 O         -13.5739    2.8723   17.7965 O.2     1  UNL1       -0.2659
     15 C         -15.8613    1.9196   19.4877 C.3     1  UNL1        0.0310
     16 C         -17.0049    1.4432   20.3333 C.3     1  UNL1        0.0052
     17 C         -17.2117   -0.0256   20.5565 C.3     1  UNL1        0.0051
     18 C         -16.2748   -1.0181   19.9342 C.3     1  UNL1        0.0278
     19 O         -15.0213   -7.4093   19.3594 O.3     1  UNL1       -0.4754
     20 C         -14.3539   -8.4061   18.4587 C.3     1  UNL1        0.2068
     21 C         -13.5383   -7.9342   17.2916 C.3     1  UNL1        0.0646
     22 C         -12.0484   -7.8152   17.4171 C.3     1  UNL1        0.0759
     23 N         -11.4235   -6.4808   17.6977 N.3     1  UNL1       -0.2726
     24 C         -10.4671   -6.3264   18.8429 C.3     1  UNL1        0.0721
     25 C          -9.8423   -4.9919   19.1236 C.3     1  UNL1        0.0174
     26 C         -10.1737   -3.8119   18.2590 C.3     1  UNL1        0.0029
     27 C         -11.1301   -3.9662   17.1138 C.3     1  UNL1        0.0174
     28 C         -11.7549   -5.3007   16.8332 C.3     1  UNL1        0.0721
@<TRIPOS>BOND
     1     7     8    1
     2     8     9   ar
     3     9    10   ar
     4    10     1    1
     5     1     2   ar
     6     2     3   ar
     7     3     4   ar
     8     4    19    1
     9    19    20    1
    10    20    21    1
    11    21    22    1
    12    22    23    1
    13    23    24    1
    14    24    25    1
    15    25    26    1
    16    26    27    1
    17    27    28    1
    18     4     5   ar
    19     5     6   ar
    20    10    11   ar
    21    11    12   ar
    22    12    13   ar
    23    13    14    2
    24    12    15    1
    25    15    16    1
    26    16    17    1
    27    17    18    1
    28    13     8   ar
    29     6     1   ar
    30    18    11    1
    31    28    23    1
@<TRIPOS>MOLECULE
*****
 28 31 0 0 0
SMALL
GASTEIGER

@<TRIPOS>ATOM
      1 C          -4.4564  -16.8258   23.4898 C.ar    1  UNL1        0.0192
      2 C          -4.1459  -18.2900   23.3908 C.ar    1  UNL1        0.0047
      3 C          -2.9695  -18.7543   22.5842 C.ar    1  UNL1        0.0369
      4 C          -2.1037  -17.7543   21.8765 C.ar    1  UNL1        0.1386
      5 C          -2.4143  -16.2902   21.9756 C.ar    1  UNL1        0.0369
      6 C          -3.5907  -15.8260   22.7822 C.ar    1  UNL1        0.0047
      7 C          -6.3776  -14.5817   27.7645 C.3     1  UNL1        0.1571
      8 N          -6.5934  -15.2395   26.4337 N.ar    1  UNL1       -0.2149
      9 N          -5.4171  -15.7038   25.6271 N.ar    1  UNL1       -0.1671
     10 C          -5.6328  -16.3615   24.2964 C.ar    1  UNL1        0.0968
     11 C          -7.0249  -16.5550   23.7723 C.ar    1  UNL1       -0.0022
     12 C          -8.2013  -16.0907   24.5789 C.ar    1  UNL1        0.0329
     13 C          -7.9855  -15.4330   25.9097 C.ar    1  UNL1        0.2721
     14 O          -9.1618  -14.9687   26.7163 O.2     1  UNL1       -0.2659
     15 C          -9.5933  -16.2842   24.0549 C.3     1  UNL1        0.0310
     16 C          -9.8090  -16.9420   22.7242 C.3     1  UNL1        0.0052
     17 C          -8.6327  -17.4062   21.9175 C.3     1  UNL1        0.0051
     18 C          -7.2406  -17.2128   22.4416 C.3     1  UNL1        0.0278
     19 O          -0.9274  -18.2186   21.0699 O.3     1  UNL1       -0.4754
     20 C          -0.6987  -17.6697   19.6927 C.3     1  UNL1        0.2068
     21 C          -1.6585  -17.9949   18.5869 C.3     1  UNL1        0.0646
     22 C          -3.1279  -17.7602   18.7759 C.3     1  UNL1        0.0759
     23 N          -4.0022  -18.8613   19.2987 N.3     1  UNL1       -0.2726
     24 C          -5.4161  -18.5678   19.7042 C.3     1  UNL1        0.0721
     25 C          -6.2903  -19.6689   20.2271 C.3     1  UNL1        0.0174
     26 C          -5.7506  -21.0635   20.3444 C.3     1  UNL1        0.0029
     27 C          -4.3366  -21.3570   19.9389 C.3     1  UNL1        0.0174
     28 C          -3.4624  -20.2559   19.4160 C.3     1  UNL1        0.0721
@<TRIPOS>BOND
     1     7     8    1
     2     8     9   ar
     3     9    10   ar
     4    10     1    1
     5     1     2   ar
     6     2     3   ar
     7     3     4   ar
     8     4    19    1
     9    19    20    1
    10    20    21    1
    11    21    22    1
    12    22    23    1
    13    23    24    1
    14    24    25    1
    15    25    26    1
    16    26    27    1
    17    27    28    1
    18     4     5   ar
    19     5     6   ar
    20    10    11   ar
    21    11    12   ar
    22    12    13   ar
    23    13    14    2
    24    12    15    1
    25    15    16    1
    26    16    17    1
    27    17    18    1
    28    13     8   ar
    29     6     1   ar
    30    18    11    1
    31    28    23    1
@<TRIPOS>MOLECULE
*****
 28 31 0 0 0
SMALL
GASTEIGER

@<TRIPOS>ATOM
      1 C           7.0610   -3.6088   21.4298 C.ar    1  UNL1        0.0192
      2 C           5.8014   -3.7991   20.6377 C.ar    1  UNL1        0.0047
      3 C           5.6626   -3.1645   19.2856 C.ar    1  UNL1        0.0369
      4 C           6.7835   -2.3397   18.7257 C.ar    1  UNL1        0.1386
      5 C           8.0429   -2.1494   19.5178 C.ar    1  UNL1        0.0369
      6 C           8.1817   -2.7840   20.8698 C.ar    1  UNL1        0.0047
      7 C           8.4703   -7.6450   24.3832 C.3     1  UNL1        0.1571
      8 N           7.9044   -6.2614   24.2586 N.ar    1  UNL1       -0.2149
      9 N           7.7656   -5.6269   22.9065 N.ar    1  UNL1       -0.1671
     10 C           7.1997   -4.2434   22.7819 C.ar    1  UNL1        0.0968
     11 C           6.7726   -3.4943   24.0093 C.ar    1  UNL1       -0.0022
     12 C           6.9113   -4.1289   25.3614 C.ar    1  UNL1        0.0329
     13 C           7.4772   -5.5125   25.4860 C.ar    1  UNL1        0.2721
     14 O           7.6160   -6.1470   26.8381 O.2     1  UNL1       -0.2659
     15 C           6.4842   -3.3799   26.5888 C.3     1  UNL1        0.0310
     16 C           5.9183   -1.9964   26.4641 C.3     1  UNL1        0.0052
     17 C           5.7795   -1.3618   25.1120 C.3     1  UNL1        0.0051
     18 C           6.2067   -2.1108   23.8846 C.3     1  UNL1        0.0278
     19 O           6.6447   -1.7051   17.3736 O.3     1  UNL1       -0.4754
     20 C           6.7482   -0.2155   17.2300 C.3     1  UNL1        0.2068
     21 C           5.5349    0.5892   16.8688 C.3     1  UNL1        0.0646
     22 C           4.7118    1.2300   17.9466 C.3     1  UNL1        0.0759
     23 N           4.2005    0.4051   19.0904 N.3     1  UNL1       -0.2726
     24 C           4.8588    0.4977   20.4350 C.3     1  UNL1        0.0721
     25 C           4.3475   -0.3272   21.5788 C.3     1  UNL1        0.0174
     26 C           3.1780   -1.2447   21.3779 C.3     1  UNL1        0.0029
     27 C           2.5198   -1.3373   20.0333 C.3     1  UNL1        0.0174
     28 C           3.0310   -0.5124   18.8895 C.3     1  UNL1        0.0721
@<TRIPOS>BOND
     1     7     8    1
     2     8     9   ar
     3     9    10   ar
     4    10     1    1
     5     1     2   ar
     6     2     3   ar
     7     3     4   ar
     8     4    19    1
     9    19    20    1
    10    20    21    1
    11    21    22    1
    12    22    23    1
    13    23    24    1
    14    24    25    1
    15    25    26    1
    16    26    27    1
    17    27    28    1
    18     4     5   ar
    19     5     6   ar
    20    10    11   ar
    21    11    12   ar
    22    12    13   ar
    23    13    14    2
    24    12    15    1
    25    15    16    1
    26    16    17    1
    27    17    18    1
    28    13     8   ar
    29     6     1   ar
    30    18    11    1
    31    28    23    1
@<TRIPOS>MOLECULE
*****
 28 31 0 0 0
SMALL
GASTEIGER

@<TRIPOS>ATOM
      1 C           6.9934   -3.2515   21.8446 C.ar    1  UNL1        0.0192
      2 C           5.8444   -3.6356   20.9601 C.ar    1  UNL1        0.0047
      3 C           5.8126   -3.1795   19.5315 C.ar    1  UNL1        0.0369
      4 C           6.9298   -2.3394   18.9873 C.ar    1  UNL1        0.1386
      5 C           8.0788   -1.9554   19.8718 C.ar    1  UNL1        0.0369
      6 C           8.1106   -2.4114   21.3004 C.ar    1  UNL1        0.0047
      7 C           5.8248   -2.4656   26.8463 C.3     1  UNL1        0.1571
      8 N           6.4410   -3.3146   25.7741 N.ar    1  UNL1       -0.2149
      9 N           6.4092   -2.8586   24.3454 N.ar    1  UNL1       -0.1671
     10 C           7.0253   -3.7075   23.2732 C.ar    1  UNL1        0.0968
     11 C           7.6733   -5.0126   23.6296 C.ar    1  UNL1       -0.0022
     12 C           7.7051   -5.4687   25.0583 C.ar    1  UNL1        0.0329
     13 C           7.0889   -4.6196   26.1305 C.ar    1  UNL1        0.2721
     14 O           7.1208   -5.0757   27.5591 O.2     1  UNL1       -0.2659
     15 C           8.3530   -6.7737   25.4147 C.3     1  UNL1        0.0310
     16 C           8.9691   -7.6226   24.3425 C.3     1  UNL1        0.0052
     17 C           8.9373   -7.1666   22.9139 C.3     1  UNL1        0.0051
     18 C           8.2894   -5.8616   22.5575 C.3     1  UNL1        0.0278
     19 O           6.8980   -1.8834   17.5587 O.3     1  UNL1       -0.4754
     20 C           6.4914   -0.4776   17.2290 C.3     1  UNL1        0.2068
     21 C           5.0436   -0.0871   17.2668 C.3     1  UNL1        0.0646
     22 C           4.5298    0.7815   18.3765 C.3     1  UNL1        0.0759
     23 N           4.2927    0.1975   19.7377 N.3     1  UNL1       -0.2726
     24 C           5.2817    0.4378   20.8395 C.3     1  UNL1        0.0721
     25 C           5.0446   -0.1461   22.2007 C.3     1  UNL1        0.0174
     26 C           3.8186   -0.9705   22.4600 C.3     1  UNL1        0.0029
     27 C           2.8296   -1.2108   21.3581 C.3     1  UNL1        0.0174
     28 C           3.0667   -0.6269   19.9970 C.3     1  UNL1        0.0721
@<TRIPOS>BOND
     1     7     8    1
     2     8     9   ar
     3     9    10   ar
     4    10     1    1
     5     1     2   ar
     6     2     3   ar
     7     3     4   ar
     8     4    19    1
     9    19    20    1
    10    20    21    1
    11    21    22    1
    12    22    23    1
    13    23    24    1
    14    24    25    1
    15    25    26    1
    16    26    27    1
    17    27    28    1
    18     4     5   ar
    19     5     6   ar
    20    10    11   ar
    21    11    12   ar
    22    12    13   ar
    23    13    14    2
    24    12    15    1
    25    15    16    1
    26    16    17    1
    27    17    18    1
    28    13     8   ar
    29     6     1   ar
    30    18    11    1
    31    28    23    1
@<TRIPOS>MOLECULE
*****
 28 31 0 0 0
SMALL
GASTEIGER

@<TRIPOS>ATOM
      1 C           1.0364    1.0852   20.7220 C.ar    1  UNL1        0.0192
      2 C           1.7860    1.3144   22.0009 C.ar    1  UNL1        0.0047
      3 C           2.7176    0.2612   22.5233 C.ar    1  UNL1        0.0369
      4 C           2.8997   -1.0212   21.7666 C.ar    1  UNL1        0.1386
      5 C           2.1501   -1.2504   20.4878 C.ar    1  UNL1        0.0369
      6 C           1.2185   -0.1972   19.9654 C.ar    1  UNL1        0.0047
      7 C          -3.7003    3.2135   20.5390 C.3     1  UNL1        0.1571
      8 N          -2.2635    3.2026   20.1081 N.ar    1  UNL1       -0.2149
      9 N          -1.3319    2.1494   20.6304 N.ar    1  UNL1       -0.1671
     10 C           0.1048    2.1384   20.1996 C.ar    1  UNL1        0.0968
     11 C           0.6100    3.1806   19.2464 C.ar    1  UNL1       -0.0022
     12 C          -0.3216    4.2338   18.7240 C.ar    1  UNL1        0.0329
     13 C          -1.7584    4.2448   19.1549 C.ar    1  UNL1        0.2721
     14 O          -2.6900    5.2980   18.6326 O.2     1  UNL1       -0.2659
     15 C           0.1835    5.2760   17.7708 C.3     1  UNL1        0.0310
     16 C           1.6202    5.2650   17.3400 C.3     1  UNL1        0.0052
     17 C           2.5518    4.2118   17.8623 C.3     1  UNL1        0.0051
     18 C           2.0467    3.1696   18.8155 C.3     1  UNL1        0.0278
     19 O           3.8313   -2.0745   22.2890 O.3     1  UNL1       -0.4754
     20 C           4.2870   -3.1854   21.3900 C.3     1  UNL1        0.2068
     21 C           5.7406   -3.3239   21.0465 C.3     1  UNL1        0.0646
     22 C           6.2562   -2.7963   19.7406 C.3     1  UNL1        0.0759
     23 N           5.5222   -1.6953   19.0341 N.3     1  UNL1       -0.2726
     24 C           4.6463   -2.0118   17.8584 C.3     1  UNL1        0.0721
     25 C           3.9123   -0.9108   17.1519 C.3     1  UNL1        0.0174
     26 C           4.0542    0.5067   17.6213 C.3     1  UNL1        0.0029
     27 C           4.9302    0.8233   18.7970 C.3     1  UNL1        0.0174
     28 C           5.6642   -0.2777   19.5035 C.3     1  UNL1        0.0721
@<TRIPOS>BOND
     1     7     8    1
     2     8     9   ar
     3     9    10   ar
     4    10     1    1
     5     1     2   ar
     6     2     3   ar
     7     3     4   ar
     8     4    19    1
     9    19    20    1
    10    20    21    1
    11    21    22    1
    12    22    23    1
    13    23    24    1
    14    24    25    1
    15    25    26    1
    16    26    27    1
    17    27    28    1
    18     4     5   ar
    19     5     6   ar
    20    10    11   ar
    21    11    12   ar
    22    12    13   ar
    23    13    14    2
    24    12    15    1
    25    15    16    1
    26    16    17    1
    27    17    18    1
    28    13     8   ar
    29     6     1   ar
    30    18    11    1
    31    28    23    1
