@<TRIPOS>MOLECULE
*****
 20 22 0 0 0
SMALL
GASTEIGER

@<TRIPOS>ATOM
      1 C          -9.8163  -16.6179   22.0309 C.ar    1  UNL1        0.0253
      2 C         -10.1169  -15.6003   20.9707 C.ar    1  UNL1        0.0993
      3 N         -10.9779  -15.9696   19.7992 N.ar    1  UNL1       -0.2423
      4 C         -11.5382  -17.3566   19.6880 C.ar    1  UNL1        0.0989
      5 C         -11.2376  -18.3742   20.7481 C.ar    1  UNL1        0.0208
      6 C         -10.3767  -18.0049   21.9196 C.ar    1  UNL1        0.0067
      7 C          -7.0184  -15.7507   24.5775 C.ar    1  UNL1        0.0230
      8 C          -8.2427  -15.6100   25.4328 C.ar    1  UNL1        0.0040
      9 C          -9.4397  -15.9177   24.5830 C.ar    1  UNL1        0.0067
     10 C          -8.9554  -16.2486   23.2024 C.ar    1  UNL1        0.0307
     11 S          -7.4589  -16.1454   23.1990 S.2     1  UNL1       -0.0899
     12 N          -5.2747  -14.4135   25.9636 N.3     1  UNL1       -0.3170
     13 C          -5.6024  -15.5346   25.0225 C.3     1  UNL1        0.0987
     14 H          -4.2734  -14.4144   26.1580 H       1  UNL1        0.1192
     15 H          -5.7903  -14.5391   26.8347 H       1  UNL1        0.1192
     16 C         -10.0760  -19.0225   22.9798 C.ar    1  UNL1        0.0409
     17 C         -10.8908  -19.2781   24.2130 C.ar    1  UNL1        0.0438
     18 C         -10.2262  -20.3768   24.9883 C.ar    1  UNL1        0.1798
     19 O          -9.0005  -20.8002   24.2343 O.2     1  UNL1       -0.4473
     20 C          -8.9077  -19.9632   22.9930 C.ar    1  UNL1        0.1797
@<TRIPOS>BOND
     1    12    13    1
     2    13     7    1
     3     7     8   ar
     4     8     9   ar
     5     9    10   ar
     6    10     1    1
     7     1     2   ar
     8     2     3   ar
     9     3     4   ar
    10     4     5   ar
    11     5     6   ar
    12     6    16    1
    13    16    17   ar
    14    17    18   ar
    15    18    19   ar
    16    19    20   ar
    17    10    11   ar
    18    11     7   ar
    19     6     1   ar
    20    20    16   ar
    21    12    14    1
    22    12    15    1
@<TRIPOS>MOLECULE
*****
 20 22 0 0 0
SMALL
GASTEIGER

@<TRIPOS>ATOM
      1 C          -8.5917  -18.9168   21.3447 C.ar    1  UNL1        0.0253
      2 C          -7.3267  -19.6699   21.0573 C.ar    1  UNL1        0.0993
      3 N          -7.1759  -20.4174   19.7657 N.ar    1  UNL1       -0.2423
      4 C          -8.2902  -20.4120   18.7615 C.ar    1  UNL1        0.0989
      5 C          -9.5552  -19.6590   19.0489 C.ar    1  UNL1        0.0208
      6 C          -9.7059  -18.9114   20.3405 C.ar    1  UNL1        0.0067
      7 C          -8.5893  -16.4434   24.3360 C.ar    1  UNL1        0.0230
      8 C          -9.3599  -17.5942   24.9121 C.ar    1  UNL1        0.0040
      9 C          -9.4546  -18.6608   23.8617 C.ar    1  UNL1        0.0067
     10 C          -8.7425  -18.1692   22.6364 C.ar    1  UNL1        0.0307
     11 S          -8.2077  -16.7988   22.9295 S.2     1  UNL1       -0.0899
     12 N          -7.0656  -14.3579   24.6175 N.3     1  UNL1       -0.3170
     13 C          -8.2584  -15.1621   25.0423 C.3     1  UNL1        0.0987
     14 H          -6.9918  -13.5248   25.2013 H       1  UNL1        0.1192
     15 H          -7.1725  -14.0808   23.6417 H       1  UNL1        0.1192
     16 C         -10.9710  -18.1583   20.6280 C.ar    1  UNL1        0.0409
     17 C         -12.0556  -18.5846   21.5724 C.ar    1  UNL1        0.0438
     18 C         -13.1284  -17.5365   21.5496 C.ar    1  UNL1        0.1798
     19 O         -12.7069  -16.4624   20.5910 O.2     1  UNL1       -0.4473
     20 C         -11.3735  -16.8468   20.0215 C.ar    1  UNL1        0.1797
@<TRIPOS>BOND
     1    12    13    1
     2    13     7    1
     3     7     8   ar
     4     8     9   ar
     5     9    10   ar
     6    10     1    1
     7     1     2   ar
     8     2     3   ar
     9     3     4   ar
    10     4     5   ar
    11     5     6   ar
    12     6    16    1
    13    16    17   ar
    14    17    18   ar
    15    18    19   ar
    16    19    20   ar
    17    10    11   ar
    18    11     7   ar
    19     6     1   ar
    20    20    16   ar
    21    12    14    1
    22    12    15    1
@<TRIPOS>MOLECULE
*****
 20 22 0 0 0
SMALL
GASTEIGER

@<TRIPOS>ATOM
      1 C          -9.9741  -18.0261   21.7091 C.ar    1  UNL1        0.0253
      2 C         -11.1176  -18.5389   20.8848 C.ar    1  UNL1        0.0993
      3 N         -12.4347  -17.8214   20.9008 N.ar    1  UNL1       -0.2423
      4 C         -12.6084  -16.5911   21.7411 C.ar    1  UNL1        0.0989
      5 C         -11.4649  -16.0782   22.5653 C.ar    1  UNL1        0.0208
      6 C         -10.1478  -16.7957   22.5493 C.ar    1  UNL1        0.0067
      7 C          -6.4268  -19.4611   21.0588 C.ar    1  UNL1        0.0230
      8 C          -6.8332  -20.2344   22.2783 C.ar    1  UNL1        0.0040
      9 C          -8.2115  -19.7909   22.6702 C.ar    1  UNL1        0.0067
     10 C          -8.6569  -18.7436   21.6931 C.ar    1  UNL1        0.0307
     11 S          -7.5539  -18.5398   20.6972 S.2     1  UNL1       -0.0899
     12 N          -4.6679  -18.4918   19.4106 N.3     1  UNL1       -0.3170
     13 C          -5.1223  -19.5871   20.3292 C.3     1  UNL1        0.0987
     14 H          -3.7674  -18.7422   19.0022 H       1  UNL1        0.1192
     15 H          -4.5726  -17.6237   19.9376 H       1  UNL1        0.1192
     16 C          -9.0043  -16.2829   23.3736 C.ar    1  UNL1        0.0409
     17 C          -8.8200  -16.4853   24.8484 C.ar    1  UNL1        0.0438
     18 C          -7.5461  -15.8051   25.2541 C.ar    1  UNL1        0.1798
     19 O          -6.9430  -15.1823   24.0299 O.2     1  UNL1       -0.4473
     20 C          -7.8442  -15.4776   22.8678 C.ar    1  UNL1        0.1797
@<TRIPOS>BOND
     1    12    13    1
     2    13     7    1
     3     7     8   ar
     4     8     9   ar
     5     9    10   ar
     6    10     1    1
     7     1     2   ar
     8     2     3   ar
     9     3     4   ar
    10     4     5   ar
    11     5     6   ar
    12     6    16    1
    13    16    17   ar
    14    17    18   ar
    15    18    19   ar
    16    19    20   ar
    17    10    11   ar
    18    11     7   ar
    19     6     1   ar
    20    20    16   ar
    21    12    14    1
    22    12    15    1
@<TRIPOS>MOLECULE
*****
 20 22 0 0 0
SMALL
GASTEIGER

@<TRIPOS>ATOM
      1 C         -10.3806  -17.8091   21.0512 C.ar    1  UNL1        0.0253
      2 C         -10.9383  -16.9702   19.9399 C.ar    1  UNL1        0.0993
      3 N         -12.2909  -16.3379   20.0837 N.ar    1  UNL1       -0.2423
      4 C         -13.0857  -16.5445   21.3389 C.ar    1  UNL1        0.0989
      5 C         -12.5280  -17.3834   22.4502 C.ar    1  UNL1        0.0208
      6 C         -11.1755  -18.0157   22.3064 C.ar    1  UNL1        0.0067
      7 C          -6.6865  -18.9848   21.2432 C.ar    1  UNL1        0.0230
      8 C          -7.2066  -19.8442   20.1292 C.ar    1  UNL1        0.0040
      9 C          -8.6538  -19.5083   19.9217 C.ar    1  UNL1        0.0067
     10 C          -9.0280  -18.4414   20.9075 C.ar    1  UNL1        0.0307
     11 S          -7.8121  -18.1178   21.7241 S.2     1  UNL1       -0.0899
     12 N          -4.1429  -18.5793   20.9026 N.3     1  UNL1       -0.3170
     13 C          -5.2864  -18.9912   21.7816 C.3     1  UNL1        0.0987
     14 H          -3.2706  -18.6431   21.4273 H       1  UNL1        0.1192
     15 H          -4.2827  -17.6181   20.5910 H       1  UNL1        0.1192
     16 C         -10.6177  -18.8546   23.4178 C.ar    1  UNL1        0.0409
     17 C         -10.4213  -20.3414   23.3870 C.ar    1  UNL1        0.0438
     18 C          -9.8406  -20.7597   24.7053 C.ar    1  UNL1        0.1798
     19 O          -9.6782  -19.5314   25.5509 O.2     1  UNL1       -0.4473
     20 C         -10.1584  -18.3540   24.7552 C.ar    1  UNL1        0.1797
@<TRIPOS>BOND
     1    12    13    1
     2    13     7    1
     3     7     8   ar
     4     8     9   ar
     5     9    10   ar
     6    10     1    1
     7     1     2   ar
     8     2     3   ar
     9     3     4   ar
    10     4     5   ar
    11     5     6   ar
    12     6    16    1
    13    16    17   ar
    14    17    18   ar
    15    18    19   ar
    16    19    20   ar
    17    10    11   ar
    18    11     7   ar
    19     6     1   ar
    20    20    16   ar
    21    12    14    1
    22    12    15    1
@<TRIPOS>MOLECULE
*****
 20 22 0 0 0
SMALL
GASTEIGER

@<TRIPOS>ATOM
      1 C          -8.5778  -17.9036   21.5957 C.ar    1  UNL1        0.0253
      2 C          -7.3947  -18.5021   20.8943 C.ar    1  UNL1        0.0993
      3 N          -7.5991  -19.3834   19.6978 N.ar    1  UNL1       -0.2423
      4 C          -8.9865  -19.6662   19.2028 C.ar    1  UNL1        0.0989
      5 C         -10.1696  -19.0677   19.9043 C.ar    1  UNL1        0.0208
      6 C          -9.9652  -18.1864   21.1007 C.ar    1  UNL1        0.0067
      7 C          -8.2924  -16.2203   25.0815 C.ar    1  UNL1        0.0230
      8 C          -7.8256  -15.1118   24.1852 C.ar    1  UNL1        0.0040
      9 C          -7.8757  -15.6074   22.7704 C.ar    1  UNL1        0.0067
     10 C          -8.3735  -17.0223   22.7922 C.ar    1  UNL1        0.0307
     11 S          -8.6310  -17.4011   24.2205 S.2     1  UNL1       -0.0899
     12 N          -7.9906  -14.9155   27.3078 N.3     1  UNL1       -0.3170
     13 C          -8.4015  -16.1589   26.5763 C.3     1  UNL1        0.0987
     14 H          -8.1303  -15.0484   28.3094 H       1  UNL1        0.1192
     15 H          -8.5562  -14.1296   26.9869 H       1  UNL1        0.1192
     16 C         -11.1483  -17.5879   21.8022 C.ar    1  UNL1        0.0409
     17 C         -12.0731  -18.3055   22.7401 C.ar    1  UNL1        0.0438
     18 C         -13.1107  -17.3278   23.2065 C.ar    1  UNL1        0.1798
     19 O         -12.8271  -16.0058   22.5568 O.2     1  UNL1       -0.4473
     20 C         -11.6143  -16.1666   21.6889 C.ar    1  UNL1        0.1797
@<TRIPOS>BOND
     1    12    13    1
     2    13     7    1
     3     7     8   ar
     4     8     9   ar
     5     9    10   ar
     6    10     1    1
     7     1     2   ar
     8     2     3   ar
     9     3     4   ar
    10     4     5   ar
    11     5     6   ar
    12     6    16    1
    13    16    17   ar
    14    17    18   ar
    15    18    19   ar
    16    19    20   ar
    17    10    11   ar
    18    11     7   ar
    19     6     1   ar
    20    20    16   ar
    21    12    14    1
    22    12    15    1
@<TRIPOS>MOLECULE
*****
 20 22 0 0 0
SMALL
GASTEIGER

@<TRIPOS>ATOM
      1 C         -10.1561  -16.8375   22.6596 C.ar    1  UNL1        0.0253
      2 C         -11.4319  -16.0511   22.7222 C.ar    1  UNL1        0.0993
      3 N         -12.6721  -16.5802   22.0651 N.ar    1  UNL1       -0.2423
      4 C         -12.6365  -17.8958   21.3453 C.ar    1  UNL1        0.0989
      5 C         -11.3608  -18.6822   21.2827 C.ar    1  UNL1        0.0208
      6 C         -10.1206  -18.1530   21.9398 C.ar    1  UNL1        0.0067
      7 C          -7.2696  -15.7096   24.9966 C.ar    1  UNL1        0.0230
      8 C          -6.7449  -15.2786   23.6591 C.ar    1  UNL1        0.0040
      9 C          -7.7623  -15.6486   22.6209 C.ar    1  UNL1        0.0067
     10 C          -8.9158  -16.3084   23.3167 C.ar    1  UNL1        0.0307
     11 S          -8.6113  -16.3460   24.7850 S.2     1  UNL1       -0.0899
     12 N          -7.2576  -14.8027   27.4312 N.3     1  UNL1       -0.3170
     13 C          -6.5747  -15.5349   26.3144 C.3     1  UNL1        0.0987
     14 H          -6.6452  -14.7784   28.2465 H       1  UNL1        0.1192
     15 H          -8.1251  -15.2823   27.6718 H       1  UNL1        0.1192
     16 C          -8.8447  -18.9395   21.8772 C.ar    1  UNL1        0.0409
     17 C          -7.8454  -18.9109   20.7590 C.ar    1  UNL1        0.0438
     18 C          -6.7273  -19.8463   21.1125 C.ar    1  UNL1        0.1798
     19 O          -7.0357  -20.4530   22.4493 O.2     1  UNL1       -0.4473
     20 C          -8.3443  -19.8925   22.9219 C.ar    1  UNL1        0.1797
@<TRIPOS>BOND
     1    12    13    1
     2    13     7    1
     3     7     8   ar
     4     8     9   ar
     5     9    10   ar
     6    10     1    1
     7     1     2   ar
     8     2     3   ar
     9     3     4   ar
    10     4     5   ar
    11     5     6   ar
    12     6    16    1
    13    16    17   ar
    14    17    18   ar
    15    18    19   ar
    16    19    20   ar
    17    10    11   ar
    18    11     7   ar
    19     6     1   ar
    20    20    16   ar
    21    12    14    1
    22    12    15    1
@<TRIPOS>MOLECULE
*****
 20 22 0 0 0
SMALL
GASTEIGER

@<TRIPOS>ATOM
      1 C         -10.8798  -18.1302   23.2827 C.ar    1  UNL1        0.0253
      2 C         -11.2964  -18.9136   24.4921 C.ar    1  UNL1        0.0993
      3 N         -12.7218  -18.8733   24.9573 N.ar    1  UNL1       -0.2423
      4 C         -13.7307  -18.0497   24.2132 C.ar    1  UNL1        0.0989
      5 C         -13.3141  -17.2663   23.0037 C.ar    1  UNL1        0.0208
      6 C         -11.8887  -17.3065   22.5385 C.ar    1  UNL1        0.0067
      7 C          -7.4435  -18.7457   21.5861 C.ar    1  UNL1        0.0230
      8 C          -7.0781  -17.7187   22.6166 C.ar    1  UNL1        0.0040
      9 C          -8.3209  -17.3632   23.3775 C.ar    1  UNL1        0.0067
     10 C          -9.4543  -18.1704   22.8173 C.ar    1  UNL1        0.0307
     11 S          -8.9120  -19.0248   21.7102 S.2     1  UNL1       -0.0899
     12 N          -5.7558  -18.5301   19.6226 N.3     1  UNL1       -0.3170
     13 C          -6.5050  -19.3819   20.6040 C.3     1  UNL1        0.0987
     14 H          -5.1686  -19.1232   19.0364 H       1  UNL1        0.1192
     15 H          -5.1703  -17.8647   20.1274 H       1  UNL1        0.1192
     16 C         -11.4721  -16.5231   21.3290 C.ar    1  UNL1        0.0409
     17 C         -12.1354  -16.5584   19.9841 C.ar    1  UNL1        0.0438
     18 C         -11.3923  -15.6240   19.0761 C.ar    1  UNL1        0.1798
     19 O         -10.2696  -15.0111   19.8598 O.2     1  UNL1       -0.4473
     20 C         -10.3190  -15.5668   21.2521 C.ar    1  UNL1        0.1797
@<TRIPOS>BOND
     1    12    13    1
     2    13     7    1
     3     7     8   ar
     4     8     9   ar
     5     9    10   ar
     6    10     1    1
     7     1     2   ar
     8     2     3   ar
     9     3     4   ar
    10     4     5   ar
    11     5     6   ar
    12     6    16    1
    13    16    17   ar
    14    17    18   ar
    15    18    19   ar
    16    19    20   ar
    17    10    11   ar
    18    11     7   ar
    19     6     1   ar
    20    20    16   ar
    21    12    14    1
    22    12    15    1
@<TRIPOS>MOLECULE
*****
 20 22 0 0 0
SMALL
GASTEIGER

@<TRIPOS>ATOM
      1 C          -9.9360  -17.0441   21.8710 C.ar    1  UNL1        0.0253
      2 C         -11.2121  -16.3031   21.6022 C.ar    1  UNL1        0.0993
      3 N         -12.1031  -16.7290   20.4732 N.ar    1  UNL1       -0.2423
      4 C         -11.7179  -17.8960   19.6130 C.ar    1  UNL1        0.0989
      5 C         -10.4417  -18.6369   19.8818 C.ar    1  UNL1        0.0208
      6 C          -9.5508  -18.2110   21.0108 C.ar    1  UNL1        0.0067
      7 C          -7.1604  -15.7280   24.2438 C.ar    1  UNL1        0.0230
      8 C          -8.1873  -16.1975   25.2313 C.ar    1  UNL1        0.0040
      9 C          -9.3520  -16.7476   24.4626 C.ar    1  UNL1        0.0067
     10 C          -9.0449  -16.6181   23.0001 C.ar    1  UNL1        0.0307
     11 S          -7.6904  -15.9880   22.8648 S.2     1  UNL1       -0.0899
     12 N          -4.8772  -14.7519   23.4793 N.3     1  UNL1       -0.3170
     13 C          -5.8359  -15.1075   24.5767 C.3     1  UNL1        0.0987
     14 H          -4.0343  -14.3436   23.8833 H       1  UNL1        0.1192
     15 H          -5.3144  -14.0774   22.8513 H       1  UNL1        0.1192
     16 C          -8.2745  -18.9520   21.2797 C.ar    1  UNL1        0.0409
     17 C          -8.0107  -19.8599   22.4442 C.ar    1  UNL1        0.0438
     18 C          -6.6112  -20.3841   22.3154 C.ar    1  UNL1        0.1798
     19 O          -6.0100  -19.8002   21.0713 O.2     1  UNL1       -0.4473
     20 C          -7.0380  -18.9150   20.4312 C.ar    1  UNL1        0.1797
@<TRIPOS>BOND
     1    12    13    1
     2    13     7    1
     3     7     8   ar
     4     8     9   ar
     5     9    10   ar
     6    10     1    1
     7     1     2   ar
     8     2     3   ar
     9     3     4   ar
    10     4     5   ar
    11     5     6   ar
    12     6    16    1
    13    16    17   ar
    14    17    18   ar
    15    18    19   ar
    16    19    20   ar
    17    10    11   ar
    18    11     7   ar
    19     6     1   ar
    20    20    16   ar
    21    12    14    1
    22    12    15    1
@<TRIPOS>MOLECULE
*****
 20 22 0 0 0
SMALL
GASTEIGER

@<TRIPOS>ATOM
      1 C         -11.3233   -2.4803   17.7277 C.ar    1  UNL1        0.0253
      2 C         -10.4645   -1.5639   16.9075 C.ar    1  UNL1        0.0993
      3 N         -10.9103   -0.1566   16.6415 N.ar    1  UNL1       -0.2423
      4 C         -12.2149    0.3343   17.1957 C.ar    1  UNL1        0.0989
      5 C         -13.0737   -0.5821   18.0158 C.ar    1  UNL1        0.0208
      6 C         -12.6279   -1.9894   18.2818 C.ar    1  UNL1        0.0067
      7 C         -10.6260   -6.2969   17.8423 C.ar    1  UNL1        0.0230
      8 C          -9.7572   -5.8097   18.9639 C.ar    1  UNL1        0.0040
      9 C          -9.9127   -4.3207   19.0575 C.ar    1  UNL1        0.0067
     10 C         -10.8776   -3.8877   17.9937 C.ar    1  UNL1        0.0307
     11 S         -11.3183   -5.1090   17.2427 S.2     1  UNL1       -0.0899
     12 N          -9.8282   -8.7687   17.9039 N.3     1  UNL1       -0.3170
     13 C         -10.7759   -7.7218   17.3982 C.3     1  UNL1        0.0987
     14 H         -10.0752   -9.6733   17.5026 H       1  UNL1        0.1192
     15 H          -9.8891   -8.8198   18.9208 H       1  UNL1        0.1192
     16 C         -13.4867   -2.9059   19.1020 C.ar    1  UNL1        0.0409
     17 C         -13.3751   -3.1300   20.5809 C.ar    1  UNL1        0.0438
     18 C         -14.4273   -4.1217   20.9801 C.ar    1  UNL1        0.1798
     19 O         -15.1893   -4.5105   19.7478 O.2     1  UNL1       -0.4473
     20 C         -14.6079   -3.7591   18.5871 C.ar    1  UNL1        0.1797
@<TRIPOS>BOND
     1    12    13    1
     2    13     7    1
     3     7     8   ar
     4     8     9   ar
     5     9    10   ar
     6    10     1    1
     7     1     2   ar
     8     2     3   ar
     9     3     4   ar
    10     4     5   ar
    11     5     6   ar
    12     6    16    1
    13    16    17   ar
    14    17    18   ar
    15    18    19   ar
    16    19    20   ar
    17    10    11   ar
    18    11     7   ar
    19     6     1   ar
    20    20    16   ar
    21    12    14    1
    22    12    15    1
