@<TRIPOS>MOLECULE
*****
 25 27 0 0 0
SMALL
GASTEIGER

@<TRIPOS>ATOM
      1 C          -5.8756  -16.4368   23.9436 C.3     1  UNL1        0.0517
      2 C          -5.6725  -17.5679   22.9796 C.ar    1  UNL1        0.0586
      3 C          -4.3527  -18.0628   22.4665 C.ar    1  UNL1       -0.0002
      4 C          -4.6180  -19.2035   21.5292 C.ar    1  UNL1        0.0333
      5 C          -3.7002  -20.0781   20.7275 C.ar    1  UNL1        0.0044
      6 C          -4.2661  -21.1626   19.8596 C.ar    1  UNL1        0.0208
      7 C          -5.7499  -21.3727   19.7934 C.ar    1  UNL1        0.1006
      8 N          -6.6677  -20.4982   20.5951 N.ar    1  UNL1       -0.2252
      9 C          -6.1017  -19.4136   21.4630 C.ar    1  UNL1        0.1630
     10 N          -6.7534  -18.4027   22.3594 N.ar    1  UNL1       -0.1964
     11 S          -8.2273  -18.2530   22.5943 S.O2    1  UNL1        0.0869
     12 O          -8.2252  -19.5116   23.4103 O.2     1  UNL1       -0.1475
     13 O          -8.2295  -16.9944   21.7783 O.2     1  UNL1       -0.1475
     14 C          -9.7013  -18.1033   22.8292 C.ar    1  UNL1        0.1301
     15 C         -10.3381  -18.7413   24.0281 C.ar    1  UNL1        0.0228
     16 C         -11.8121  -18.5916   24.2632 C.ar    1  UNL1        0.0334
     17 C         -12.6491  -17.8041   23.2993 C.ar    1  UNL1        0.1675
     18 F         -14.1229  -17.6544   23.5342 F       1  UNL1       -0.2018
     19 C         -12.0121  -17.1661   22.1004 C.ar    1  UNL1        0.1687
     20 F         -12.8492  -16.3785   21.1365 F       1  UNL1       -0.2018
     21 C         -10.5383  -17.3157   21.8654 C.ar    1  UNL1        0.0523
     22 C          -3.0044  -17.5136   22.8274 C.3     1  UNL1        0.0692
     23 C          -2.4110  -16.3943   22.0241 C.2     1  UNL1        0.0548
     24 O          -2.9872  -15.0129   22.1227 O.co2   1  UNL1       -0.5488
     25 O          -1.2414  -16.6564   21.1222 O.co2   1  UNL1       -0.5488
@<TRIPOS>UNITY_ATOM_ATTR
24 1
charge -1
@<TRIPOS>BOND
     1     1     2    1
     2     2     3   ar
     3     3    22    1
     4    22    23    1
     5    23    24   ar
     6    23    25   ar
     7     3     4   ar
     8     4     5   ar
     9     5     6   ar
    10     6     7   ar
    11     7     8   ar
    12     8     9   ar
    13     9    10   ar
    14    10    11    1
    15    11    12    2
    16    11    13    2
    17    11    14    1
    18    14    15   ar
    19    15    16   ar
    20    16    17   ar
    21    17    18    1
    22    17    19   ar
    23    19    20    1
    24    19    21   ar
    25    10     2   ar
    26    21    14   ar
    27     9     4   ar
@<TRIPOS>MOLECULE
*****
 25 27 0 0 0
SMALL
GASTEIGER

@<TRIPOS>ATOM
      1 C          -7.2513  -20.6008   20.1101 C.3     1  UNL1        0.0517
      2 C          -6.4796  -19.6144   20.9356 C.ar    1  UNL1        0.0586
      3 C          -4.9949  -19.4038   20.8981 C.ar    1  UNL1       -0.0002
      4 C          -4.6547  -18.3247   21.8829 C.ar    1  UNL1        0.0333
      5 C          -3.3492  -17.6987   22.2747 C.ar    1  UNL1        0.0044
      6 C          -3.3180  -16.6163   23.3126 C.ar    1  UNL1        0.0208
      7 C          -4.5925  -16.1600   23.9588 C.ar    1  UNL1        0.1006
      8 N          -5.8980  -16.7860   23.5670 N.ar    1  UNL1       -0.2252
      9 C          -5.9292  -17.8683   22.5290 C.ar    1  UNL1        0.1630
     10 N          -7.0570  -18.6654   21.9436 N.ar    1  UNL1       -0.1964
     11 S          -8.5075  -18.5362   22.3031 S.O2    1  UNL1        0.0869
     12 O          -8.3985  -19.7491   23.1788 O.2     1  UNL1       -0.1475
     13 O          -8.6165  -17.3233   21.4274 O.2     1  UNL1       -0.1475
     14 C          -9.9581  -18.4070   22.6626 C.ar    1  UNL1        0.1301
     15 C         -10.4278  -18.7914   24.0343 C.ar    1  UNL1        0.0228
     16 C         -11.8783  -18.6623   24.3939 C.ar    1  UNL1        0.0334
     17 C         -12.8591  -18.1488   23.3819 C.ar    1  UNL1        0.1675
     18 F         -14.3096  -18.0196   23.7413 F       1  UNL1       -0.2018
     19 C         -12.3893  -17.7644   22.0101 C.ar    1  UNL1        0.1687
     20 F         -13.3701  -17.2509   20.9980 F       1  UNL1       -0.2018
     21 C         -10.9389  -17.8935   21.6505 C.ar    1  UNL1        0.0523
     22 C          -4.0213  -20.1426   20.0284 C.3     1  UNL1        0.0692
     23 C          -2.5618  -19.7997   20.0775 C.2     1  UNL1        0.0548
     24 O          -1.9741  -18.8737   19.0542 O.co2   1  UNL1       -0.5488
     25 O          -1.6900  -20.3829   21.1498 O.co2   1  UNL1       -0.5488
@<TRIPOS>UNITY_ATOM_ATTR
24 1
charge -1
@<TRIPOS>BOND
     1     1     2    1
     2     2     3   ar
     3     3    22    1
     4    22    23    1
     5    23    24   ar
     6    23    25   ar
     7     3     4   ar
     8     4     5   ar
     9     5     6   ar
    10     6     7   ar
    11     7     8   ar
    12     8     9   ar
    13     9    10   ar
    14    10    11    1
    15    11    12    2
    16    11    13    2
    17    11    14    1
    18    14    15   ar
    19    15    16   ar
    20    16    17   ar
    21    17    18    1
    22    17    19   ar
    23    19    20    1
    24    19    21   ar
    25    10     2   ar
    26    21    14   ar
    27     9     4   ar
@<TRIPOS>MOLECULE
*****
 25 27 0 0 0
SMALL
GASTEIGER

@<TRIPOS>ATOM
      1 C          -6.0375  -16.4842   23.8979 C.3     1  UNL1        0.0517
      2 C          -5.7703  -17.6054   22.9380 C.ar    1  UNL1        0.0586
      3 C          -4.4198  -18.0728   22.4821 C.ar    1  UNL1       -0.0002
      4 C          -4.6214  -19.2124   21.5278 C.ar    1  UNL1        0.0333
      5 C          -3.6524  -20.0649   20.7635 C.ar    1  UNL1        0.0044
      6 C          -4.1585  -21.1544   19.8653 C.ar    1  UNL1        0.0208
      7 C          -5.6336  -21.3913   19.7314 C.ar    1  UNL1        0.1006
      8 N          -6.6026  -20.5388   20.4957 N.ar    1  UNL1       -0.2252
      9 C          -6.0965  -19.4494   21.3939 C.ar    1  UNL1        0.1630
     10 N          -6.8065  -18.4562   22.2655 N.ar    1  UNL1       -0.1964
     11 S          -8.2920  -18.3351   22.4347 S.O2    1  UNL1        0.0869
     12 O          -8.2960  -19.5715   23.2841 O.2     1  UNL1       -0.1475
     13 O          -8.2880  -17.0989   21.5854 O.2     1  UNL1       -0.1475
     14 C          -9.7775  -18.2141   22.6040 C.ar    1  UNL1        0.1301
     15 C         -10.6221  -17.7049   21.4738 C.ar    1  UNL1        0.0228
     16 C         -12.1076  -17.5839   21.6430 C.ar    1  UNL1        0.0334
     17 C         -12.7486  -17.9721   22.9425 C.ar    1  UNL1        0.1675
     18 F         -14.2340  -17.8511   23.1118 F       1  UNL1       -0.2018
     19 C         -11.9039  -18.4813   24.0727 C.ar    1  UNL1        0.1687
     20 F         -12.5448  -18.8695   25.3721 F       1  UNL1       -0.2018
     21 C         -10.4185  -18.6023   23.9034 C.ar    1  UNL1        0.0523
     22 C          -3.0995  -17.5010   22.9061 C.3     1  UNL1        0.0692
     23 C          -2.3917  -16.5146   22.0250 C.2     1  UNL1        0.0548
     24 O          -1.2621  -16.9677   21.1482 O.co2   1  UNL1       -0.5488
     25 O          -2.8134  -15.0751   22.0208 O.co2   1  UNL1       -0.5488
@<TRIPOS>UNITY_ATOM_ATTR
24 1
charge -1
@<TRIPOS>BOND
     1     1     2    1
     2     2     3   ar
     3     3    22    1
     4    22    23    1
     5    23    24   ar
     6    23    25   ar
     7     3     4   ar
     8     4     5   ar
     9     5     6   ar
    10     6     7   ar
    11     7     8   ar
    12     8     9   ar
    13     9    10   ar
    14    10    11    1
    15    11    12    2
    16    11    13    2
    17    11    14    1
    18    14    15   ar
    19    15    16   ar
    20    16    17   ar
    21    17    18    1
    22    17    19   ar
    23    19    20    1
    24    19    21   ar
    25    10     2   ar
    26    21    14   ar
    27     9     4   ar
@<TRIPOS>MOLECULE
*****
 25 27 0 0 0
SMALL
GASTEIGER

@<TRIPOS>ATOM
      1 C          -7.9053  -20.3527   19.8667 C.3     1  UNL1        0.0517
      2 C          -8.0515  -19.3645   20.9857 C.ar    1  UNL1        0.0586
      3 C          -9.3349  -18.9797   21.6601 C.ar    1  UNL1       -0.0002
      4 C          -9.0167  -17.9650   22.7179 C.ar    1  UNL1        0.0333
      5 C          -9.8835  -17.2304   23.6972 C.ar    1  UNL1        0.0044
      6 C          -9.2701  -16.2534   24.6559 C.ar    1  UNL1        0.0208
      7 C          -7.7899  -16.0109   24.6353 C.ar    1  UNL1        0.1006
      8 N          -6.9232  -16.7455   23.6560 N.ar    1  UNL1       -0.2252
      9 C          -7.5366  -17.7225   22.6973 C.ar    1  UNL1        0.1630
     10 N          -6.9401  -18.5874   21.6267 N.ar    1  UNL1       -0.1964
     11 S          -5.4872  -18.6622   21.2614 S.O2    1  UNL1        0.0869
     12 O          -5.8199  -18.2583   19.8556 O.2     1  UNL1       -0.1475
     13 O          -5.1544  -19.0661   22.6670 O.2     1  UNL1       -0.1475
     14 C          -4.0343  -18.7370   20.8959 C.ar    1  UNL1        0.1301
     15 C          -3.0560  -19.3745   21.8375 C.ar    1  UNL1        0.0228
     16 C          -1.6031  -19.4492   21.4721 C.ar    1  UNL1        0.0334
     17 C          -1.1285  -18.8865   20.1652 C.ar    1  UNL1        0.1675
     18 F           0.3244  -18.9612   19.7997 F       1  UNL1       -0.2018
     19 C          -2.1069  -18.2490   19.2236 C.ar    1  UNL1        0.1687
     20 F          -1.6322  -17.6863   17.9167 F       1  UNL1       -0.2018
     21 C          -3.5597  -18.1742   19.5890 C.ar    1  UNL1        0.0523
     22 C         -10.6974  -19.5157   21.3340 C.3     1  UNL1        0.0692
     23 C         -11.7968  -18.5767   20.9341 C.2     1  UNL1        0.0548
     24 O         -12.9574  -18.3449   21.8557 O.co2   1  UNL1       -0.5488
     25 O         -11.7356  -17.8695   19.6127 O.co2   1  UNL1       -0.5488
@<TRIPOS>UNITY_ATOM_ATTR
24 1
charge -1
@<TRIPOS>BOND
     1     1     2    1
     2     2     3   ar
     3     3    22    1
     4    22    23    1
     5    23    24   ar
     6    23    25   ar
     7     3     4   ar
     8     4     5   ar
     9     5     6   ar
    10     6     7   ar
    11     7     8   ar
    12     8     9   ar
    13     9    10   ar
    14    10    11    1
    15    11    12    2
    16    11    13    2
    17    11    14    1
    18    14    15   ar
    19    15    16   ar
    20    16    17   ar
    21    17    18    1
    22    17    19   ar
    23    19    20    1
    24    19    21   ar
    25    10     2   ar
    26    21    14   ar
    27     9     4   ar
@<TRIPOS>MOLECULE
*****
 25 27 0 0 0
SMALL
GASTEIGER

@<TRIPOS>ATOM
      1 C         -15.3595   -3.5268   18.8324 C.3     1  UNL1        0.0517
      2 C         -14.0504   -4.2590   18.8344 C.ar    1  UNL1        0.0586
      3 C         -12.7014   -3.6529   19.0851 C.ar    1  UNL1       -0.0002
      4 C         -11.6777   -4.7452   18.9917 C.ar    1  UNL1        0.0333
      5 C         -10.1859   -4.7387   19.1477 C.ar    1  UNL1        0.0044
      6 C          -9.4103   -6.0135   18.9953 C.ar    1  UNL1        0.0208
      7 C         -10.1266   -7.2949   18.6869 C.ar    1  UNL1        0.1006
      8 N         -11.6184   -7.3014   18.5310 N.ar    1  UNL1       -0.2252
      9 C         -12.3940   -6.0266   18.6834 C.ar    1  UNL1        0.1630
     10 N         -13.8603   -5.7261   18.5862 N.ar    1  UNL1       -0.1964
     11 S         -14.9461   -6.7185   18.2923 S.O2    1  UNL1        0.0869
     12 O         -15.1783   -6.9000   19.7630 O.2     1  UNL1       -0.1475
     13 O         -14.7139   -6.5370   16.8216 O.2     1  UNL1       -0.1475
     14 C         -16.0318   -7.7109   17.9985 C.ar    1  UNL1        0.1301
     15 C         -17.1625   -7.3373   17.0863 C.ar    1  UNL1        0.0228
     16 C         -18.2483   -8.3296   16.7925 C.ar    1  UNL1        0.0334
     17 C         -18.2034   -9.6955   17.4107 C.ar    1  UNL1        0.1675
     18 F         -19.2891  -10.6879   17.1170 F       1  UNL1       -0.2018
     19 C         -17.0727  -10.0691   18.3229 C.ar    1  UNL1        0.1687
     20 F         -17.0277  -11.4350   18.9411 F       1  UNL1       -0.2018
     21 C         -15.9869   -9.0768   18.6167 C.ar    1  UNL1        0.0523
     22 C         -12.4247   -2.2079   19.3777 C.3     1  UNL1        0.0692
     23 C         -12.0427   -1.2771   18.2651 C.2     1  UNL1        0.0548
     24 O         -10.7190   -1.4338   17.5773 O.co2   1  UNL1       -0.5488
     25 O         -12.9846   -0.1897   17.8403 O.co2   1  UNL1       -0.5488
@<TRIPOS>UNITY_ATOM_ATTR
24 1
charge -1
@<TRIPOS>BOND
     1     1     2    1
     2     2     3   ar
     3     3    22    1
     4    22    23    1
     5    23    24   ar
     6    23    25   ar
     7     3     4   ar
     8     4     5   ar
     9     5     6   ar
    10     6     7   ar
    11     7     8   ar
    12     8     9   ar
    13     9    10   ar
    14    10    11    1
    15    11    12    2
    16    11    13    2
    17    11    14    1
    18    14    15   ar
    19    15    16   ar
    20    16    17   ar
    21    17    18    1
    22    17    19   ar
    23    19    20    1
    24    19    21   ar
    25    10     2   ar
    26    21    14   ar
    27     9     4   ar
@<TRIPOS>MOLECULE
*****
 25 27 0 0 0
SMALL
GASTEIGER

@<TRIPOS>ATOM
      1 C          -9.4394  -20.3139   24.4388 C.3     1  UNL1        0.0517
      2 C          -9.9979  -19.3367   23.4472 C.ar    1  UNL1        0.0586
      3 C         -11.4324  -18.9115   23.3405 C.ar    1  UNL1       -0.0002
      4 C         -11.5410  -17.9251   22.2156 C.ar    1  UNL1        0.0333
      5 C         -12.7084  -17.1711   21.6512 C.ar    1  UNL1        0.0044
      6 C         -12.5084  -16.2327   20.4983 C.ar    1  UNL1        0.0208
      7 C         -11.1411  -16.0483   19.9097 C.ar    1  UNL1        0.1006
      8 N          -9.9737  -16.8024   20.4741 N.ar    1  UNL1       -0.2252
      9 C         -10.1737  -17.7408   21.6271 C.ar    1  UNL1        0.1630
     10 N          -9.2200  -18.6132   22.3883 N.ar    1  UNL1       -0.1964
     11 S          -7.7470  -18.7399   22.1349 S.O2    1  UNL1        0.0869
     12 O          -8.0075  -19.8718   21.1858 O.2     1  UNL1       -0.1475
     13 O          -7.4864  -17.6080   23.0839 O.2     1  UNL1       -0.1475
     14 C          -6.2739  -18.8666   21.8815 C.ar    1  UNL1        0.1301
     15 C          -5.2959  -18.1665   22.7777 C.ar    1  UNL1        0.0228
     16 C          -3.8228  -18.2932   22.5243 C.ar    1  UNL1        0.0334
     17 C          -3.3279  -19.1199   21.3748 C.ar    1  UNL1        0.1675
     18 F          -1.8550  -19.2466   21.1213 F       1  UNL1       -0.2018
     19 C          -4.3061  -19.8200   20.4785 C.ar    1  UNL1        0.1687
     20 F          -3.8112  -20.6467   19.3290 F       1  UNL1       -0.2018
     21 C          -5.7790  -19.6933   20.7319 C.ar    1  UNL1        0.0523
     22 C         -12.5602  -19.3887   24.2067 C.3     1  UNL1        0.0692
     23 C         -13.5335  -18.4026   24.7817 C.2     1  UNL1        0.0548
     24 O         -14.2382  -18.7084   26.0700 O.co2   1  UNL1       -0.5488
     25 O         -13.8018  -17.1107   24.0683 O.co2   1  UNL1       -0.5488
@<TRIPOS>UNITY_ATOM_ATTR
24 1
charge -1
@<TRIPOS>BOND
     1     1     2    1
     2     2     3   ar
     3     3    22    1
     4    22    23    1
     5    23    24   ar
     6    23    25   ar
     7     3     4   ar
     8     4     5   ar
     9     5     6   ar
    10     6     7   ar
    11     7     8   ar
    12     8     9   ar
    13     9    10   ar
    14    10    11    1
    15    11    12    2
    16    11    13    2
    17    11    14    1
    18    14    15   ar
    19    15    16   ar
    20    16    17   ar
    21    17    18    1
    22    17    19   ar
    23    19    20    1
    24    19    21   ar
    25    10     2   ar
    26    21    14   ar
    27     9     4   ar
@<TRIPOS>MOLECULE
*****
 25 27 0 0 0
SMALL
GASTEIGER

@<TRIPOS>ATOM
      1 C          -8.7409  -18.1746   25.0465 C.3     1  UNL1        0.0517
      2 C          -9.1932  -18.4475   23.6426 C.ar    1  UNL1        0.0586
      3 C         -10.6151  -18.5880   23.1859 C.ar    1  UNL1       -0.0002
      4 C         -10.6037  -18.8552   21.7100 C.ar    1  UNL1        0.0333
      5 C         -11.7098  -19.0792   20.7220 C.ar    1  UNL1        0.0044
      6 C         -11.3871  -19.3278   19.2784 C.ar    1  UNL1        0.0208
      7 C          -9.9581  -19.3524   18.8228 C.ar    1  UNL1        0.1006
      8 N          -8.8520  -19.1283   19.8108 N.ar    1  UNL1       -0.2252
      9 C          -9.1748  -18.8797   21.2544 C.ar    1  UNL1        0.1630
     10 N          -8.3031  -18.6277   22.4488 N.ar    1  UNL1       -0.1964
     11 S          -6.8043  -18.5667   22.4493 S.O2    1  UNL1        0.0869
     12 O          -6.8653  -17.0693   22.5129 O.2     1  UNL1       -0.1475
     13 O          -6.7433  -20.0641   22.3858 O.2     1  UNL1       -0.1475
     14 C          -5.3055  -18.5056   22.4499 C.ar    1  UNL1        0.1301
     15 C          -4.5978  -17.4628   23.2633 C.ar    1  UNL1        0.0228
     16 C          -3.0990  -17.4017   23.2638 C.ar    1  UNL1        0.0334
     17 C          -2.3080  -18.3833   22.4510 C.ar    1  UNL1        0.1675
     18 F          -0.8093  -18.3223   22.4515 F       1  UNL1       -0.2018
     19 C          -3.0158  -19.4262   21.6376 C.ar    1  UNL1        0.1687
     20 F          -2.2248  -20.4078   20.8248 F       1  UNL1       -0.2018
     21 C          -4.5145  -19.4873   21.6370 C.ar    1  UNL1        0.0523
     22 C         -11.8343  -18.4804   24.0530 C.3     1  UNL1        0.0692
     23 C         -13.0124  -17.6732   23.5938 C.2     1  UNL1        0.0548
     24 O         -12.7998  -16.4380   22.7698 O.co2   1  UNL1       -0.5488
     25 O         -14.4029  -18.1013   23.9586 O.co2   1  UNL1       -0.5488
@<TRIPOS>UNITY_ATOM_ATTR
24 1
charge -1
@<TRIPOS>BOND
     1     1     2    1
     2     2     3   ar
     3     3    22    1
     4    22    23    1
     5    23    24   ar
     6    23    25   ar
     7     3     4   ar
     8     4     5   ar
     9     5     6   ar
    10     6     7   ar
    11     7     8   ar
    12     8     9   ar
    13     9    10   ar
    14    10    11    1
    15    11    12    2
    16    11    13    2
    17    11    14    1
    18    14    15   ar
    19    15    16   ar
    20    16    17   ar
    21    17    18    1
    22    17    19   ar
    23    19    20    1
    24    19    21   ar
    25    10     2   ar
    26    21    14   ar
    27     9     4   ar
@<TRIPOS>MOLECULE
*****
 25 27 0 0 0
SMALL
GASTEIGER

@<TRIPOS>ATOM
      1 C          -8.2744  -15.6361   21.3100 C.3     1  UNL1        0.0517
      2 C          -8.7168  -16.8570   22.0609 C.ar    1  UNL1        0.0586
      3 C         -10.0543  -17.0564   22.7099 C.ar    1  UNL1       -0.0002
      4 C         -10.0635  -18.4154   23.3448 C.ar    1  UNL1        0.0333
      5 C         -11.1125  -19.1525   24.1234 C.ar    1  UNL1        0.0044
      6 C         -10.8296  -20.5299   24.6453 C.ar    1  UNL1        0.0208
      7 C          -9.4978  -21.1704   24.3887 C.ar    1  UNL1        0.1006
      8 N          -8.4487  -20.4334   23.6101 N.ar    1  UNL1       -0.2252
      9 C          -8.7316  -19.0559   23.0881 C.ar    1  UNL1        0.1630
     10 N          -7.8993  -18.0927   22.2946 N.ar    1  UNL1       -0.1964
     11 S          -6.4959  -18.3246   21.8185 S.O2    1  UNL1        0.0869
     12 O          -5.9767  -17.4557   22.9255 O.2     1  UNL1       -0.1475
     13 O          -7.0150  -19.1935   20.7115 O.2     1  UNL1       -0.1475
     14 C          -5.0924  -18.5565   21.3424 C.ar    1  UNL1        0.1301
     15 C          -4.8399  -18.9572   19.9192 C.ar    1  UNL1        0.0228
     16 C          -3.4365  -19.1891   19.4431 C.ar    1  UNL1        0.0334
     17 C          -2.2856  -19.0202   20.3901 C.ar    1  UNL1        0.1675
     18 F          -0.8822  -19.2520   19.9141 F       1  UNL1       -0.2018
     19 C          -2.5382  -18.6194   21.8134 C.ar    1  UNL1        0.1687
     20 F          -1.3874  -18.4505   22.7605 F       1  UNL1       -0.2018
     21 C          -3.9416  -18.3876   22.2895 C.ar    1  UNL1        0.0523
     22 C         -11.1843  -16.0701   22.7220 C.3     1  UNL1        0.0692
     23 C         -12.5314  -16.4663   22.1942 C.2     1  UNL1        0.0548
     24 O         -12.8594  -16.2603   20.7450 O.co2   1  UNL1       -0.5488
     25 O         -13.5504  -17.0685   23.1155 O.co2   1  UNL1       -0.5488
@<TRIPOS>UNITY_ATOM_ATTR
24 1
charge -1
@<TRIPOS>BOND
     1     1     2    1
     2     2     3   ar
     3     3    22    1
     4    22    23    1
     5    23    24   ar
     6    23    25   ar
     7     3     4   ar
     8     4     5   ar
     9     5     6   ar
    10     6     7   ar
    11     7     8   ar
    12     8     9   ar
    13     9    10   ar
    14    10    11    1
    15    11    12    2
    16    11    13    2
    17    11    14    1
    18    14    15   ar
    19    15    16   ar
    20    16    17   ar
    21    17    18    1
    22    17    19   ar
    23    19    20    1
    24    19    21   ar
    25    10     2   ar
    26    21    14   ar
    27     9     4   ar
@<TRIPOS>MOLECULE
*****
 25 27 0 0 0
SMALL
GASTEIGER

@<TRIPOS>ATOM
      1 C          -4.0137  -16.0848   25.9822 C.3     1  UNL1        0.0517
      2 C          -5.2832  -16.1519   25.1861 C.ar    1  UNL1        0.0586
      3 C          -6.6502  -15.7715   25.6725 C.ar    1  UNL1       -0.0002
      4 C          -7.6204  -15.9957   24.5508 C.ar    1  UNL1        0.0333
      5 C          -9.1035  -15.7943   24.4512 C.ar    1  UNL1        0.0044
      6 C          -9.8192  -16.1119   23.1718 C.ar    1  UNL1        0.0208
      7 C          -9.0519  -16.6308   21.9920 C.ar    1  UNL1        0.1006
      8 N          -7.5689  -16.8322   22.0916 N.ar    1  UNL1       -0.2252
      9 C          -6.8531  -16.5146   23.3710 C.ar    1  UNL1        0.1630
     10 N          -5.4087  -16.6112   23.7636 N.ar    1  UNL1       -0.1964
     11 S          -4.2866  -17.0841   22.8876 S.O2    1  UNL1        0.0869
     12 O          -3.8358  -15.6658   22.6995 O.2     1  UNL1       -0.1475
     13 O          -4.7374  -18.5022   23.0757 O.2     1  UNL1       -0.1475
     14 C          -3.1645  -17.5568   22.0116 C.ar    1  UNL1        0.1301
     15 C          -3.0606  -19.0072   21.6433 C.ar    1  UNL1        0.0228
     16 C          -1.9385  -19.4801   20.7673 C.ar    1  UNL1        0.0334
     17 C          -0.9204  -18.5026   20.2595 C.ar    1  UNL1        0.1675
     18 F           0.2016  -18.9753   19.3835 F       1  UNL1       -0.2018
     19 C          -1.0244  -17.0521   20.6277 C.ar    1  UNL1        0.1687
     20 F          -0.0063  -16.0746   20.1199 F       1  UNL1       -0.2018
     21 C          -2.1464  -16.5793   21.5037 C.ar    1  UNL1        0.0523
     22 C          -6.9877  -15.2572   27.0406 C.3     1  UNL1        0.0692
     23 C          -8.3432  -15.5193   27.6271 C.2     1  UNL1        0.0548
     24 O          -8.8603  -16.9241   27.7222 O.co2   1  UNL1       -0.5488
     25 O          -9.1816  -14.3766   28.1184 O.co2   1  UNL1       -0.5488
@<TRIPOS>UNITY_ATOM_ATTR
24 1
charge -1
@<TRIPOS>BOND
     1     1     2    1
     2     2     3   ar
     3     3    22    1
     4    22    23    1
     5    23    24   ar
     6    23    25   ar
     7     3     4   ar
     8     4     5   ar
     9     5     6   ar
    10     6     7   ar
    11     7     8   ar
    12     8     9   ar
    13     9    10   ar
    14    10    11    1
    15    11    12    2
    16    11    13    2
    17    11    14    1
    18    14    15   ar
    19    15    16   ar
    20    16    17   ar
    21    17    18    1
    22    17    19   ar
    23    19    20    1
    24    19    21   ar
    25    10     2   ar
    26    21    14   ar
    27     9     4   ar
