@<TRIPOS>MOLECULE
*****
 37 41 0 0 0
SMALL
GASTEIGER

@<TRIPOS>ATOM
      1 N          -8.9826  -18.2137   21.2383 N.3     1  UNL1       -0.2679
      2 C          -9.5700  -18.9123   22.4286 C.3     1  UNL1        0.0978
      3 C          -8.8041  -20.0083   23.1084 C.3     1  UNL1        0.0224
      4 C          -9.3916  -20.7069   24.2988 C.3     1  UNL1        0.0065
      5 C         -10.7450  -20.3096   24.8092 C.3     1  UNL1        0.0277
      6 C         -11.5108  -19.2136   24.1293 C.ar    1  UNL1       -0.0073
      7 C         -12.8642  -18.8162   24.6397 C.ar    1  UNL1       -0.0015
      8 C         -13.6301  -17.7202   23.9598 C.ar    1  UNL1        0.0203
      9 C         -13.0426  -17.0216   22.7696 C.ar    1  UNL1        0.0985
     10 N         -11.6893  -17.4190   22.2592 N.ar    1  UNL1       -0.2471
     11 C         -10.9234  -18.5149   22.9390 C.ar    1  UNL1        0.0695
     12 C          -8.3854  -16.8461   21.3905 C.3     1  UNL1        0.0886
     13 C          -6.7116  -14.9205   27.7733 C.ar    1  UNL1       -0.0003
     14 C          -8.2051  -15.0019   27.6608 C.ar    1  UNL1       -0.0003
     15 C          -8.8386  -15.4033   26.3617 C.ar    1  UNL1       -0.0045
     16 C          -7.9785  -15.7233   25.1752 C.ar    1  UNL1       -0.0234
     17 C          -6.4850  -15.6419   25.2878 C.ar    1  UNL1       -0.0103
     18 C          -5.8515  -15.2405   26.5868 C.ar    1  UNL1       -0.0032
     19 C          -5.6249  -15.9619   24.1012 C.3     1  UNL1        0.0953
     20 N          -6.2583  -16.3633   22.8021 N.3     1  UNL1       -0.2934
     21 C          -7.7520  -16.4447   22.6896 C.3     1  UNL1        0.0748
     22 C          -8.6120  -16.1247   23.8761 C.3     1  UNL1        0.0432
     23 H          -5.8948  -17.2877   22.5705 H       1  UNL1        0.1236
     24 C          -8.9922  -18.8826   19.8958 C.3     1  UNL1        0.0725
     25 C          -7.8315  -19.7338   19.4735 C.3     1  UNL1        0.0188
     26 C          -6.4382  -19.3587   19.8832 C.3     1  UNL1        0.0185
     27 C          -5.7861  -20.0495   21.0442 C.3     1  UNL1        0.0686
     28 N          -5.3241  -19.2525   22.2279 N.3     1  UNL1       -0.2975
     29 H          -5.8400  -19.6000   23.0363 H       1  UNL1        0.1232
     30 C          -3.8734  -19.2481   22.6092 C.3     1  UNL1        0.0686
     31 C          -2.8844  -18.4752   21.7879 C.3     1  UNL1        0.0185
     32 C          -2.2139  -19.1251   20.6140 C.3     1  UNL1        0.0185
     33 C          -1.2249  -18.3521   19.7927 C.3     1  UNL1        0.0686
     34 N          -0.9065  -16.9294   20.1453 N.3     1  UNL1       -0.2975
     35 C          -1.5770  -16.2796   21.3192 C.3     1  UNL1        0.0686
     36 C          -2.5660  -17.0525   22.1405 C.3     1  UNL1        0.0185
     37 H          -1.1341  -16.3651   19.3267 H       1  UNL1        0.1232
@<TRIPOS>BOND
     1    13    14   ar
     2    14    15   ar
     3    15    16   ar
     4    16    17   ar
     5    17    18   ar
     6    17    19    1
     7    19    20    1
     8    20    21    1
     9    21    12    1
    10    12     1    1
    11     1    24    1
    12    24    25    1
    13    25    26    1
    14    26    27    1
    15    27    28    1
    16    28    30    1
    17    30    31    1
    18    31    32    1
    19    32    33    1
    20    33    34    1
    21    34    35    1
    22    35    36    1
    23     2     1    1
    24     2     3    1
    25     3     4    1
    26     4     5    1
    27     5     6    1
    28     6     7   ar
    29     7     8   ar
    30     8     9   ar
    31     9    10   ar
    32    10    11   ar
    33    21    22    1
    34    18    13   ar
    35    36    31    1
    36    11     2    1
    37    22    16    1
    38    11     6   ar
    39    20    23    1
    40    28    29    1
    41    34    37    1
@<TRIPOS>MOLECULE
*****
 37 41 0 0 0
SMALL
GASTEIGER

@<TRIPOS>ATOM
      1 N         -10.6280  -16.7230   21.0878 N.3     1  UNL1       -0.2679
      2 C         -11.3194  -17.3965   22.2359 C.3     1  UNL1        0.0978
      3 C         -12.6786  -16.9329   22.6691 C.3     1  UNL1        0.0224
      4 C         -13.3701  -17.6064   23.8173 C.3     1  UNL1        0.0065
      5 C         -12.7024  -18.7435   24.5322 C.3     1  UNL1        0.0277
      6 C         -11.3432  -19.2071   24.0990 C.ar    1  UNL1       -0.0073
      7 C         -10.6755  -20.3442   24.8139 C.ar    1  UNL1       -0.0015
      8 C          -9.3163  -20.8078   24.3807 C.ar    1  UNL1        0.0203
      9 C          -8.6248  -20.1343   23.2326 C.ar    1  UNL1        0.0985
     10 N          -9.2925  -18.9972   22.5177 N.ar    1  UNL1       -0.2471
     11 C         -10.6517  -18.5336   22.9509 C.ar    1  UNL1        0.0695
     12 C          -9.7928  -15.5003   21.3281 C.3     1  UNL1        0.0886
     13 C          -6.3654  -15.6680   27.2842 C.ar    1  UNL1       -0.0003
     14 C          -7.8083  -15.9892   27.5388 C.ar    1  UNL1       -0.0003
     15 C          -8.7824  -16.0199   26.3985 C.ar    1  UNL1       -0.0045
     16 C          -8.3136  -15.7294   25.0036 C.ar    1  UNL1       -0.0234
     17 C          -6.8707  -15.4083   24.7490 C.ar    1  UNL1       -0.0103
     18 C          -5.8966  -15.3776   25.8893 C.ar    1  UNL1       -0.0032
     19 C          -6.4017  -15.1178   23.3540 C.3     1  UNL1        0.0953
     20 N          -7.3758  -15.1485   22.2137 N.3     1  UNL1       -0.2934
     21 C          -8.8188  -15.4696   22.4684 C.3     1  UNL1        0.0748
     22 C          -9.2876  -15.7601   23.8633 C.3     1  UNL1        0.0432
     23 H          -7.0319  -15.8437   21.5513 H       1  UNL1        0.1236
     24 C         -10.7716  -17.2721   19.6993 C.3     1  UNL1        0.0725
     25 C         -11.1213  -18.7166   19.4965 C.3     1  UNL1        0.0188
     26 C         -10.0529  -19.7661   19.5820 C.3     1  UNL1        0.0185
     27 C          -8.7111  -19.5229   18.9571 C.3     1  UNL1        0.0686
     28 N          -7.5423  -19.1398   19.8157 N.3     1  UNL1       -0.2975
     29 H          -7.9250  -18.7547   20.6793 H       1  UNL1        0.1232
     30 C          -6.5325  -20.1752   20.2135 C.3     1  UNL1        0.0686
     31 C          -5.2553  -19.7596   20.8814 C.3     1  UNL1        0.0185
     32 C          -5.2972  -18.9158   22.1208 C.3     1  UNL1        0.0185
     33 C          -4.0200  -18.5002   22.7886 C.3     1  UNL1        0.0686
     34 N          -2.7009  -18.9284   22.2171 N.3     1  UNL1       -0.2975
     35 C          -2.6591  -19.7722   20.9777 C.3     1  UNL1        0.0686
     36 C          -3.9363  -20.1878   20.3098 C.3     1  UNL1        0.0185
     37 H          -2.2202  -19.4538   22.9473 H       1  UNL1        0.1232
@<TRIPOS>BOND
     1    13    14   ar
     2    14    15   ar
     3    15    16   ar
     4    16    17   ar
     5    17    18   ar
     6    17    19    1
     7    19    20    1
     8    20    21    1
     9    21    12    1
    10    12     1    1
    11     1    24    1
    12    24    25    1
    13    25    26    1
    14    26    27    1
    15    27    28    1
    16    28    30    1
    17    30    31    1
    18    31    32    1
    19    32    33    1
    20    33    34    1
    21    34    35    1
    22    35    36    1
    23     2     1    1
    24     2     3    1
    25     3     4    1
    26     4     5    1
    27     5     6    1
    28     6     7   ar
    29     7     8   ar
    30     8     9   ar
    31     9    10   ar
    32    10    11   ar
    33    21    22    1
    34    18    13   ar
    35    36    31    1
    36    11     2    1
    37    22    16    1
    38    11     6   ar
    39    20    23    1
    40    28    29    1
    41    34    37    1
@<TRIPOS>MOLECULE
*****
 37 41 0 0 0
SMALL
GASTEIGER

@<TRIPOS>ATOM
      1 N          -8.8176  -18.0126   21.3542 N.3     1  UNL1       -0.2679
      2 C         -10.2403  -17.5386   21.3211 C.3     1  UNL1        0.0978
      3 C         -10.7306  -16.7175   20.1655 C.3     1  UNL1        0.0224
      4 C         -12.1534  -16.2435   20.1324 C.3     1  UNL1        0.0065
      5 C         -13.0858  -16.5905   21.2549 C.3     1  UNL1        0.0277
      6 C         -12.5955  -17.4115   22.4106 C.ar    1  UNL1       -0.0073
      7 C         -13.5280  -17.7585   23.5331 C.ar    1  UNL1       -0.0015
      8 C         -13.0377  -18.5795   24.6888 C.ar    1  UNL1        0.0203
      9 C         -11.6150  -19.0536   24.7219 C.ar    1  UNL1        0.0985
     10 N         -10.6826  -18.7066   23.5993 N.ar    1  UNL1       -0.2471
     11 C         -11.1728  -17.8855   22.4437 C.ar    1  UNL1        0.0695
     12 C          -7.6990  -17.0204   21.4741 C.3     1  UNL1        0.0886
     13 C          -6.9328  -14.8611   27.9549 C.ar    1  UNL1       -0.0003
     14 C          -8.3937  -15.0424   27.6672 C.ar    1  UNL1       -0.0003
     15 C          -8.8391  -15.5106   26.3135 C.ar    1  UNL1       -0.0045
     16 C          -7.8236  -15.7973   25.2475 C.ar    1  UNL1       -0.0234
     17 C          -6.3627  -15.6160   25.5351 C.ar    1  UNL1       -0.0103
     18 C          -5.9173  -15.1479   26.8888 C.ar    1  UNL1       -0.0032
     19 C          -5.3471  -15.9028   24.4690 C.3     1  UNL1        0.0953
     20 N          -5.7926  -16.3709   23.1154 N.3     1  UNL1       -0.2934
     21 C          -7.2536  -16.5522   22.8278 C.3     1  UNL1        0.0748
     22 C          -8.2691  -16.2655   23.8938 C.3     1  UNL1        0.0432
     23 H          -5.3465  -17.2740   22.9546 H       1  UNL1        0.1236
     24 C          -8.5134  -19.4789   21.2675 C.3     1  UNL1        0.0725
     25 C          -7.6050  -20.1173   22.2760 C.3     1  UNL1        0.0188
     26 C          -6.1747  -20.4004   21.9238 C.3     1  UNL1        0.0185
     27 C          -5.7745  -20.5663   20.4877 C.3     1  UNL1        0.0686
     28 N          -4.3306  -20.7562   20.1286 N.3     1  UNL1       -0.2975
     29 H          -4.2804  -21.5879   19.5402 H       1  UNL1        0.1232
     30 C          -3.5878  -19.6705   19.4079 C.3     1  UNL1        0.0686
     31 C          -2.8405  -18.6287   20.1865 C.3     1  UNL1        0.0185
     32 C          -1.7659  -17.8217   19.5202 C.3     1  UNL1        0.0185
     33 C          -1.0186  -16.7800   20.2988 C.3     1  UNL1        0.0686
     34 N          -1.3458  -16.5452   21.7437 N.3     1  UNL1       -0.2975
     35 C          -2.4205  -17.3522   22.4100 C.3     1  UNL1        0.0686
     36 C          -3.1678  -18.3939   21.6314 C.3     1  UNL1        0.0185
     37 H          -1.6177  -15.5658   21.8287 H       1  UNL1        0.1232
@<TRIPOS>BOND
     1    13    14   ar
     2    14    15   ar
     3    15    16   ar
     4    16    17   ar
     5    17    18   ar
     6    17    19    1
     7    19    20    1
     8    20    21    1
     9    21    12    1
    10    12     1    1
    11     1    24    1
    12    24    25    1
    13    25    26    1
    14    26    27    1
    15    27    28    1
    16    28    30    1
    17    30    31    1
    18    31    32    1
    19    32    33    1
    20    33    34    1
    21    34    35    1
    22    35    36    1
    23     2     1    1
    24     2     3    1
    25     3     4    1
    26     4     5    1
    27     5     6    1
    28     6     7   ar
    29     7     8   ar
    30     8     9   ar
    31     9    10   ar
    32    10    11   ar
    33    21    22    1
    34    18    13   ar
    35    36    31    1
    36    11     2    1
    37    22    16    1
    38    11     6   ar
    39    20    23    1
    40    28    29    1
    41    34    37    1
@<TRIPOS>MOLECULE
*****
 37 41 0 0 0
SMALL
GASTEIGER

@<TRIPOS>ATOM
      1 N          -7.5802  -19.5864   21.5883 N.3     1  UNL1       -0.2679
      2 C          -8.3415  -19.2089   22.8244 C.3     1  UNL1        0.0978
      3 C          -9.2273  -20.2157   23.4964 C.3     1  UNL1        0.0224
      4 C          -9.9887  -19.8381   24.7325 C.3     1  UNL1        0.0065
      5 C          -9.8641  -18.4538   25.2965 C.3     1  UNL1        0.0277
      6 C          -8.9783  -17.4470   24.6245 C.ar    1  UNL1       -0.0073
      7 C          -8.8538  -16.0627   25.1885 C.ar    1  UNL1       -0.0015
      8 C          -7.9679  -15.0559   24.5164 C.ar    1  UNL1        0.0203
      9 C          -7.2066  -15.4334   23.2804 C.ar    1  UNL1        0.0985
     10 N          -7.3312  -16.8177   22.7164 N.ar    1  UNL1       -0.2471
     11 C          -8.2170  -17.8245   23.3884 C.ar    1  UNL1        0.0695
     12 C          -6.2300  -20.2293   21.7061 C.3     1  UNL1        0.0886
     13 C          -0.4471  -16.8632   20.1325 C.ar    1  UNL1       -0.0003
     14 C          -0.8651  -17.6969   18.9577 C.ar    1  UNL1       -0.0003
     15 C          -2.1053  -18.5368   19.0375 C.ar    1  UNL1       -0.0045
     16 C          -2.9275  -18.5431   20.2920 C.ar    1  UNL1       -0.0234
     17 C          -2.5094  -17.7094   21.4668 C.ar    1  UNL1       -0.0103
     18 C          -1.2692  -16.8695   21.3870 C.ar    1  UNL1       -0.0032
     19 C          -3.3316  -17.7157   22.7215 C.3     1  UNL1        0.0953
     20 N          -4.5718  -18.5556   22.8012 N.3     1  UNL1       -0.2934
     21 C          -4.9898  -19.3894   21.6263 C.3     1  UNL1        0.0748
     22 C          -4.1677  -19.3831   20.3718 C.3     1  UNL1        0.0432
     23 H          -5.3448  -17.9211   23.0019 H       1  UNL1        0.1236
     24 C          -8.1689  -19.3210   20.2345 C.3     1  UNL1        0.0725
     25 C          -9.4092  -20.0448   19.8010 C.3     1  UNL1        0.0188
     26 C         -10.7572  -19.4314   20.0385 C.3     1  UNL1        0.0185
     27 C         -11.5599  -19.8274   21.2423 C.3     1  UNL1        0.0686
     28 N         -12.1145  -18.7732   22.1539 N.3     1  UNL1       -0.2975
     29 H         -11.3493  -18.4749   22.7589 H       1  UNL1        0.1232
     30 C         -12.7222  -17.5284   21.5787 C.3     1  UNL1        0.0686
     31 C         -11.8578  -16.5339   20.8619 C.3     1  UNL1        0.0185
     32 C         -10.6256  -15.9949   21.5260 C.3     1  UNL1        0.0185
     33 C          -9.7612  -15.0004   20.8092 C.3     1  UNL1        0.0686
     34 N         -10.1291  -14.5449   19.4283 N.3     1  UNL1       -0.2975
     35 C         -11.3613  -15.0838   18.7641 C.3     1  UNL1        0.0686
     36 C         -12.2257  -16.0783   19.4809 C.3     1  UNL1        0.0185
     37 H          -9.3423  -14.7773   18.8222 H       1  UNL1        0.1232
@<TRIPOS>BOND
     1    13    14   ar
     2    14    15   ar
     3    15    16   ar
     4    16    17   ar
     5    17    18   ar
     6    17    19    1
     7    19    20    1
     8    20    21    1
     9    21    12    1
    10    12     1    1
    11     1    24    1
    12    24    25    1
    13    25    26    1
    14    26    27    1
    15    27    28    1
    16    28    30    1
    17    30    31    1
    18    31    32    1
    19    32    33    1
    20    33    34    1
    21    34    35    1
    22    35    36    1
    23     2     1    1
    24     2     3    1
    25     3     4    1
    26     4     5    1
    27     5     6    1
    28     6     7   ar
    29     7     8   ar
    30     8     9   ar
    31     9    10   ar
    32    10    11   ar
    33    21    22    1
    34    18    13   ar
    35    36    31    1
    36    11     2    1
    37    22    16    1
    38    11     6   ar
    39    20    23    1
    40    28    29    1
    41    34    37    1
@<TRIPOS>MOLECULE
*****
 37 41 0 0 0
SMALL
GASTEIGER

@<TRIPOS>ATOM
      1 N          -7.8162  -19.6197   21.3457 N.3     1  UNL1       -0.2679
      2 C          -8.4412  -19.2783   22.6658 C.3     1  UNL1        0.0978
      3 C          -9.1931  -20.3255   23.4328 C.3     1  UNL1        0.0224
      4 C          -9.8181  -19.9841   24.7530 C.3     1  UNL1        0.0065
      5 C          -9.6912  -18.5957   25.3062 C.3     1  UNL1        0.0277
      6 C          -8.9393  -17.5485   24.5393 C.ar    1  UNL1       -0.0073
      7 C          -8.8124  -16.1601   25.0925 C.ar    1  UNL1       -0.0015
      8 C          -8.0606  -15.1130   24.3255 C.ar    1  UNL1        0.0203
      9 C          -7.4356  -15.4543   23.0053 C.ar    1  UNL1        0.0985
     10 N          -7.5625  -16.8427   22.4521 N.ar    1  UNL1       -0.2471
     11 C          -8.3143  -17.8898   23.2191 C.ar    1  UNL1        0.0695
     12 C          -6.4770  -20.2939   21.3018 C.3     1  UNL1        0.0886
     13 C          -0.5702  -16.9355   20.2620 C.ar    1  UNL1       -0.0003
     14 C          -0.9369  -17.6820   19.0137 C.ar    1  UNL1       -0.0003
     15 C          -2.1915  -18.5030   18.9721 C.ar    1  UNL1       -0.0045
     16 C          -3.0796  -18.5775   20.1786 C.ar    1  UNL1       -0.0234
     17 C          -2.7129  -17.8309   21.4269 C.ar    1  UNL1       -0.0103
     18 C          -1.4582  -17.0099   21.4685 C.ar    1  UNL1       -0.0032
     19 C          -3.6009  -17.9053   22.6335 C.3     1  UNL1        0.0953
     20 N          -4.8556  -18.7263   22.5918 N.3     1  UNL1       -0.2934
     21 C          -5.2223  -19.4729   21.3435 C.3     1  UNL1        0.0748
     22 C          -4.3342  -19.3984   20.1369 C.3     1  UNL1        0.0432
     23 H          -5.6290  -18.0926   22.7938 H       1  UNL1        0.1236
     24 C          -8.5305  -19.2868   20.0693 C.3     1  UNL1        0.0725
     25 C          -9.9698  -19.6705   19.8932 C.3     1  UNL1        0.0188
     26 C         -11.0237  -18.6072   19.8014 C.3     1  UNL1        0.0185
     27 C         -10.8427  -17.3072   20.5276 C.3     1  UNL1        0.0686
     28 N         -11.7509  -16.9522   21.6675 N.3     1  UNL1       -0.2975
     29 H         -11.9444  -15.9537   21.5898 H       1  UNL1        0.1232
     30 C         -13.0759  -17.6399   21.8130 C.3     1  UNL1        0.0686
     31 C         -13.5785  -18.0193   23.1744 C.3     1  UNL1        0.0185
     32 C         -15.0468  -18.2255   23.4013 C.3     1  UNL1        0.0185
     33 C         -15.5494  -18.6048   24.7627 C.3     1  UNL1        0.0686
     34 N         -14.5837  -18.7780   25.8973 N.3     1  UNL1       -0.2975
     35 C         -13.1154  -18.5718   25.6705 C.3     1  UNL1        0.0686
     36 C         -12.6128  -18.1925   24.3090 C.3     1  UNL1        0.0185
     37 H         -14.6978  -19.7326   26.2380 H       1  UNL1        0.1232
@<TRIPOS>BOND
     1    13    14   ar
     2    14    15   ar
     3    15    16   ar
     4    16    17   ar
     5    17    18   ar
     6    17    19    1
     7    19    20    1
     8    20    21    1
     9    21    12    1
    10    12     1    1
    11     1    24    1
    12    24    25    1
    13    25    26    1
    14    26    27    1
    15    27    28    1
    16    28    30    1
    17    30    31    1
    18    31    32    1
    19    32    33    1
    20    33    34    1
    21    34    35    1
    22    35    36    1
    23     2     1    1
    24     2     3    1
    25     3     4    1
    26     4     5    1
    27     5     6    1
    28     6     7   ar
    29     7     8   ar
    30     8     9   ar
    31     9    10   ar
    32    10    11   ar
    33    21    22    1
    34    18    13   ar
    35    36    31    1
    36    11     2    1
    37    22    16    1
    38    11     6   ar
    39    20    23    1
    40    28    29    1
    41    34    37    1
@<TRIPOS>MOLECULE
*****
 37 41 0 0 0
SMALL
GASTEIGER

@<TRIPOS>ATOM
      1 N          -5.8709  -18.8650   21.6791 N.3     1  UNL1       -0.2679
      2 C          -4.4239  -18.5597   21.9301 C.3     1  UNL1        0.0978
      3 C          -3.8952  -18.5344   23.3336 C.3     1  UNL1        0.0224
      4 C          -2.4482  -18.2291   23.5846 C.3     1  UNL1        0.0065
      5 C          -1.5299  -17.9492   22.4320 C.3     1  UNL1        0.0277
      6 C          -2.0586  -17.9745   21.0285 C.ar    1  UNL1       -0.0073
      7 C          -1.1404  -17.6945   19.8760 C.ar    1  UNL1       -0.0015
      8 C          -1.6691  -17.7198   18.4725 C.ar    1  UNL1        0.0203
      9 C          -3.1160  -18.0251   18.2215 C.ar    1  UNL1        0.0985
     10 N          -4.0343  -18.3050   19.3740 N.ar    1  UNL1       -0.2471
     11 C          -3.5056  -18.2797   20.7776 C.ar    1  UNL1        0.0695
     12 C          -6.8816  -17.7566   21.6750 C.3     1  UNL1        0.0886
     13 C          -7.8483  -14.7499   27.7803 C.ar    1  UNL1       -0.0003
     14 C          -6.4007  -14.6407   27.4030 C.ar    1  UNL1       -0.0003
     15 C          -5.9178  -15.2202   26.1064 C.ar    1  UNL1       -0.0045
     16 C          -6.8826  -15.9089   25.1872 C.ar    1  UNL1       -0.0234
     17 C          -8.3302  -16.0180   25.5646 C.ar    1  UNL1       -0.0103
     18 C          -8.8130  -15.4385   26.8611 C.ar    1  UNL1       -0.0032
     19 C          -9.2950  -16.7067   24.6454 C.3     1  UNL1        0.0953
     20 N          -8.8121  -17.2862   23.3488 N.3     1  UNL1       -0.2934
     21 C          -7.3644  -17.1770   22.9715 C.3     1  UNL1        0.0748
     22 C          -6.3997  -16.4884   23.8907 C.3     1  UNL1        0.0432
     23 H          -9.3449  -16.8322   22.6068 H       1  UNL1        0.1236
     24 C          -6.3073  -20.2788   21.4323 C.3     1  UNL1        0.0725
     25 C          -6.2663  -20.8448   20.0438 C.3     1  UNL1        0.0188
     26 C          -7.4811  -20.7698   19.1671 C.3     1  UNL1        0.0185
     27 C          -8.4270  -19.6125   19.2936 C.3     1  UNL1        0.0686
     28 N          -9.9080  -19.8455   19.2444 N.3     1  UNL1       -0.2975
     29 H         -10.0500  -20.7389   18.7731 H       1  UNL1        0.1232
     30 C         -10.7020  -19.8957   20.5160 C.3     1  UNL1        0.0686
     31 C         -11.2818  -18.6362   21.0883 C.3     1  UNL1        0.0185
     32 C         -11.9740  -18.6662   22.4187 C.3     1  UNL1        0.0185
     33 C         -12.5538  -17.4068   22.9911 C.3     1  UNL1        0.0686
     34 N         -12.4415  -16.1173   22.2330 N.3     1  UNL1       -0.2975
     35 C         -11.7494  -16.0873   20.9026 C.3     1  UNL1        0.0686
     36 C         -11.1695  -17.3468   20.3303 C.3     1  UNL1        0.0185
     37 H         -11.9457  -15.4625   22.8378 H       1  UNL1        0.1232
@<TRIPOS>BOND
     1    13    14   ar
     2    14    15   ar
     3    15    16   ar
     4    16    17   ar
     5    17    18   ar
     6    17    19    1
     7    19    20    1
     8    20    21    1
     9    21    12    1
    10    12     1    1
    11     1    24    1
    12    24    25    1
    13    25    26    1
    14    26    27    1
    15    27    28    1
    16    28    30    1
    17    30    31    1
    18    31    32    1
    19    32    33    1
    20    33    34    1
    21    34    35    1
    22    35    36    1
    23     2     1    1
    24     2     3    1
    25     3     4    1
    26     4     5    1
    27     5     6    1
    28     6     7   ar
    29     7     8   ar
    30     8     9   ar
    31     9    10   ar
    32    10    11   ar
    33    21    22    1
    34    18    13   ar
    35    36    31    1
    36    11     2    1
    37    22    16    1
    38    11     6   ar
    39    20    23    1
    40    28    29    1
    41    34    37    1
@<TRIPOS>MOLECULE
*****
 37 41 0 0 0
SMALL
GASTEIGER

@<TRIPOS>ATOM
      1 N          -6.6848  -18.5111   20.7216 N.3     1  UNL1       -0.2679
      2 C          -5.2939  -18.9245   21.1018 C.3     1  UNL1        0.0978
      3 C          -5.0662  -19.7429   22.3380 C.3     1  UNL1        0.0224
      4 C          -3.6752  -20.1563   22.7182 C.3     1  UNL1        0.0065
      5 C          -2.5121  -19.7511   21.8622 C.3     1  UNL1        0.0277
      6 C          -2.7397  -18.9327   20.6260 C.ar    1  UNL1       -0.0073
      7 C          -1.5766  -18.5275   19.7699 C.ar    1  UNL1       -0.0015
      8 C          -1.8043  -17.7091   18.5337 C.ar    1  UNL1        0.0203
      9 C          -3.1951  -17.2958   18.1535 C.ar    1  UNL1        0.0985
     10 N          -4.3583  -17.7009   19.0095 N.ar    1  UNL1       -0.2471
     11 C          -4.1306  -18.5193   20.2458 C.ar    1  UNL1        0.0695
     12 C          -7.2442  -17.2121   21.2214 C.3     1  UNL1        0.0886
     13 C          -6.9742  -15.0352   27.7358 C.ar    1  UNL1       -0.0003
     14 C          -8.4061  -15.2688   27.3551 C.ar    1  UNL1       -0.0003
     15 C          -8.7465  -15.7509   25.9761 C.ar    1  UNL1       -0.0045
     16 C          -7.6550  -15.9994   24.9778 C.ar    1  UNL1       -0.0234
     17 C          -6.2230  -15.7658   25.3585 C.ar    1  UNL1       -0.0103
     18 C          -5.8826  -15.2837   26.7375 C.ar    1  UNL1       -0.0032
     19 C          -5.1314  -16.0144   24.3601 C.3     1  UNL1        0.0953
     20 N          -5.4718  -16.4965   22.9811 N.3     1  UNL1       -0.2934
     21 C          -6.9038  -16.7300   22.6004 C.3     1  UNL1        0.0748
     22 C          -7.9954  -16.4815   23.5987 C.3     1  UNL1        0.0432
     23 H          -4.9840  -17.3827   22.8502 H       1  UNL1        0.1236
     24 C          -7.5162  -19.3967   19.8416 C.3     1  UNL1        0.0725
     25 C          -8.7856  -19.9981   20.3679 C.3     1  UNL1        0.0188
     26 C         -10.1108  -19.5318   19.8421 C.3     1  UNL1        0.0185
     27 C         -10.4209  -18.0652   19.7847 C.3     1  UNL1        0.0686
     28 N         -11.8324  -17.5896   19.9622 N.3     1  UNL1       -0.2975
     29 H         -12.4274  -18.4177   19.9371 H       1  UNL1        0.1232
     30 C         -12.2151  -16.8184   21.1905 C.3     1  UNL1        0.0686
     31 C         -12.2725  -17.5078   22.5214 C.3     1  UNL1        0.0185
     32 C         -13.5830  -17.6480   23.2375 C.3     1  UNL1        0.0185
     33 C         -13.6404  -18.3374   24.5685 C.3     1  UNL1        0.0686
     34 N         -12.3873  -18.8867   25.1833 N.3     1  UNL1       -0.2975
     35 C         -11.0768  -18.7465   24.4671 C.3     1  UNL1        0.0686
     36 C         -11.0194  -18.0571   23.1362 C.3     1  UNL1        0.0185
     37 H         -12.5411  -19.8853   25.3231 H       1  UNL1        0.1232
@<TRIPOS>BOND
     1    13    14   ar
     2    14    15   ar
     3    15    16   ar
     4    16    17   ar
     5    17    18   ar
     6    17    19    1
     7    19    20    1
     8    20    21    1
     9    21    12    1
    10    12     1    1
    11     1    24    1
    12    24    25    1
    13    25    26    1
    14    26    27    1
    15    27    28    1
    16    28    30    1
    17    30    31    1
    18    31    32    1
    19    32    33    1
    20    33    34    1
    21    34    35    1
    22    35    36    1
    23     2     1    1
    24     2     3    1
    25     3     4    1
    26     4     5    1
    27     5     6    1
    28     6     7   ar
    29     7     8   ar
    30     8     9   ar
    31     9    10   ar
    32    10    11   ar
    33    21    22    1
    34    18    13   ar
    35    36    31    1
    36    11     2    1
    37    22    16    1
    38    11     6   ar
    39    20    23    1
    40    28    29    1
    41    34    37    1
@<TRIPOS>MOLECULE
*****
 37 41 0 0 0
SMALL
GASTEIGER

@<TRIPOS>ATOM
      1 N         -13.9829   -3.9148   18.7156 N.3     1  UNL1       -0.2679
      2 C         -12.7733   -4.7826   18.5321 C.3     1  UNL1        0.0978
      3 C         -12.7482   -6.1663   19.1107 C.3     1  UNL1        0.0224
      4 C         -11.5385   -7.0341   18.9271 C.3     1  UNL1        0.0065
      5 C         -10.3540   -6.5182   18.1651 C.3     1  UNL1        0.0277
      6 C         -10.3792   -5.1345   17.5865 C.ar    1  UNL1       -0.0073
      7 C          -9.1947   -4.6187   16.8244 C.ar    1  UNL1       -0.0015
      8 C          -9.2198   -3.2349   16.2459 C.ar    1  UNL1        0.0203
      9 C         -10.4294   -2.3671   16.4294 C.ar    1  UNL1        0.0985
     10 N         -11.6139   -2.8830   17.1914 N.ar    1  UNL1       -0.2471
     11 C         -11.5888   -4.2667   17.7700 C.ar    1  UNL1        0.0695
     12 C         -14.0498   -2.9549   19.8664 C.3     1  UNL1        0.0886
     13 C         -15.9724    3.4364   18.2217 C.ar    1  UNL1       -0.0003
     14 C         -14.7092    3.0991   17.4866 C.ar    1  UNL1       -0.0003
     15 C         -14.0720    1.7534   17.6685 C.ar    1  UNL1       -0.0045
     16 C         -14.6980    0.7450   18.5855 C.ar    1  UNL1       -0.0234
     17 C         -15.9612    1.0822   19.3207 C.ar    1  UNL1       -0.0103
     18 C         -16.5984    2.4279   19.1388 C.ar    1  UNL1       -0.0032
     19 C         -16.5874    0.0738   20.2378 C.3     1  UNL1        0.0953
     20 N         -15.9502   -1.2719   20.4197 N.3     1  UNL1       -0.2934
     21 C         -14.6869   -1.6092   19.6845 C.3     1  UNL1        0.0748
     22 C         -14.0609   -0.6008   18.7674 C.3     1  UNL1        0.0432
     23 H         -16.6451   -1.9663   20.1451 H       1  UNL1        0.1236
     24 C         -15.1257   -4.0068   17.7484 C.3     1  UNL1        0.0725
     25 C         -16.2532   -4.9614   18.0082 C.3     1  UNL1        0.0188
     26 C         -16.9855   -4.9190   19.3166 C.3     1  UNL1        0.0185
     27 C         -18.4388   -5.2857   19.3749 C.3     1  UNL1        0.0686
     28 N         -18.8508   -6.7274   19.3327 N.3     1  UNL1       -0.2975
     29 H         -18.7807   -7.0253   18.3597 H       1  UNL1        0.1232
     30 C         -18.1103   -7.7433   20.1510 C.3     1  UNL1        0.0686
     31 C         -17.1839   -8.7147   19.4815 C.3     1  UNL1        0.0185
     32 C         -17.6686  -10.0884   19.1237 C.3     1  UNL1        0.0185
     33 C         -16.7422  -11.0598   18.4543 C.3     1  UNL1        0.0686
     34 N         -15.3311  -10.6575   18.1426 N.3     1  UNL1       -0.2975
     35 C         -14.8465   -9.2838   18.5005 C.3     1  UNL1        0.0686
     36 C         -15.7729   -8.3124   19.1699 C.3     1  UNL1        0.0185
     37 H         -15.2119  -10.7585   17.1347 H       1  UNL1        0.1232
@<TRIPOS>BOND
     1    13    14   ar
     2    14    15   ar
     3    15    16   ar
     4    16    17   ar
     5    17    18   ar
     6    17    19    1
     7    19    20    1
     8    20    21    1
     9    21    12    1
    10    12     1    1
    11     1    24    1
    12    24    25    1
    13    25    26    1
    14    26    27    1
    15    27    28    1
    16    28    30    1
    17    30    31    1
    18    31    32    1
    19    32    33    1
    20    33    34    1
    21    34    35    1
    22    35    36    1
    23     2     1    1
    24     2     3    1
    25     3     4    1
    26     4     5    1
    27     5     6    1
    28     6     7   ar
    29     7     8   ar
    30     8     9   ar
    31     9    10   ar
    32    10    11   ar
    33    21    22    1
    34    18    13   ar
    35    36    31    1
    36    11     2    1
    37    22    16    1
    38    11     6   ar
    39    20    23    1
    40    28    29    1
    41    34    37    1
@<TRIPOS>MOLECULE
*****
 37 41 0 0 0
SMALL
GASTEIGER

@<TRIPOS>ATOM
      1 N           7.1391   -3.9943   22.9164 N.3     1  UNL1       -0.2679
      2 C           7.7565   -5.2044   23.5523 C.3     1  UNL1        0.0978
      3 C           8.5380   -6.1745   22.7167 C.3     1  UNL1        0.0224
      4 C           9.1554   -7.3846   23.3527 C.3     1  UNL1        0.0065
      5 C           8.9914   -7.6247   24.8242 C.3     1  UNL1        0.0277
      6 C           8.2099   -6.6546   25.6598 C.ar    1  UNL1       -0.0073
      7 C           8.0458   -6.8946   27.1313 C.ar    1  UNL1       -0.0015
      8 C           7.2643   -5.9246   27.9669 C.ar    1  UNL1        0.0203
      9 C           6.6469   -4.7145   27.3310 C.ar    1  UNL1        0.0985
     10 N           6.8110   -4.4744   25.8595 N.ar    1  UNL1       -0.2471
     11 C           7.5925   -5.4445   25.0239 C.ar    1  UNL1        0.0695
     12 C           5.6800   -3.9920   22.5683 C.3     1  UNL1        0.0886
     13 C           1.2873    1.2259   23.4213 C.ar    1  UNL1       -0.0003
     14 C           1.2884    0.8159   21.9785 C.ar    1  UNL1       -0.0003
     15 C           2.1671   -0.3097   21.5193 C.ar    1  UNL1       -0.0045
     16 C           3.0448   -1.0253   22.5030 C.ar    1  UNL1       -0.0234
     17 C           3.0438   -0.6152   23.9458 C.ar    1  UNL1       -0.0103
     18 C           2.1650    0.5104   24.4049 C.ar    1  UNL1       -0.0032
     19 C           3.9215   -1.3307   24.9295 C.3     1  UNL1        0.0953
     20 N           4.8002   -2.4563   24.4704 N.3     1  UNL1       -0.2934
     21 C           4.8013   -2.8664   23.0275 C.3     1  UNL1        0.0748
     22 C           3.9236   -2.1509   22.0438 C.3     1  UNL1        0.0432
     23 H           4.5311   -3.2790   25.0101 H       1  UNL1        0.1236
     24 C           7.9808   -2.7865   22.6285 C.3     1  UNL1        0.0725
     25 C           7.8840   -2.1053   21.2957 C.3     1  UNL1        0.0188
     26 C           7.9360   -2.9150   20.0340 C.3     1  UNL1        0.0185
     27 C           8.0282   -2.2267   18.7044 C.3     1  UNL1        0.0686
     28 N           6.8352   -2.1874   17.7959 N.3     1  UNL1       -0.2975
     29 H           6.8731   -3.0308   17.2235 H       1  UNL1        0.1232
     30 C           5.4533   -2.1189   18.3751 C.3     1  UNL1        0.0686
     31 C           4.7931   -0.7885   18.5850 C.3     1  UNL1        0.0185
     32 C           5.4400    0.2392   19.4655 C.3     1  UNL1        0.0185
     33 C           4.7799    1.5697   19.6753 C.3     1  UNL1        0.0686
     34 N           3.4727    1.8725   19.0047 N.3     1  UNL1       -0.2975
     35 C           2.8258    0.8448   18.1243 C.3     1  UNL1        0.0686
     36 C           3.4860   -0.4857   17.9144 C.3     1  UNL1        0.0185
     37 H           3.6221    2.7013   18.4293 H       1  UNL1        0.1232
@<TRIPOS>BOND
     1    13    14   ar
     2    14    15   ar
     3    15    16   ar
     4    16    17   ar
     5    17    18   ar
     6    17    19    1
     7    19    20    1
     8    20    21    1
     9    21    12    1
    10    12     1    1
    11     1    24    1
    12    24    25    1
    13    25    26    1
    14    26    27    1
    15    27    28    1
    16    28    30    1
    17    30    31    1
    18    31    32    1
    19    32    33    1
    20    33    34    1
    21    34    35    1
    22    35    36    1
    23     2     1    1
    24     2     3    1
    25     3     4    1
    26     4     5    1
    27     5     6    1
    28     6     7   ar
    29     7     8   ar
    30     8     9   ar
    31     9    10   ar
    32    10    11   ar
    33    21    22    1
    34    18    13   ar
    35    36    31    1
    36    11     2    1
    37    22    16    1
    38    11     6   ar
    39    20    23    1
    40    28    29    1
    41    34    37    1
