@<TRIPOS>MOLECULE
*****
 41 45 0 0 0
SMALL
GASTEIGER

@<TRIPOS>ATOM
      1 C           3.3496   -0.5464   24.7011 C.ar    1  UNL1        0.0768
      2 N           4.1440   -1.7302   24.2347 N.ar    1  UNL1       -0.2480
      3 C           4.0801   -2.1575   22.7982 C.ar    1  UNL1        0.0812
      4 C           4.8744   -3.3413   22.3318 C.ar    1  UNL1        0.0214
      5 C           4.8104   -3.7685   20.8954 C.ar    1  UNL1        0.0312
      6 C           3.9521   -3.0120   19.9254 C.ar    1  UNL1        0.1402
      7 F           3.8881   -3.4394   18.4889 F       1  UNL1       -0.2042
      8 C           3.1577   -1.8282   20.3918 C.ar    1  UNL1        0.0313
      9 C           3.2217   -1.4010   21.8282 C.ar    1  UNL1        0.0243
     10 C           2.4273   -0.2171   22.2947 C.ar    1  UNL1        0.0563
     11 C           2.4913    0.2101   23.7311 C.ar    1  UNL1        0.0196
     12 C           1.5689    0.5394   21.3247 C.2     1  UNL1        0.2492
     13 O           0.1181    0.1889   21.1754 O.2     1  UNL1       -0.2699
     14 N           2.1614    1.6464   20.5040 N.am    1  UNL1       -0.2732
     15 C           3.6122    1.9969   20.6533 C.3     1  UNL1        0.1108
     16 C           4.2046    3.1039   19.8326 C.3     1  UNL1        0.0904
     17 N           3.3462    3.8604   18.8626 N.3     1  UNL1       -0.2946
     18 C           1.8954    3.5099   18.7133 C.3     1  UNL1        0.0904
     19 C           1.3030    2.4029   19.5340 C.3     1  UNL1        0.1108
     20 H           3.7724    3.7483   17.9427 H       1  UNL1        0.1233
     21 C           1.6969    1.3940   24.1976 C.ar    1  UNL1        0.0013
     22 C           2.2640    2.7764   24.0666 C.ar    1  UNL1        0.0000
     23 C           1.4696    3.9602   24.5330 C.ar    1  UNL1        0.0000
     24 C           0.1082    3.7616   25.1305 C.ar    1  UNL1        0.0000
     25 C          -0.4589    2.3791   25.2615 C.ar    1  UNL1        0.0000
     26 C           0.3354    1.1953   24.7950 C.ar    1  UNL1        0.0000
     27 C           4.1842    1.1094   26.5210 C.3     1  UNL1        0.0278
     28 C           3.4136   -0.1190   26.1376 C.3     1  UNL1        0.1109
     29 N           2.7070   -0.9202   27.1906 N.pl3   1  UNL1       -0.3142
     30 H           2.6331   -1.8976   27.0986 H       1  UNL1        0.1485
     31 C           2.1129   -0.2321   28.3837 C.ar    1  UNL1        0.1429
     32 N           0.7659    0.4199   28.2799 N.ar    1  UNL1       -0.2084
     33 C           0.1719    1.1080   29.4731 C.ar    1  UNL1        0.2012
     34 N           0.9247    1.1441   30.7700 N.ar    1  UNL1       -0.2087
     35 C           2.2716    0.4921   30.8738 C.ar    1  UNL1        0.1396
     36 N           3.0244    0.5283   32.1707 N.pl3   1  UNL1       -0.3420
     37 C           2.8657   -0.1960   29.6806 C.ar    1  UNL1        0.1308
     38 H           2.6344    0.9799   32.9538 H       1  UNL1        0.1437
     39 H           3.9084    0.1003   32.2388 H       1  UNL1        0.1437
     40 C           4.2126   -0.8479   29.7844 C.1     1  UNL1        0.1061
     41 N           5.5595   -1.4999   29.8882 N.1     1  UNL1       -0.1906
@<TRIPOS>BOND
     1    28    27    1
     2    28    29    1
     3    29    31    1
     4    31    32   ar
     5    32    33   ar
     6    33    34   ar
     7    34    35   ar
     8    35    36    1
     9    35    37   ar
    10    37    40    1
    11    40    41    3
    12    28     1    1
    13     1     2   ar
    14     2     3   ar
    15     3     4   ar
    16     4     5   ar
    17     5     6   ar
    18     6     7    1
    19     6     8   ar
    20     8     9   ar
    21     9    10   ar
    22    10    12    1
    23    12    13    2
    24    12    14   am
    25    14    15    1
    26    15    16    1
    27    16    17    1
    28    17    18    1
    29    18    19    1
    30    10    11   ar
    31    11    21    1
    32    21    22   ar
    33    22    23   ar
    34    23    24   ar
    35    24    25   ar
    36    25    26   ar
    37    37    31   ar
    38    11     1   ar
    39    26    21   ar
    40     9     3   ar
    41    19    14    1
    42    29    30    1
    43    36    38    1
    44    36    39    1
    45    17    20    1
@<TRIPOS>MOLECULE
*****
 41 45 0 0 0
SMALL
GASTEIGER

@<TRIPOS>ATOM
      1 C           2.8329    0.0914   24.5823 C.ar    1  UNL1        0.0768
      2 N           3.6350   -1.1413   24.2873 N.ar    1  UNL1       -0.2480
      3 C           3.6754   -1.6940   22.8934 C.ar    1  UNL1        0.0812
      4 C           4.4776   -2.9267   22.5983 C.ar    1  UNL1        0.0214
      5 C           4.5179   -3.4794   21.2045 C.ar    1  UNL1        0.0312
      6 C           3.7561   -2.7995   20.1057 C.ar    1  UNL1        0.1402
      7 F           3.7965   -3.3522   18.7118 F       1  UNL1       -0.2042
      8 C           2.9540   -1.5668   20.4008 C.ar    1  UNL1        0.0313
      9 C           2.9136   -1.0141   21.7946 C.ar    1  UNL1        0.0243
     10 C           2.1114    0.2186   22.0897 C.ar    1  UNL1        0.0563
     11 C           2.0711    0.7713   23.4835 C.ar    1  UNL1        0.0196
     12 C           1.3496    0.8985   20.9909 C.2     1  UNL1        0.2492
     13 O          -0.0775    0.5219   20.7235 O.2     1  UNL1       -0.2699
     14 N           2.0150    1.9551   20.1596 N.am    1  UNL1       -0.2732
     15 C           3.4420    2.3316   20.4270 C.3     1  UNL1        0.1108
     16 C           4.1073    3.3881   19.5957 C.3     1  UNL1        0.0904
     17 N           3.3455    4.0681   18.4969 N.3     1  UNL1       -0.2946
     18 C           1.9184    3.6915   18.2294 C.3     1  UNL1        0.0904
     19 C           1.2531    2.6350   19.0608 C.3     1  UNL1        0.1108
     20 H           3.8613    3.8997   17.6332 H       1  UNL1        0.1233
     21 C           1.2689    2.0040   23.7787 C.ar    1  UNL1        0.0013
     22 C           1.9013    3.3583   23.6529 C.ar    1  UNL1        0.0000
     23 C           1.0992    4.5910   23.9480 C.ar    1  UNL1        0.0000
     24 C          -0.3354    4.4693   24.3688 C.ar    1  UNL1        0.0000
     25 C          -0.9678    3.1150   24.4946 C.ar    1  UNL1        0.0000
     26 C          -0.1657    1.8823   24.1995 C.ar    1  UNL1        0.0000
     27 C           3.8955    1.5377   26.4609 C.3     1  UNL1        0.0278
     28 C           2.7925    0.6441   25.9762 C.3     1  UNL1        0.1109
     29 N           1.6492    0.3033   26.8854 N.pl3   1  UNL1       -0.3142
     30 H           0.7687    0.0791   26.5062 H       1  UNL1        0.1485
     31 C           1.8474    0.3040   28.3722 C.ar    1  UNL1        0.1429
     32 N           2.5833   -0.8248   29.0313 N.ar    1  UNL1       -0.2084
     33 C           2.7815   -0.8242   30.5181 C.ar    1  UNL1        0.2012
     34 N           2.2438    0.3053   31.3459 N.ar    1  UNL1       -0.2087
     35 C           1.5079    1.4340   30.6869 C.ar    1  UNL1        0.1396
     36 N           0.9702    2.5635   31.5147 N.pl3   1  UNL1       -0.3420
     37 C           1.3097    1.4334   29.2000 C.ar    1  UNL1        0.1308
     38 H           1.1003    2.5639   32.4906 H       1  UNL1        0.1437
     39 H           0.4872    3.3043   31.0822 H       1  UNL1        0.1437
     40 C           0.5738    2.5621   28.5410 C.1     1  UNL1        0.1061
     41 N          -0.1621    3.6909   27.8820 N.1     1  UNL1       -0.1906
@<TRIPOS>BOND
     1    28    27    1
     2    28    29    1
     3    29    31    1
     4    31    32   ar
     5    32    33   ar
     6    33    34   ar
     7    34    35   ar
     8    35    36    1
     9    35    37   ar
    10    37    40    1
    11    40    41    3
    12    28     1    1
    13     1     2   ar
    14     2     3   ar
    15     3     4   ar
    16     4     5   ar
    17     5     6   ar
    18     6     7    1
    19     6     8   ar
    20     8     9   ar
    21     9    10   ar
    22    10    12    1
    23    12    13    2
    24    12    14   am
    25    14    15    1
    26    15    16    1
    27    16    17    1
    28    17    18    1
    29    18    19    1
    30    10    11   ar
    31    11    21    1
    32    21    22   ar
    33    22    23   ar
    34    23    24   ar
    35    24    25   ar
    36    25    26   ar
    37    37    31   ar
    38    11     1   ar
    39    26    21   ar
    40     9     3   ar
    41    19    14    1
    42    29    30    1
    43    36    38    1
    44    36    39    1
    45    17    20    1
@<TRIPOS>MOLECULE
*****
 41 45 0 0 0
SMALL
GASTEIGER

@<TRIPOS>ATOM
      1 C           4.0935    0.1141   32.9856 C.ar    1  UNL1        0.0768
      2 N           2.8702    0.4562   32.1879 N.ar    1  UNL1       -0.2480
      3 C           2.1239    1.7271   32.4671 C.ar    1  UNL1        0.0812
      4 C           0.9006    2.0692   31.6694 C.ar    1  UNL1        0.0214
      5 C           0.1543    3.3401   31.9487 C.ar    1  UNL1        0.0312
      6 C           0.6314    4.2689   33.0256 C.ar    1  UNL1        0.1402
      7 F          -0.1148    5.5398   33.3048 F       1  UNL1       -0.2042
      8 C           1.8548    3.9268   33.8233 C.ar    1  UNL1        0.0313
      9 C           2.6010    2.6559   33.5441 C.ar    1  UNL1        0.0243
     10 C           3.8244    2.3137   34.3418 C.ar    1  UNL1        0.0563
     11 C           4.5706    1.0429   34.0625 C.ar    1  UNL1        0.0196
     12 C           4.3015    3.2425   35.4187 C.2     1  UNL1        0.2492
     13 O           5.3081    4.3076   35.0988 O.2     1  UNL1       -0.2699
     14 N           3.7720    3.1061   36.8155 N.am    1  UNL1       -0.2732
     15 C           2.7655    2.0410   37.1354 C.3     1  UNL1        0.1108
     16 C           2.2361    1.9046   38.5322 C.3     1  UNL1        0.0904
     17 N           2.7132    2.8333   39.6091 N.3     1  UNL1       -0.2946
     18 C           3.7197    3.8985   39.2893 C.3     1  UNL1        0.0904
     19 C           4.2492    4.0348   37.8925 C.3     1  UNL1        0.1108
     20 H           3.1226    2.2513   40.3399 H       1  UNL1        0.1233
     21 C           5.7940    0.7007   34.8602 C.ar    1  UNL1        0.0013
     22 C           7.1446    1.1599   34.3963 C.ar    1  UNL1        0.0000
     23 C           8.3679    0.8177   35.1939 C.ar    1  UNL1        0.0000
     24 C           8.2408    0.0164   36.4555 C.ar    1  UNL1        0.0000
     25 C           6.8903   -0.4427   36.9195 C.ar    1  UNL1        0.0000
     26 C           5.6669   -0.1006   36.1219 C.ar    1  UNL1        0.0000
     27 C           4.3846   -2.4452   33.3251 C.3     1  UNL1        0.0278
     28 C           4.8398   -1.1568   32.7064 C.3     1  UNL1        0.1109
     29 N           6.0412   -1.1393   31.8085 N.pl3   1  UNL1       -0.3142
     30 H           6.7708   -0.4995   31.9748 H       1  UNL1        0.1485
     31 C           6.1311   -2.0965   30.6572 C.ar    1  UNL1        0.1429
     32 N           6.7416   -3.4524   30.8549 N.ar    1  UNL1       -0.2084
     33 C           6.8315   -4.4096   29.7036 C.ar    1  UNL1        0.2012
     34 N           6.3108   -4.0111   28.3545 N.ar    1  UNL1       -0.2087
     35 C           5.7003   -2.6553   28.1567 C.ar    1  UNL1        0.1396
     36 N           5.1796   -2.2568   26.8076 N.pl3   1  UNL1       -0.3420
     37 C           5.6104   -1.6980   29.3081 C.ar    1  UNL1        0.1308
     38 H           5.2386   -2.8851   26.0520 H       1  UNL1        0.1437
     39 H           4.7789   -1.3670   26.6778 H       1  UNL1        0.1437
     40 C           4.9999   -0.3423   29.1103 C.1     1  UNL1        0.1061
     41 N           4.3894    1.0135   28.9125 N.1     1  UNL1       -0.1906
@<TRIPOS>BOND
     1    28    27    1
     2    28    29    1
     3    29    31    1
     4    31    32   ar
     5    32    33   ar
     6    33    34   ar
     7    34    35   ar
     8    35    36    1
     9    35    37   ar
    10    37    40    1
    11    40    41    3
    12    28     1    1
    13     1     2   ar
    14     2     3   ar
    15     3     4   ar
    16     4     5   ar
    17     5     6   ar
    18     6     7    1
    19     6     8   ar
    20     8     9   ar
    21     9    10   ar
    22    10    12    1
    23    12    13    2
    24    12    14   am
    25    14    15    1
    26    15    16    1
    27    16    17    1
    28    17    18    1
    29    18    19    1
    30    10    11   ar
    31    11    21    1
    32    21    22   ar
    33    22    23   ar
    34    23    24   ar
    35    24    25   ar
    36    25    26   ar
    37    37    31   ar
    38    11     1   ar
    39    26    21   ar
    40     9     3   ar
    41    19    14    1
    42    29    30    1
    43    36    38    1
    44    36    39    1
    45    17    20    1
@<TRIPOS>MOLECULE
*****
 41 45 0 0 0
SMALL
GASTEIGER

@<TRIPOS>ATOM
      1 C           3.4811   -0.3665   23.9405 C.ar    1  UNL1        0.0768
      2 N           2.8920    0.0652   25.2506 N.ar    1  UNL1       -0.2480
      3 C           1.6226    0.8640   25.2753 C.ar    1  UNL1        0.0812
      4 C           1.0334    1.2958   26.5854 C.ar    1  UNL1        0.0214
      5 C          -0.2359    2.0945   26.6100 C.ar    1  UNL1        0.0312
      6 C          -0.9161    2.4616   25.3245 C.ar    1  UNL1        0.1402
      7 F          -2.1856    3.2604   25.3491 F       1  UNL1       -0.2042
      8 C          -0.3270    2.0298   24.0143 C.ar    1  UNL1        0.0313
      9 C           0.9424    1.2311   23.9898 C.ar    1  UNL1        0.0243
     10 C           1.5316    0.7993   22.6796 C.ar    1  UNL1        0.0563
     11 C           2.8009    0.0005   22.6550 C.ar    1  UNL1        0.0196
     12 C           0.8514    1.1663   21.3940 C.2     1  UNL1        0.2492
     13 O          -0.1711    0.2455   20.7970 O.2     1  UNL1       -0.2699
     14 N           1.1937    2.4543   20.7055 N.am    1  UNL1       -0.2732
     15 C           2.2162    3.3752   21.3025 C.3     1  UNL1        0.1108
     16 C           2.5585    4.6631   20.6140 C.3     1  UNL1        0.0904
     17 N           1.8783    5.0301   19.3285 N.3     1  UNL1       -0.2946
     18 C           0.8558    4.1093   18.7315 C.3     1  UNL1        0.0904
     19 C           0.5135    2.8214   19.4200 C.3     1  UNL1        0.1108
     20 H           2.6123    5.1475   18.6300 H       1  UNL1        0.1233
     21 C           3.3901   -0.4313   21.3448 C.ar    1  UNL1        0.0013
     22 C           4.4845    0.3763   20.7121 C.ar    1  UNL1        0.0000
     23 C           5.0737   -0.0554   19.4020 C.ar    1  UNL1        0.0000
     24 C           4.5686   -1.2947   18.7246 C.ar    1  UNL1        0.0000
     25 C           3.4743   -2.1023   19.3573 C.ar    1  UNL1        0.0000
     26 C           2.8850   -1.6706   20.6674 C.ar    1  UNL1        0.0000
     27 C           6.0770   -0.4676   23.9765 C.3     1  UNL1        0.0278
     28 C           4.7506   -1.1653   23.9159 C.3     1  UNL1        0.1109
     29 N           4.6935   -2.6618   23.8306 N.pl3   1  UNL1       -0.3142
     30 H           3.9470   -3.1504   24.2468 H       1  UNL1        0.1485
     31 C           5.7738   -3.4137   23.1113 C.ar    1  UNL1        0.1429
     32 N           5.8472   -3.3717   21.6137 N.ar    1  UNL1       -0.2084
     33 C           6.9276   -4.1237   20.8944 C.ar    1  UNL1        0.2012
     34 N           7.9345   -4.9176   21.6726 N.ar    1  UNL1       -0.2087
     35 C           7.8611   -4.9596   23.1702 C.ar    1  UNL1        0.1396
     36 N           8.8680   -5.7536   23.9485 N.pl3   1  UNL1       -0.3420
     37 C           6.7807   -4.2077   23.8896 C.ar    1  UNL1        0.1308
     38 H           9.5771   -6.2471   23.4764 H       1  UNL1        0.1437
     39 H           8.8199   -5.7811   24.9314 H       1  UNL1        0.1437
     40 C           6.7074   -4.2497   25.3872 C.1     1  UNL1        0.1061
     41 N           6.6340   -4.2917   26.8848 N.1     1  UNL1       -0.1906
@<TRIPOS>BOND
     1    28    27    1
     2    28    29    1
     3    29    31    1
     4    31    32   ar
     5    32    33   ar
     6    33    34   ar
     7    34    35   ar
     8    35    36    1
     9    35    37   ar
    10    37    40    1
    11    40    41    3
    12    28     1    1
    13     1     2   ar
    14     2     3   ar
    15     3     4   ar
    16     4     5   ar
    17     5     6   ar
    18     6     7    1
    19     6     8   ar
    20     8     9   ar
    21     9    10   ar
    22    10    12    1
    23    12    13    2
    24    12    14   am
    25    14    15    1
    26    15    16    1
    27    16    17    1
    28    17    18    1
    29    18    19    1
    30    10    11   ar
    31    11    21    1
    32    21    22   ar
    33    22    23   ar
    34    23    24   ar
    35    24    25   ar
    36    25    26   ar
    37    37    31   ar
    38    11     1   ar
    39    26    21   ar
    40     9     3   ar
    41    19    14    1
    42    29    30    1
    43    36    38    1
    44    36    39    1
    45    17    20    1
@<TRIPOS>MOLECULE
*****
 41 45 0 0 0
SMALL
GASTEIGER

@<TRIPOS>ATOM
      1 C           4.6188   -0.7568   25.0103 C.ar    1  UNL1        0.0768
      2 N           3.4011    0.0940   24.8023 N.ar    1  UNL1       -0.2480
      3 C           2.6662    0.0450   23.4955 C.ar    1  UNL1        0.0812
      4 C           1.4485    0.8958   23.2875 C.ar    1  UNL1        0.0214
      5 C           0.7137    0.8468   21.9808 C.ar    1  UNL1        0.0312
      6 C           1.1966   -0.0530   20.8820 C.ar    1  UNL1        0.1402
      7 F           0.4617   -0.1020   19.5753 F       1  UNL1       -0.2042
      8 C           2.4143   -0.9038   21.0901 C.ar    1  UNL1        0.0313
      9 C           3.1491   -0.8548   22.3968 C.ar    1  UNL1        0.0243
     10 C           4.3669   -1.7055   22.6049 C.ar    1  UNL1        0.0563
     11 C           5.1017   -1.6565   23.9116 C.ar    1  UNL1        0.0196
     12 C           4.8498   -2.6053   21.5061 C.2     1  UNL1        0.2492
     13 O           4.4967   -4.0630   21.5207 O.2     1  UNL1       -0.2699
     14 N           5.6859   -2.0473   20.3927 N.am    1  UNL1       -0.2732
     15 C           6.0391   -0.5895   20.3781 C.3     1  UNL1        0.1108
     16 C           6.8752   -0.0316   19.2648 C.3     1  UNL1        0.0904
     17 N           7.3581   -0.9313   18.1660 N.3     1  UNL1       -0.2946
     18 C           7.0049   -2.3890   18.1806 C.3     1  UNL1        0.0904
     19 C           6.1689   -2.9470   19.2940 C.3     1  UNL1        0.1108
     20 H           8.3765   -0.8751   18.1656 H       1  UNL1        0.1233
     21 C           6.3195   -2.5073   24.1197 C.ar    1  UNL1        0.0013
     22 C           7.6751   -1.9783   23.7557 C.ar    1  UNL1        0.0000
     23 C           8.8928   -2.8290   23.9637 C.ar    1  UNL1        0.0000
     24 C           8.7550   -4.2087   24.5357 C.ar    1  UNL1        0.0000
     25 C           7.3994   -4.7378   24.8997 C.ar    1  UNL1        0.0000
     26 C           6.1817   -3.8871   24.6917 C.ar    1  UNL1        0.0000
     27 C           6.4819    0.2622   26.5072 C.3     1  UNL1        0.0278
     28 C           5.3536   -0.7078   26.3171 C.3     1  UNL1        0.1109
     29 N           4.9603   -1.6288   27.4338 N.pl3   1  UNL1       -0.3142
     30 H           5.3398   -2.5361   27.4804 H       1  UNL1        0.1485
     31 C           3.9887   -1.1676   28.4793 C.ar    1  UNL1        0.1429
     32 N           2.5620   -0.8910   28.1076 N.ar    1  UNL1       -0.2084
     33 C           1.5905   -0.4298   29.1532 C.ar    1  UNL1        0.2012
     34 N           2.0455   -0.2452   30.5705 N.ar    1  UNL1       -0.2087
     35 C           3.4721   -0.5217   30.9423 C.ar    1  UNL1        0.1396
     36 N           3.9272   -0.3371   32.3596 N.pl3   1  UNL1       -0.3420
     37 C           4.4438   -0.9830   29.8967 C.ar    1  UNL1        0.1308
     38 H           3.2895   -0.0343   33.0459 H       1  UNL1        0.1437
     39 H           4.8635   -0.5186   32.6036 H       1  UNL1        0.1437
     40 C           5.8704   -1.2595   30.2684 C.1     1  UNL1        0.1061
     41 N           7.2970   -1.5361   30.6402 N.1     1  UNL1       -0.1906
@<TRIPOS>BOND
     1    28    27    1
     2    28    29    1
     3    29    31    1
     4    31    32   ar
     5    32    33   ar
     6    33    34   ar
     7    34    35   ar
     8    35    36    1
     9    35    37   ar
    10    37    40    1
    11    40    41    3
    12    28     1    1
    13     1     2   ar
    14     2     3   ar
    15     3     4   ar
    16     4     5   ar
    17     5     6   ar
    18     6     7    1
    19     6     8   ar
    20     8     9   ar
    21     9    10   ar
    22    10    12    1
    23    12    13    2
    24    12    14   am
    25    14    15    1
    26    15    16    1
    27    16    17    1
    28    17    18    1
    29    18    19    1
    30    10    11   ar
    31    11    21    1
    32    21    22   ar
    33    22    23   ar
    34    23    24   ar
    35    24    25   ar
    36    25    26   ar
    37    37    31   ar
    38    11     1   ar
    39    26    21   ar
    40     9     3   ar
    41    19    14    1
    42    29    30    1
    43    36    38    1
    44    36    39    1
    45    17    20    1
@<TRIPOS>MOLECULE
*****
 41 45 0 0 0
SMALL
GASTEIGER

@<TRIPOS>ATOM
      1 C           5.1947    2.5640   33.5574 C.ar    1  UNL1        0.0768
      2 N           4.2116    3.0909   32.5545 N.ar    1  UNL1       -0.2480
      3 C           3.4321    2.1388   31.6965 C.ar    1  UNL1        0.0812
      4 C           2.4491    2.6657   30.6936 C.ar    1  UNL1        0.0214
      5 C           1.6697    1.7136   29.8357 C.ar    1  UNL1        0.0312
      6 C           1.8732    0.2346   29.9809 C.ar    1  UNL1        0.1402
      7 F           1.0937   -0.7175   29.1229 F       1  UNL1       -0.2042
      8 C           2.8563   -0.2923   30.9838 C.ar    1  UNL1        0.0313
      9 C           3.6357    0.6598   31.8417 C.ar    1  UNL1        0.0243
     10 C           4.6188    0.1329   32.8447 C.ar    1  UNL1        0.0563
     11 C           5.3982    1.0849   33.7025 C.ar    1  UNL1        0.0196
     12 C           4.8224   -1.3462   32.9898 C.2     1  UNL1        0.2492
     13 O           3.9795   -2.1283   33.9529 O.2     1  UNL1       -0.2699
     14 N           5.8689   -2.0430   32.1717 N.am    1  UNL1       -0.2732
     15 C           6.7118   -1.2609   31.2085 C.3     1  UNL1        0.1108
     16 C           7.7582   -1.9577   30.3905 C.3     1  UNL1        0.0904
     17 N           7.9618   -3.4368   30.5356 N.3     1  UNL1       -0.2946
     18 C           7.1189   -4.2189   31.4987 C.3     1  UNL1        0.0904
     19 C           6.0725   -3.5221   32.3168 C.3     1  UNL1        0.1108
     20 H           8.9330   -3.5743   30.8153 H       1  UNL1        0.1233
     21 C           6.3813    0.5580   34.7055 C.ar    1  UNL1        0.0013
     22 C           5.9293    0.2293   36.0975 C.ar    1  UNL1        0.0000
     23 C           6.9123   -0.2976   37.1005 C.ar    1  UNL1        0.0000
     24 C           8.3473   -0.4958   36.7115 C.ar    1  UNL1        0.0000
     25 C           8.7993   -0.1671   35.3196 C.ar    1  UNL1        0.0000
     26 C           7.8164    0.3598   34.3166 C.ar    1  UNL1        0.0000
     27 C           7.4310    3.7490   34.1444 C.3     1  UNL1        0.0278
     28 C           5.9742    3.5161   34.4153 C.3     1  UNL1        0.1109
     29 N           5.2969    4.2351   35.5441 N.pl3   1  UNL1       -0.3142
     30 H           5.1181    5.2008   35.4758 H       1  UNL1        0.1485
     31 C           4.8920    3.4828   36.7770 C.ar    1  UNL1        0.1429
     32 N           5.8816    3.2684   37.8837 N.ar    1  UNL1       -0.2084
     33 C           5.4767    2.5161   39.1165 C.ar    1  UNL1        0.2012
     34 N           4.0821    1.9782   39.2428 N.ar    1  UNL1       -0.2087
     35 C           3.0925    2.1926   38.1362 C.ar    1  UNL1        0.1396
     36 N           1.6980    1.6546   38.2624 N.pl3   1  UNL1       -0.3420
     37 C           3.4974    2.9449   36.9032 C.ar    1  UNL1        0.1308
     38 H           1.4322    1.1609   39.0716 H       1  UNL1        0.1437
     39 H           1.0485    1.7954   37.5361 H       1  UNL1        0.1437
     40 C           2.5078    3.1593   35.7966 C.1     1  UNL1        0.1061
     41 N           1.5182    3.3737   34.6900 N.1     1  UNL1       -0.1906
@<TRIPOS>BOND
     1    28    27    1
     2    28    29    1
     3    29    31    1
     4    31    32   ar
     5    32    33   ar
     6    33    34   ar
     7    34    35   ar
     8    35    36    1
     9    35    37   ar
    10    37    40    1
    11    40    41    3
    12    28     1    1
    13     1     2   ar
    14     2     3   ar
    15     3     4   ar
    16     4     5   ar
    17     5     6   ar
    18     6     7    1
    19     6     8   ar
    20     8     9   ar
    21     9    10   ar
    22    10    12    1
    23    12    13    2
    24    12    14   am
    25    14    15    1
    26    15    16    1
    27    16    17    1
    28    17    18    1
    29    18    19    1
    30    10    11   ar
    31    11    21    1
    32    21    22   ar
    33    22    23   ar
    34    23    24   ar
    35    24    25   ar
    36    25    26   ar
    37    37    31   ar
    38    11     1   ar
    39    26    21   ar
    40     9     3   ar
    41    19    14    1
    42    29    30    1
    43    36    38    1
    44    36    39    1
    45    17    20    1
@<TRIPOS>MOLECULE
*****
 41 45 0 0 0
SMALL
GASTEIGER

@<TRIPOS>ATOM
      1 C           5.4989   -1.7699   25.2213 C.ar    1  UNL1        0.0768
      2 N           4.3617   -0.8009   25.3549 N.ar    1  UNL1       -0.2480
      3 C           3.4623   -0.5341   24.1844 C.ar    1  UNL1        0.0812
      4 C           2.3252    0.4349   24.3180 C.ar    1  UNL1        0.0214
      5 C           1.4258    0.7018   23.1476 C.ar    1  UNL1        0.0312
      6 C           1.6636   -0.0004   21.8436 C.ar    1  UNL1        0.1402
      7 F           0.7642    0.2665   20.6731 F       1  UNL1       -0.2042
      8 C           2.8007   -0.9694   21.7100 C.ar    1  UNL1        0.0313
      9 C           3.7001   -1.2362   22.8804 C.ar    1  UNL1        0.0243
     10 C           4.8373   -2.2053   22.7469 C.ar    1  UNL1        0.0563
     11 C           5.7367   -2.4721   23.9173 C.ar    1  UNL1        0.0196
     12 C           5.0751   -2.9075   21.4429 C.2     1  UNL1        0.2492
     13 O           4.5402   -4.2923   21.2283 O.2     1  UNL1       -0.2699
     14 N           5.8479   -2.2247   20.3534 N.am    1  UNL1       -0.2732
     15 C           6.3828   -0.8399   20.5680 C.3     1  UNL1        0.1108
     16 C           7.1555   -0.1573   19.4786 C.3     1  UNL1        0.0904
     17 N           7.3933   -0.8594   18.1746 N.3     1  UNL1       -0.2946
     18 C           6.8583   -2.2443   17.9600 C.3     1  UNL1        0.0904
     19 C           6.0856   -2.9269   19.0494 C.3     1  UNL1        0.1108
     20 H           8.4041   -0.9114   18.0482 H       1  UNL1        0.1233
     21 C           6.8739   -3.4412   23.7837 C.ar    1  UNL1        0.0013
     22 C           8.1890   -2.9821   23.2272 C.ar    1  UNL1        0.0000
     23 C           9.3262   -3.9510   23.0936 C.ar    1  UNL1        0.0000
     24 C           9.1483   -5.3791   23.5166 C.ar    1  UNL1        0.0000
     25 C           7.8331   -5.8382   24.0731 C.ar    1  UNL1        0.0000
     26 C           6.6960   -4.8692   24.2067 C.ar    1  UNL1        0.0000
     27 C           7.6368   -1.2138   26.5888 C.3     1  UNL1        0.0278
     28 C           6.3983   -2.0368   26.3917 C.3     1  UNL1        0.1109
     29 N           6.0592   -3.1266   27.3650 N.pl3   1  UNL1       -0.3142
     30 H           5.8825   -4.0391   27.0404 H       1  UNL1        0.1485
     31 C           5.9894   -2.8261   28.8329 C.ar    1  UNL1        0.1429
     32 N           5.3876   -1.5364   29.3067 N.ar    1  UNL1       -0.2084
     33 C           5.3178   -1.2359   30.7746 C.ar    1  UNL1        0.2012
     34 N           5.8497   -2.2251   31.7688 N.ar    1  UNL1       -0.2087
     35 C           6.4515   -3.5149   31.2951 C.ar    1  UNL1        0.1396
     36 N           6.9834   -4.5041   32.2893 N.pl3   1  UNL1       -0.3420
     37 C           6.5213   -3.8154   29.8271 C.ar    1  UNL1        0.1308
     38 H           6.9375   -4.3069   33.2527 H       1  UNL1        0.1437
     39 H           7.3783   -5.3506   31.9784 H       1  UNL1        0.1437
     40 C           7.1231   -5.1051   29.3534 C.1     1  UNL1        0.1061
     41 N           7.7248   -6.3949   28.8797 N.1     1  UNL1       -0.1906
@<TRIPOS>BOND
     1    28    27    1
     2    28    29    1
     3    29    31    1
     4    31    32   ar
     5    32    33   ar
     6    33    34   ar
     7    34    35   ar
     8    35    36    1
     9    35    37   ar
    10    37    40    1
    11    40    41    3
    12    28     1    1
    13     1     2   ar
    14     2     3   ar
    15     3     4   ar
    16     4     5   ar
    17     5     6   ar
    18     6     7    1
    19     6     8   ar
    20     8     9   ar
    21     9    10   ar
    22    10    12    1
    23    12    13    2
    24    12    14   am
    25    14    15    1
    26    15    16    1
    27    16    17    1
    28    17    18    1
    29    18    19    1
    30    10    11   ar
    31    11    21    1
    32    21    22   ar
    33    22    23   ar
    34    23    24   ar
    35    24    25   ar
    36    25    26   ar
    37    37    31   ar
    38    11     1   ar
    39    26    21   ar
    40     9     3   ar
    41    19    14    1
    42    29    30    1
    43    36    38    1
    44    36    39    1
    45    17    20    1
@<TRIPOS>MOLECULE
*****
 41 45 0 0 0
SMALL
GASTEIGER

@<TRIPOS>ATOM
      1 C          -1.4262    3.5043   23.0349 C.ar    1  UNL1        0.0768
      2 N          -0.5640    2.7176   22.0927 N.ar    1  UNL1       -0.2480
      3 C           0.4625    1.7662   22.6324 C.ar    1  UNL1        0.0812
      4 C           1.3247    0.9796   21.6902 C.ar    1  UNL1        0.0214
      5 C           2.3512    0.0282   22.2299 C.ar    1  UNL1        0.0312
      6 C           2.5154   -0.1365   23.7117 C.ar    1  UNL1        0.1402
      7 F           3.5419   -1.0879   24.2514 F       1  UNL1       -0.2042
      8 C           1.6532    0.6502   24.6539 C.ar    1  UNL1        0.0313
      9 C           0.6268    1.6015   24.1142 C.ar    1  UNL1        0.0243
     10 C          -0.2355    2.3882   25.0564 C.ar    1  UNL1        0.0563
     11 C          -1.2619    3.3396   24.5167 C.ar    1  UNL1        0.0196
     12 C          -0.0712    2.2235   26.5383 C.2     1  UNL1        0.2492
     13 O          -0.8961    1.2113   27.2764 O.2     1  UNL1       -0.2699
     14 N           0.9179    3.0712   27.2820 N.am    1  UNL1       -0.2732
     15 C           1.7428    4.0835   26.5439 C.3     1  UNL1        0.1108
     16 C           2.7319    4.9310   27.2877 C.3     1  UNL1        0.0904
     17 N           2.8962    4.7663   28.7695 N.3     1  UNL1       -0.2946
     18 C           2.0713    3.7541   29.5076 C.3     1  UNL1        0.0904
     19 C           1.0822    2.9065   28.7639 C.3     1  UNL1        0.1108
     20 H           2.6953    5.6734   29.1906 H       1  UNL1        0.1233
     21 C          -2.1242    4.1263   25.4589 C.ar    1  UNL1        0.0013
     22 C          -3.4461    3.5745   25.9039 C.ar    1  UNL1        0.0000
     23 C          -4.3083    4.3612   26.8461 C.ar    1  UNL1        0.0000
     24 C          -3.8487    5.6996   27.3432 C.ar    1  UNL1        0.0000
     25 C          -2.5267    6.2514   26.8982 C.ar    1  UNL1        0.0000
     26 C          -1.6645    5.4648   25.9560 C.ar    1  UNL1        0.0000
     27 C          -2.0894    5.8899   22.2480 C.3     1  UNL1        0.0278
     28 C          -2.4527    4.4557   22.4952 C.3     1  UNL1        0.1109
     29 N          -3.8424    3.9729   22.2028 N.pl3   1  UNL1       -0.3142
     30 H          -4.4148    3.6478   22.9348 H       1  UNL1        0.1485
     31 C          -4.3600    3.9855   20.7950 C.ar    1  UNL1        0.1429
     32 N          -3.4173    3.7744   19.6474 N.ar    1  UNL1       -0.2084
     33 C          -3.9349    3.7870   18.2396 C.ar    1  UNL1        0.2012
     34 N          -5.3951    4.0108   17.9793 N.ar    1  UNL1       -0.2087
     35 C          -6.3377    4.2219   19.1268 C.ar    1  UNL1        0.1396
     36 N          -7.7979    4.4457   18.8666 N.pl3   1  UNL1       -0.3420
     37 C          -5.8202    4.2093   20.5347 C.ar    1  UNL1        0.1308
     38 H          -8.1376    4.4539   17.9426 H       1  UNL1        0.1437
     39 H          -8.4166    4.5843   19.6197 H       1  UNL1        0.1437
     40 C          -6.7628    4.4205   21.6822 C.1     1  UNL1        0.1061
     41 N          -7.7054    4.6316   22.8297 N.1     1  UNL1       -0.1906
@<TRIPOS>BOND
     1    28    27    1
     2    28    29    1
     3    29    31    1
     4    31    32   ar
     5    32    33   ar
     6    33    34   ar
     7    34    35   ar
     8    35    36    1
     9    35    37   ar
    10    37    40    1
    11    40    41    3
    12    28     1    1
    13     1     2   ar
    14     2     3   ar
    15     3     4   ar
    16     4     5   ar
    17     5     6   ar
    18     6     7    1
    19     6     8   ar
    20     8     9   ar
    21     9    10   ar
    22    10    12    1
    23    12    13    2
    24    12    14   am
    25    14    15    1
    26    15    16    1
    27    16    17    1
    28    17    18    1
    29    18    19    1
    30    10    11   ar
    31    11    21    1
    32    21    22   ar
    33    22    23   ar
    34    23    24   ar
    35    24    25   ar
    36    25    26   ar
    37    37    31   ar
    38    11     1   ar
    39    26    21   ar
    40     9     3   ar
    41    19    14    1
    42    29    30    1
    43    36    38    1
    44    36    39    1
    45    17    20    1
@<TRIPOS>MOLECULE
*****
 41 45 0 0 0
SMALL
GASTEIGER

@<TRIPOS>ATOM
      1 C          -1.0582    2.6202   21.3000 C.ar    1  UNL1        0.0768
      2 N          -0.5016    1.4284   20.5790 N.ar    1  UNL1       -0.2480
      3 C           0.7314    0.7478   21.0953 C.ar    1  UNL1        0.0812
      4 C           1.2879   -0.4440   20.3743 C.ar    1  UNL1        0.0214
      5 C           2.5209   -1.1245   20.8906 C.ar    1  UNL1        0.0312
      6 C           3.1974   -0.6132   22.1280 C.ar    1  UNL1        0.1402
      7 F           4.4304   -1.2937   22.6443 F       1  UNL1       -0.2042
      8 C           2.6409    0.5786   22.8489 C.ar    1  UNL1        0.0313
      9 C           1.4079    1.2591   22.3326 C.ar    1  UNL1        0.0243
     10 C           0.8513    2.4510   23.0536 C.ar    1  UNL1        0.0563
     11 C          -0.3817    3.1315   22.5373 C.ar    1  UNL1        0.0196
     12 C           1.5278    2.9623   24.2909 C.2     1  UNL1        0.2492
     13 O           2.6489    3.9524   24.1781 O.2     1  UNL1       -0.2699
     14 N           1.0831    2.4835   25.6412 N.am    1  UNL1       -0.2732
     15 C          -0.0380    1.4934   25.7540 C.3     1  UNL1        0.1108
     16 C          -0.4827    1.0146   27.1042 C.3     1  UNL1        0.0904
     17 N           0.1938    1.5259   28.3415 N.3     1  UNL1       -0.2946
     18 C           1.3149    2.5160   28.2287 C.3     1  UNL1        0.0904
     19 C           1.7595    2.9948   26.8785 C.3     1  UNL1        0.1108
     20 H           0.5675    0.7124   28.8303 H       1  UNL1        0.1233
     21 C          -0.9383    4.3233   23.2583 C.ar    1  UNL1        0.0013
     22 C          -2.0790    4.1542   24.2176 C.ar    1  UNL1        0.0000
     23 C          -2.6355    5.3460   24.9386 C.ar    1  UNL1        0.0000
     24 C          -2.0514    6.7069   24.7003 C.ar    1  UNL1        0.0000
     25 C          -0.9107    6.8759   23.7410 C.ar    1  UNL1        0.0000
     26 C          -0.3542    5.6842   23.0200 C.ar    1  UNL1        0.0000
     27 C          -2.2002    4.6840   20.2107 C.3     1  UNL1        0.0278
     28 C          -2.2912    3.3007   20.7837 C.3     1  UNL1        0.1109
     29 N          -3.6152    2.5980   20.8404 N.pl3   1  UNL1       -0.3142
     30 H          -3.6658    1.6291   20.6734 H       1  UNL1        0.1485
     31 C          -4.8621    3.3716   21.1514 C.ar    1  UNL1        0.1429
     32 N          -5.2558    3.6177   22.5778 N.ar    1  UNL1       -0.2084
     33 C          -6.5027    4.3912   22.8888 C.ar    1  UNL1        0.2012
     34 N          -7.3560    4.9187   21.7736 N.ar    1  UNL1       -0.2087
     35 C          -6.9623    4.6726   20.3473 C.ar    1  UNL1        0.1396
     36 N          -7.8155    5.2001   19.2320 N.pl3   1  UNL1       -0.3420
     37 C          -5.7153    3.8990   20.0362 C.ar    1  UNL1        0.1308
     38 H          -8.6339    5.7078   19.4362 H       1  UNL1        0.1437
     39 H          -7.5571    5.0386   18.2959 H       1  UNL1        0.1437
     40 C          -5.3216    3.6530   18.6098 C.1     1  UNL1        0.1061
     41 N          -4.9279    3.4069   17.1835 N.1     1  UNL1       -0.1906
@<TRIPOS>BOND
     1    28    27    1
     2    28    29    1
     3    29    31    1
     4    31    32   ar
     5    32    33   ar
     6    33    34   ar
     7    34    35   ar
     8    35    36    1
     9    35    37   ar
    10    37    40    1
    11    40    41    3
    12    28     1    1
    13     1     2   ar
    14     2     3   ar
    15     3     4   ar
    16     4     5   ar
    17     5     6   ar
    18     6     7    1
    19     6     8   ar
    20     8     9   ar
    21     9    10   ar
    22    10    12    1
    23    12    13    2
    24    12    14   am
    25    14    15    1
    26    15    16    1
    27    16    17    1
    28    17    18    1
    29    18    19    1
    30    10    11   ar
    31    11    21    1
    32    21    22   ar
    33    22    23   ar
    34    23    24   ar
    35    24    25   ar
    36    25    26   ar
    37    37    31   ar
    38    11     1   ar
    39    26    21   ar
    40     9     3   ar
    41    19    14    1
    42    29    30    1
    43    36    38    1
    44    36    39    1
    45    17    20    1
