@<TRIPOS>MOLECULE
*****
 19 21 0 0 0
SMALL
GASTEIGER

@<TRIPOS>ATOM
      1 N          -8.0918  -18.9651   21.1567 N.3     1  UNL1       -0.2724
      2 C          -9.3407  -19.0519   20.3305 C.3     1  UNL1        0.0724
      3 C         -10.3404  -18.0888   20.8988 C.3     1  UNL1        0.0210
      4 C         -11.7438  -17.7448   20.4962 C.3     1  UNL1        0.0017
      5 C         -12.5161  -16.7187   21.2711 C.3     1  UNL1        0.0001
      6 C         -11.8850  -16.0366   22.4486 C.3     1  UNL1        0.0004
      7 C         -10.4817  -16.3806   22.8512 C.3     1  UNL1        0.0054
      8 C          -9.7093  -17.4067   22.0763 C.3     1  UNL1        0.0349
      9 C          -8.3196  -17.9483   22.2357 C.3     1  UNL1        0.0761
     10 C          -8.9504  -16.8111   23.2249 C.ar    1  UNL1       -0.0206
     11 C          -7.8913  -15.7799   22.9698 C.ar    1  UNL1       -0.0033
     12 C          -7.1324  -15.1843   24.1184 C.ar    1  UNL1        0.0119
     13 C          -7.4326  -15.6198   25.5220 C.ar    1  UNL1        0.0682
     14 CL         -6.6737  -15.0241   26.6706 Cl      1  UNL1       -0.0814
     15 C          -8.4917  -16.6509   25.7771 C.ar    1  UNL1        0.0679
     16 CL         -8.7919  -17.0864   27.1808 Cl      1  UNL1       -0.0814
     17 C          -9.2506  -17.2465   24.6285 C.ar    1  UNL1        0.0080
     18 C          -5.7947  -19.8184   22.0199 C.3     1  UNL1        0.0188
     19 C          -6.8356  -19.7562   20.9417 C.3     1  UNL1        0.0721
@<TRIPOS>BOND
     1    18    19    1
     2    19     1    1
     3     1     2    1
     4     3     2    1
     5     3     4    1
     6     4     5    1
     7     5     6    1
     8     6     7    1
     9     7     8    1
    10     8    10    1
    11    10    11   ar
    12    11    12   ar
    13    12    13   ar
    14    13    14    1
    15    13    15   ar
    16    15    16    1
    17    15    17   ar
    18     8     9    1
    19     9     1    1
    20     8     3    1
    21    17    10   ar
@<TRIPOS>MOLECULE
*****
 19 21 0 0 0
SMALL
GASTEIGER

@<TRIPOS>ATOM
      1 N          -7.0767  -18.7983   21.7626 N.3     1  UNL1       -0.2724
      2 C          -5.8618  -18.0720   22.2590 C.3     1  UNL1        0.0724
      3 C          -6.3061  -17.0743   23.2873 C.3     1  UNL1        0.0210
      4 C          -5.5468  -16.0802   24.1149 C.3     1  UNL1        0.0017
      5 C          -6.2770  -15.1957   25.0816 C.3     1  UNL1        0.0001
      6 C          -7.7665  -15.3055   25.2207 C.3     1  UNL1        0.0004
      7 C          -8.5258  -16.2996   24.3931 C.3     1  UNL1        0.0054
      8 C          -7.7956  -17.1841   23.4264 C.3     1  UNL1        0.0349
      9 C          -8.2719  -18.2496   22.4841 C.3     1  UNL1        0.0761
     10 C          -9.2787  -17.4066   23.4564 C.ar    1  UNL1       -0.0206
     11 C          -9.8736  -18.3641   24.4460 C.ar    1  UNL1       -0.0033
     12 C         -11.3566  -18.5867   24.4760 C.ar    1  UNL1        0.0119
     13 C         -12.2449  -17.8516   23.5165 C.ar    1  UNL1        0.0682
     14 CL        -13.7280  -18.0742   23.5465 Cl      1  UNL1       -0.0814
     15 C         -11.6501  -16.8941   22.5269 C.ar    1  UNL1        0.0679
     16 CL        -12.5384  -16.1591   21.5673 Cl      1  UNL1       -0.0814
     17 C         -10.1670  -16.6716   22.4969 C.ar    1  UNL1        0.0080
     18 C          -5.8778  -20.7353   20.5133 C.3     1  UNL1        0.0188
     19 C          -7.0936  -19.8830   20.7266 C.3     1  UNL1        0.0721
@<TRIPOS>BOND
     1    18    19    1
     2    19     1    1
     3     1     2    1
     4     3     2    1
     5     3     4    1
     6     4     5    1
     7     5     6    1
     8     6     7    1
     9     7     8    1
    10     8    10    1
    11    10    11   ar
    12    11    12   ar
    13    12    13   ar
    14    13    14    1
    15    13    15   ar
    16    15    16    1
    17    15    17   ar
    18     8     9    1
    19     9     1    1
    20     8     3    1
    21    17    10   ar
@<TRIPOS>MOLECULE
*****
 19 21 0 0 0
SMALL
GASTEIGER

@<TRIPOS>ATOM
      1 N          -5.1448  -17.1219   23.3512 N.3     1  UNL1       -0.2724
      2 C          -3.9529  -17.7627   22.7041 C.3     1  UNL1        0.0724
      3 C          -4.4454  -18.8644   21.8132 C.3     1  UNL1        0.0210
      4 C          -3.7247  -19.8362   20.9266 C.3     1  UNL1        0.0017
      5 C          -4.5003  -20.8481   20.1364 C.3     1  UNL1        0.0001
      6 C          -5.9967  -20.8882   20.2329 C.3     1  UNL1        0.0004
      7 C          -6.7174  -19.9164   21.1195 C.3     1  UNL1        0.0054
      8 C          -5.9417  -18.9045   21.9096 C.3     1  UNL1        0.0349
      9 C          -6.3740  -17.8276   22.8602 C.3     1  UNL1        0.0761
     10 C          -7.4266  -18.8246   22.1067 C.ar    1  UNL1       -0.0206
     11 C          -8.1472  -19.9227   22.8314 C.ar    1  UNL1       -0.0033
     12 C          -9.6319  -19.8428   23.0284 C.ar    1  UNL1        0.0119
     13 C         -10.3962  -18.6649   22.5009 C.ar    1  UNL1        0.0682
     14 CL        -11.8811  -18.5850   22.6980 Cl      1  UNL1       -0.0814
     15 C          -9.6758  -17.5668   21.7763 C.ar    1  UNL1        0.0679
     16 CL        -10.4401  -16.3888   21.2487 Cl      1  UNL1       -0.0814
     17 C          -8.1909  -17.6467   21.5792 C.ar    1  UNL1        0.0080
     18 C          -6.3756  -15.2355   24.6459 C.3     1  UNL1        0.0188
     19 C          -5.1131  -15.9766   24.3193 C.3     1  UNL1        0.0721
@<TRIPOS>BOND
     1    18    19    1
     2    19     1    1
     3     1     2    1
     4     3     2    1
     5     3     4    1
     6     4     5    1
     7     5     6    1
     8     6     7    1
     9     7     8    1
    10     8    10    1
    11    10    11   ar
    12    11    12   ar
    13    12    13   ar
    14    13    14    1
    15    13    15   ar
    16    15    16    1
    17    15    17   ar
    18     8     9    1
    19     9     1    1
    20     8     3    1
    21    17    10   ar
@<TRIPOS>MOLECULE
*****
 19 21 0 0 0
SMALL
GASTEIGER

@<TRIPOS>ATOM
      1 N         -10.5234  -16.6648   21.4111 N.3     1  UNL1       -0.2724
      2 C         -11.5026  -17.0501   22.4800 C.3     1  UNL1        0.0724
      3 C         -10.9518  -18.2418   23.2056 C.3     1  UNL1        0.0210
      4 C         -11.4813  -19.0525   24.3511 C.3     1  UNL1        0.0017
      5 C         -10.6912  -20.2143   24.8762 C.3     1  UNL1        0.0001
      6 C          -9.3714  -20.5655   24.2557 C.3     1  UNL1        0.0004
      7 C          -8.8418  -19.7548   23.1102 C.3     1  UNL1        0.0054
      8 C          -9.6320  -18.5929   22.5852 C.3     1  UNL1        0.0349
      9 C          -9.3673  -17.6183   21.4761 C.3     1  UNL1        0.0761
     10 C          -8.3352  -18.8231   21.8673 C.ar    1  UNL1       -0.0206
     11 C          -8.3374  -19.3818   20.4752 C.ar    1  UNL1       -0.0033
     12 C          -7.0407  -19.6119   19.7574 C.ar    1  UNL1        0.0119
     13 C          -5.7417  -19.2834   20.4315 C.ar    1  UNL1        0.0682
     14 CL         -4.4448  -19.5135   19.7137 Cl      1  UNL1       -0.0814
     15 C          -5.7393  -18.7247   21.8235 C.ar    1  UNL1        0.0679
     16 CL         -4.4403  -18.3961   22.4978 Cl      1  UNL1       -0.0814
     17 C          -7.0362  -18.4945   22.5414 C.ar    1  UNL1        0.0080
     18 C         -11.6017  -15.6529   19.2749 C.3     1  UNL1        0.0188
     19 C         -10.6738  -15.5259   20.4466 C.3     1  UNL1        0.0721
@<TRIPOS>BOND
     1    18    19    1
     2    19     1    1
     3     1     2    1
     4     3     2    1
     5     3     4    1
     6     4     5    1
     7     5     6    1
     8     6     7    1
     9     7     8    1
    10     8    10    1
    11    10    11   ar
    12    11    12   ar
    13    12    13   ar
    14    13    14    1
    15    13    15   ar
    16    15    16    1
    17    15    17   ar
    18     8     9    1
    19     9     1    1
    20     8     3    1
    21    17    10   ar
@<TRIPOS>MOLECULE
*****
 19 21 0 0 0
SMALL
GASTEIGER

@<TRIPOS>ATOM
      1 N          -6.0691  -18.3647   21.8818 N.3     1  UNL1       -0.2724
      2 C          -4.9660  -17.7589   22.6980 C.3     1  UNL1        0.0724
      3 C          -5.5863  -16.8299   23.6990 C.3     1  UNL1        0.0210
      4 C          -4.9896  -15.9593   24.7648 C.3     1  UNL1        0.0017
      5 C          -5.8795  -15.1202   25.6331 C.3     1  UNL1        0.0001
      6 C          -7.3661  -15.1518   25.4356 C.3     1  UNL1        0.0004
      7 C          -7.9629  -16.0223   24.3698 C.3     1  UNL1        0.0054
      8 C          -7.0729  -16.8614   23.5015 C.3     1  UNL1        0.0349
      9 C          -7.3713  -17.8100   22.3785 C.3     1  UNL1        0.0761
     10 C          -8.5337  -16.9960   23.1884 C.ar    1  UNL1       -0.0206
     11 C          -9.1277  -16.2356   22.0399 C.ar    1  UNL1       -0.0033
     12 C         -10.5884  -16.3702   21.7268 C.ar    1  UNL1        0.0119
     13 C         -11.4552  -17.2650   22.5621 C.ar    1  UNL1        0.0682
     14 CL        -12.9160  -17.3996   22.2490 Cl      1  UNL1       -0.0814
     15 C         -10.8613  -18.0254   23.7106 C.ar    1  UNL1        0.0679
     16 CL        -11.7281  -18.9203   24.5460 Cl      1  UNL1       -0.0814
     17 C          -9.4005  -17.8908   24.0237 C.ar    1  UNL1        0.0080
     18 C          -4.5773  -19.4766   20.0686 C.3     1  UNL1        0.0188
     19 C          -5.8998  -19.3518   20.7652 C.3     1  UNL1        0.0721
@<TRIPOS>BOND
     1    18    19    1
     2    19     1    1
     3     1     2    1
     4     3     2    1
     5     3     4    1
     6     4     5    1
     7     5     6    1
     8     6     7    1
     9     7     8    1
    10     8    10    1
    11    10    11   ar
    12    11    12   ar
    13    12    13   ar
    14    13    14    1
    15    13    15   ar
    16    15    16    1
    17    15    17   ar
    18     8     9    1
    19     9     1    1
    20     8     3    1
    21    17    10   ar
@<TRIPOS>MOLECULE
*****
 19 21 0 0 0
SMALL
GASTEIGER

@<TRIPOS>ATOM
      1 N         -11.4422  -18.1332   21.4760 N.3     1  UNL1       -0.2724
      2 C         -10.8813  -18.8319   20.2730 C.3     1  UNL1        0.0724
      3 C          -9.4094  -19.0215   20.4913 C.3     1  UNL1        0.0210
      4 C          -8.3417  -19.6485   19.6447 C.3     1  UNL1        0.0017
      5 C          -6.9252  -19.6940   20.1361 C.3     1  UNL1        0.0001
      6 C          -6.5765  -19.1126   21.4741 C.3     1  UNL1        0.0004
      7 C          -7.6442  -18.4856   22.3207 C.3     1  UNL1        0.0054
      8 C          -9.0606  -18.4400   21.8294 C.3     1  UNL1        0.0349
      9 C         -10.3169  -17.8911   22.4379 C.3     1  UNL1        0.0761
     10 C          -8.8637  -17.8212   23.1815 C.ar    1  UNL1       -0.0206
     11 C          -9.5211  -18.4264   24.3863 C.ar    1  UNL1       -0.0033
     12 C          -9.3242  -17.8075   25.7383 C.ar    1  UNL1        0.0119
     13 C          -8.4698  -16.5835   25.8857 C.ar    1  UNL1        0.0682
     14 CL         -8.2729  -15.9646   27.2378 Cl      1  UNL1       -0.0814
     15 C          -7.8124  -15.9783   24.6810 C.ar    1  UNL1        0.0679
     16 CL         -6.9579  -14.7542   24.8283 Cl      1  UNL1       -0.0814
     17 C          -8.0093  -16.5971   23.3288 C.ar    1  UNL1        0.0080
     18 C         -13.4484  -17.6922   23.0668 C.3     1  UNL1        0.0188
     19 C         -12.8764  -17.7449   21.6811 C.3     1  UNL1        0.0721
@<TRIPOS>BOND
     1    18    19    1
     2    19     1    1
     3     1     2    1
     4     3     2    1
     5     3     4    1
     6     4     5    1
     7     5     6    1
     8     6     7    1
     9     7     8    1
    10     8    10    1
    11    10    11   ar
    12    11    12   ar
    13    12    13   ar
    14    13    14    1
    15    13    15   ar
    16    15    16    1
    17    15    17   ar
    18     8     9    1
    19     9     1    1
    20     8     3    1
    21    17    10   ar
@<TRIPOS>MOLECULE
*****
 19 21 0 0 0
SMALL
GASTEIGER

@<TRIPOS>ATOM
      1 N          -6.2413  -19.3419   21.3945 N.3     1  UNL1       -0.2724
      2 C          -6.9816  -19.7890   20.1689 C.3     1  UNL1        0.0724
      3 C          -8.3921  -19.2889   20.2711 C.3     1  UNL1        0.0210
      4 C          -9.5737  -19.4244   19.3571 C.3     1  UNL1        0.0017
      5 C         -10.8868  -18.8037   19.7319 C.3     1  UNL1        0.0001
      6 C         -11.0183  -18.0476   21.0207 C.3     1  UNL1        0.0004
      7 C          -9.8367  -17.9121   21.9347 C.3     1  UNL1        0.0054
      8 C          -8.5236  -18.5328   21.5599 C.3     1  UNL1        0.0349
      9 C          -7.1943  -18.5656   22.2542 C.3     1  UNL1        0.0761
     10 C          -8.5038  -17.8101   22.8742 C.ar    1  UNL1       -0.0206
     11 C          -9.4249  -18.2365   23.9785 C.ar    1  UNL1       -0.0033
     12 C          -9.4051  -17.5138   25.2927 C.ar    1  UNL1        0.0119
     13 C          -8.4642  -16.3647   25.5026 C.ar    1  UNL1        0.0682
     14 CL         -8.4444  -15.6419   26.8169 Cl      1  UNL1       -0.0814
     15 C          -7.5431  -15.9382   24.3983 C.ar    1  UNL1        0.0679
     16 CL         -6.6021  -14.7890   24.6082 Cl      1  UNL1       -0.0814
     17 C          -7.5628  -16.6609   23.0841 C.ar    1  UNL1        0.0080
     18 C          -4.0812  -18.7976   22.7316 C.3     1  UNL1        0.0188
     19 C          -4.8010  -19.6221   21.7059 C.3     1  UNL1        0.0721
@<TRIPOS>BOND
     1    18    19    1
     2    19     1    1
     3     1     2    1
     4     3     2    1
     5     3     4    1
     6     4     5    1
     7     5     6    1
     8     6     7    1
     9     7     8    1
    10     8    10    1
    11    10    11   ar
    12    11    12   ar
    13    12    13   ar
    14    13    14    1
    15    13    15   ar
    16    15    16    1
    17    15    17   ar
    18     8     9    1
    19     9     1    1
    20     8     3    1
    21    17    10   ar
@<TRIPOS>MOLECULE
*****
 19 21 0 0 0
SMALL
GASTEIGER

@<TRIPOS>ATOM
      1 N          -5.6821  -19.0355   21.4198 N.3     1  UNL1       -0.2724
      2 C          -6.2607  -19.6750   20.1926 C.3     1  UNL1        0.0724
      3 C          -7.7261  -19.3573   20.1514 C.3     1  UNL1        0.0210
      4 C          -8.8049  -19.7211   19.1748 C.3     1  UNL1        0.0017
      5 C         -10.2108  -19.2491   19.4000 C.3     1  UNL1        0.0001
      6 C         -10.5378  -18.4132   20.6018 C.3     1  UNL1        0.0004
      7 C          -9.4590  -18.0494   21.5784 C.3     1  UNL1        0.0054
      8 C          -8.0532  -18.5214   21.3532 C.3     1  UNL1        0.0349
      9 C          -6.7899  -18.3226   22.1371 C.3     1  UNL1        0.0761
     10 C          -8.2284  -17.6967   22.5938 C.ar    1  UNL1       -0.0206
     11 C          -7.7468  -16.2765   22.6245 C.ar    1  UNL1       -0.0033
     12 C          -7.9221  -15.4518   23.8651 C.ar    1  UNL1        0.0119
     13 C          -8.5790  -16.0472   25.0749 C.ar    1  UNL1        0.0682
     14 CL         -8.7543  -15.2225   26.3155 Cl      1  UNL1       -0.0814
     15 C          -9.0607  -17.4674   25.0443 C.ar    1  UNL1        0.0679
     16 CL         -9.7177  -18.0629   26.2542 Cl      1  UNL1       -0.0814
     17 C          -8.8854  -18.2921   23.8037 C.ar    1  UNL1        0.0080
     18 C          -3.6586  -17.9791   22.6606 C.3     1  UNL1        0.0188
     19 C          -4.2475  -19.0980   21.8536 C.3     1  UNL1        0.0721
@<TRIPOS>BOND
     1    18    19    1
     2    19     1    1
     3     1     2    1
     4     3     2    1
     5     3     4    1
     6     4     5    1
     7     5     6    1
     8     6     7    1
     9     7     8    1
    10     8    10    1
    11    10    11   ar
    12    11    12   ar
    13    12    13   ar
    14    13    14    1
    15    13    15   ar
    16    15    16    1
    17    15    17   ar
    18     8     9    1
    19     9     1    1
    20     8     3    1
    21    17    10   ar
@<TRIPOS>MOLECULE
*****
 19 21 0 0 0
SMALL
GASTEIGER

@<TRIPOS>ATOM
      1 N         -10.2544  -18.0302   20.2380 N.3     1  UNL1       -0.2724
      2 C          -9.5515  -19.0455   19.3864 C.3     1  UNL1        0.0724
      3 C          -8.2807  -19.4341   20.0820 C.3     1  UNL1        0.0210
      4 C          -7.1881  -20.3936   19.7140 C.3     1  UNL1        0.0017
      5 C          -6.0128  -20.5780   20.6276 C.3     1  UNL1        0.0001
      6 C          -5.9302  -19.8030   21.9092 C.3     1  UNL1        0.0004
      7 C          -7.0228  -18.8435   22.2772 C.3     1  UNL1        0.0054
      8 C          -8.1981  -18.6590   21.3636 C.3     1  UNL1        0.0349
      9 C          -9.4179  -17.7914   21.4600 C.3     1  UNL1        0.0761
     10 C          -8.2528  -17.8192   22.6052 C.ar    1  UNL1       -0.0206
     11 C          -7.5827  -16.4775   22.6333 C.ar    1  UNL1       -0.0033
     12 C          -7.6374  -15.6377   23.8749 C.ar    1  UNL1        0.0119
     13 C          -8.3622  -16.1395   25.0885 C.ar    1  UNL1        0.0682
     14 CL         -8.4169  -15.2996   26.3301 Cl      1  UNL1       -0.0814
     15 C          -9.0323  -17.4811   25.0605 C.ar    1  UNL1        0.0679
     16 CL         -9.7572  -17.9830   26.2741 Cl      1  UNL1       -0.0814
     17 C          -8.9776  -18.3210   23.8188 C.ar    1  UNL1        0.0080
     18 C         -11.5998  -15.9193   19.5423 C.3     1  UNL1        0.0188
     19 C         -11.5638  -17.3697   19.9230 C.3     1  UNL1        0.0721
@<TRIPOS>BOND
     1    18    19    1
     2    19     1    1
     3     1     2    1
     4     3     2    1
     5     3     4    1
     6     4     5    1
     7     5     6    1
     8     6     7    1
     9     7     8    1
    10     8    10    1
    11    10    11   ar
    12    11    12   ar
    13    12    13   ar
    14    13    14    1
    15    13    15   ar
    16    15    16    1
    17    15    17   ar
    18     8     9    1
    19     9     1    1
    20     8     3    1
    21    17    10   ar
