@<TRIPOS>MOLECULE
*****
 32 35 0 0 0
SMALL
GASTEIGER

@<TRIPOS>ATOM
      1 N          -8.3402  -17.6874   23.0445 N.3     1  UNL1       -0.2643
      2 C          -9.8336  -17.7878   23.1422 C.3     1  UNL1        0.0981
      3 C         -10.4637  -18.4823   24.3129 C.3     1  UNL1        0.0224
      4 C         -11.9571  -18.5827   24.4106 C.3     1  UNL1        0.0065
      5 C         -12.8205  -17.9886   23.3375 C.3     1  UNL1        0.0277
      6 C         -12.1905  -17.2941   22.1668 C.ar    1  UNL1       -0.0073
      7 C         -13.0539  -16.7000   21.0936 C.ar    1  UNL1       -0.0015
      8 C         -12.4239  -16.0055   19.9229 C.ar    1  UNL1        0.0203
      9 C         -10.9305  -15.9051   19.8252 C.ar    1  UNL1        0.0985
     10 N         -10.0670  -16.4992   20.8983 N.ar    1  UNL1       -0.2471
     11 C         -10.6971  -17.1937   22.0691 C.ar    1  UNL1        0.0695
     12 C          -7.6667  -16.3555   23.1937 C.3     1  UNL1        0.0971
     13 C          -8.4462  -15.6963   25.5828 C.3     1  UNL1        0.0298
     14 C          -7.3558  -15.8211   24.5604 C.2     1  UNL1       -0.0033
     15 C          -5.9544  -15.4116   24.9046 C.2     1  UNL1        0.1267
     16 F          -5.6435  -14.8773   26.2713 F       1  UNL1       -0.2080
     17 C          -4.8640  -15.5365   23.8822 C.3     1  UNL1        0.1220
     18 N          -4.6897  -14.4738   22.8381 N.3     1  UNL1       -0.3156
     19 H          -5.5020  -14.4667   22.2213 H       1  UNL1        0.1192
     20 H          -3.8501  -14.6678   22.2924 H       1  UNL1        0.1192
     21 C          -7.5203  -18.9189   22.7976 C.3     1  UNL1        0.0888
     22 C          -6.3210  -18.8539   21.8988 C.3     1  UNL1        0.0748
     23 C          -4.9511  -18.6884   22.4870 C.3     1  UNL1        0.0432
     24 C          -3.7519  -18.6234   21.5882 C.ar    1  UNL1       -0.0234
     25 C          -2.3820  -18.4579   22.1763 C.ar    1  UNL1       -0.0045
     26 C          -1.1829  -18.3929   21.2775 C.ar    1  UNL1       -0.0003
     27 C          -1.3536  -18.4932   19.7907 C.ar    1  UNL1       -0.0003
     28 C          -2.7236  -18.6587   19.2026 C.ar    1  UNL1       -0.0032
     29 C          -3.9227  -18.7237   20.1013 C.ar    1  UNL1       -0.0103
     30 C          -5.2927  -18.8892   19.5132 C.3     1  UNL1        0.0953
     31 N          -6.4918  -18.9542   20.4120 N.3     1  UNL1       -0.2934
     32 H          -6.9498  -19.8468   20.2278 H       1  UNL1        0.1236
@<TRIPOS>BOND
     1    13    14    1
     2    14    12    1
     3    12     1    1
     4     1    21    1
     5    22    21    1
     6    22    23    1
     7    23    24    1
     8    24    25   ar
     9    25    26   ar
    10    26    27   ar
    11    27    28   ar
    12    28    29   ar
    13    29    30    1
    14    30    31    1
    15     2     1    1
    16     2     3    1
    17     3     4    1
    18     4     5    1
    19     5     6    1
    20     6     7   ar
    21     7     8   ar
    22     8     9   ar
    23     9    10   ar
    24    10    11   ar
    25    14    15    2
    26    15    16    1
    27    15    17    1
    28    17    18    1
    29    31    22    1
    30    11     2    1
    31    29    24   ar
    32    11     6   ar
    33    31    32    1
    34    18    19    1
    35    18    20    1
@<TRIPOS>MOLECULE
*****
 32 35 0 0 0
SMALL
GASTEIGER

@<TRIPOS>ATOM
      1 N          -8.6008  -17.0453   22.4149 N.3     1  UNL1       -0.2643
      2 C         -10.0482  -16.9203   22.0415 C.3     1  UNL1        0.0981
      3 C         -10.4383  -16.2127   20.7778 C.3     1  UNL1        0.0224
      4 C         -11.8857  -16.0877   20.4044 C.3     1  UNL1        0.0065
      5 C         -12.9430  -16.6704   21.2947 C.3     1  UNL1        0.0277
      6 C         -12.5528  -17.3781   22.5584 C.ar    1  UNL1       -0.0073
      7 C         -13.6100  -17.9608   23.4488 C.ar    1  UNL1       -0.0015
      8 C         -13.2199  -18.6684   24.7125 C.ar    1  UNL1        0.0203
      9 C         -11.7725  -18.7933   25.0859 C.ar    1  UNL1        0.0985
     10 N         -10.7152  -18.2107   24.1956 N.ar    1  UNL1       -0.2471
     11 C         -11.1054  -17.5030   22.9318 C.ar    1  UNL1        0.0695
     12 C          -7.8306  -15.8332   22.8482 C.3     1  UNL1        0.0971
     13 C          -8.7592  -15.4692   25.2472 C.3     1  UNL1        0.0298
     14 C          -7.5953  -15.5762   24.3071 C.2     1  UNL1       -0.0033
     15 C          -6.1959  -15.4261   24.8260 C.2     1  UNL1        0.1267
     16 F          -5.9605  -15.1690   26.2850 F       1  UNL1       -0.2080
     17 C          -5.0319  -15.5330   23.8860 C.3     1  UNL1        0.1220
     18 N          -4.7945  -14.4634   22.8615 N.3     1  UNL1       -0.3156
     19 H          -5.5594  -14.4631   22.1868 H       1  UNL1        0.1192
     20 H          -3.9148  -14.6448   22.3782 H       1  UNL1        0.1192
     21 C          -7.9235  -18.3823   22.3549 C.3     1  UNL1        0.0888
     22 C          -6.6270  -18.5339   21.6157 C.3     1  UNL1        0.0748
     23 C          -5.3289  -18.5183   22.3671 C.3     1  UNL1        0.0432
     24 C          -4.0325  -18.6698   21.6278 C.ar    1  UNL1       -0.0234
     25 C          -2.7344  -18.6542   22.3793 C.ar    1  UNL1       -0.0045
     26 C          -1.4381  -18.8058   21.6400 C.ar    1  UNL1       -0.0003
     27 C          -1.4399  -18.9730   20.1494 C.ar    1  UNL1       -0.0003
     28 C          -2.7380  -18.9886   19.3980 C.ar    1  UNL1       -0.0032
     29 C          -4.0343  -18.8370   20.1372 C.ar    1  UNL1       -0.0103
     30 C          -5.3325  -18.8526   19.3858 C.3     1  UNL1        0.0953
     31 N          -6.6288  -18.7010   20.1250 N.3     1  UNL1       -0.2934
     32 H          -7.1822  -19.5337   19.9228 H       1  UNL1        0.1236
@<TRIPOS>BOND
     1    13    14    1
     2    14    12    1
     3    12     1    1
     4     1    21    1
     5    22    21    1
     6    22    23    1
     7    23    24    1
     8    24    25   ar
     9    25    26   ar
    10    26    27   ar
    11    27    28   ar
    12    28    29   ar
    13    29    30    1
    14    30    31    1
    15     2     1    1
    16     2     3    1
    17     3     4    1
    18     4     5    1
    19     5     6    1
    20     6     7   ar
    21     7     8   ar
    22     8     9   ar
    23     9    10   ar
    24    10    11   ar
    25    14    15    2
    26    15    16    1
    27    15    17    1
    28    17    18    1
    29    31    22    1
    30    11     2    1
    31    29    24   ar
    32    11     6   ar
    33    31    32    1
    34    18    19    1
    35    18    20    1
@<TRIPOS>MOLECULE
*****
 32 35 0 0 0
SMALL
GASTEIGER

@<TRIPOS>ATOM
      1 N          -7.6653  -18.1401   22.6605 N.3     1  UNL1       -0.2643
      2 C          -9.0680  -18.3098   23.1639 C.3     1  UNL1        0.0981
      3 C          -9.3263  -19.0997   24.4127 C.3     1  UNL1        0.0224
      4 C         -10.7290  -19.2694   24.9161 C.3     1  UNL1        0.0065
      5 C         -11.8735  -18.6493   24.1709 C.3     1  UNL1        0.0277
      6 C         -11.6153  -17.8594   22.9221 C.ar    1  UNL1       -0.0073
      7 C         -12.7598  -17.2392   22.1768 C.ar    1  UNL1       -0.0015
      8 C         -12.5016  -16.4494   20.9280 C.ar    1  UNL1        0.0203
      9 C         -11.0988  -16.2797   20.4246 C.ar    1  UNL1        0.0985
     10 N          -9.9543  -16.8998   21.1698 N.ar    1  UNL1       -0.2471
     11 C         -10.2125  -17.6897   22.4187 C.ar    1  UNL1        0.0695
     12 C          -7.0154  -16.7886   22.6923 C.3     1  UNL1        0.0971
     13 C          -4.6155  -16.5909   23.6677 C.3     1  UNL1        0.0298
     14 C          -6.0981  -16.4239   23.8218 C.2     1  UNL1       -0.0033
     15 C          -6.6636  -15.8921   25.1054 C.2     1  UNL1        0.1267
     16 F          -5.7463  -15.5274   26.2348 F       1  UNL1       -0.2080
     17 C          -8.1462  -15.7250   25.2594 C.3     1  UNL1        0.1220
     18 N          -8.6999  -15.0084   26.4551 N.3     1  UNL1       -0.3156
     19 H          -8.5005  -15.5480   27.2974 H       1  UNL1        0.1192
     20 H          -9.7090  -14.9018   26.3506 H       1  UNL1        0.1192
     21 C          -6.9124  -19.3218   22.1252 C.3     1  UNL1        0.0888
     22 C          -5.4654  -19.1841   21.7545 C.3     1  UNL1        0.0748
     23 C          -5.0833  -18.5837   20.4340 C.3     1  UNL1        0.0432
     24 C          -3.6364  -18.4460   20.0633 C.ar    1  UNL1       -0.0234
     25 C          -3.2543  -17.8456   18.7429 C.ar    1  UNL1       -0.0045
     26 C          -1.8074  -17.7079   18.3723 C.ar    1  UNL1       -0.0003
     27 C          -0.7425  -18.1705   19.3221 C.ar    1  UNL1       -0.0003
     28 C          -1.1246  -18.7709   20.6425 C.ar    1  UNL1       -0.0032
     29 C          -2.5715  -18.9086   21.0131 C.ar    1  UNL1       -0.0103
     30 C          -2.9537  -19.5090   22.3336 C.3     1  UNL1        0.0953
     31 N          -4.4006  -19.6467   22.7042 N.3     1  UNL1       -0.2934
     32 H          -4.5332  -19.1264   23.5714 H       1  UNL1        0.1236
@<TRIPOS>BOND
     1    13    14    1
     2    14    12    1
     3    12     1    1
     4     1    21    1
     5    22    21    1
     6    22    23    1
     7    23    24    1
     8    24    25   ar
     9    25    26   ar
    10    26    27   ar
    11    27    28   ar
    12    28    29   ar
    13    29    30    1
    14    30    31    1
    15     2     1    1
    16     2     3    1
    17     3     4    1
    18     4     5    1
    19     5     6    1
    20     6     7   ar
    21     7     8   ar
    22     8     9   ar
    23     9    10   ar
    24    10    11   ar
    25    14    15    2
    26    15    16    1
    27    15    17    1
    28    17    18    1
    29    31    22    1
    30    11     2    1
    31    29    24   ar
    32    11     6   ar
    33    31    32    1
    34    18    19    1
    35    18    20    1
@<TRIPOS>MOLECULE
*****
 32 35 0 0 0
SMALL
GASTEIGER

@<TRIPOS>ATOM
      1 N          -6.4789  -17.3671   22.7233 N.3     1  UNL1       -0.2643
      2 C          -5.9509  -18.5300   21.9366 C.3     1  UNL1        0.0981
      3 C          -6.8695  -19.6491   21.5445 C.3     1  UNL1        0.0224
      4 C          -6.3416  -20.8121   20.7578 C.3     1  UNL1        0.0065
      5 C          -4.8951  -20.8559   20.3632 C.3     1  UNL1        0.0277
      6 C          -3.9766  -19.7368   20.7553 C.ar    1  UNL1       -0.0073
      7 C          -2.5300  -19.7806   20.3607 C.ar    1  UNL1       -0.0015
      8 C          -1.6114  -18.6615   20.7528 C.ar    1  UNL1        0.0203
      9 C          -2.1394  -17.4986   21.5395 C.ar    1  UNL1        0.0985
     10 N          -3.5858  -17.4547   21.9341 N.ar    1  UNL1       -0.2471
     11 C          -4.5045  -18.5739   21.5420 C.ar    1  UNL1        0.0695
     12 C          -6.0480  -17.1666   24.1460 C.3     1  UNL1        0.0971
     13 C          -4.6974  -15.0044   23.6455 C.3     1  UNL1        0.0298
     14 C          -5.5163  -15.8355   24.5881 C.2     1  UNL1       -0.0033
     15 C          -5.8035  -15.3355   25.9729 C.2     1  UNL1        0.1267
     16 F          -5.2717  -14.0045   26.4150 F       1  UNL1       -0.2080
     17 C          -6.6223  -16.1667   26.9156 C.3     1  UNL1        0.1220
     18 N          -8.0076  -15.7302   27.2904 N.3     1  UNL1       -0.3156
     19 H          -7.9577  -14.8636   27.8261 H       1  UNL1        0.1192
     20 H          -8.4510  -16.4543   27.8556 H       1  UNL1        0.1192
     21 C          -7.4376  -16.4047   22.0873 C.3     1  UNL1        0.0888
     22 C          -8.9149  -16.5799   22.2801 C.3     1  UNL1        0.0748
     23 C          -9.4278  -17.5185   23.3317 C.3     1  UNL1        0.0432
     24 C         -10.9051  -17.6938   23.5245 C.ar    1  UNL1       -0.0234
     25 C         -11.4181  -18.6324   24.5761 C.ar    1  UNL1       -0.0045
     26 C         -12.8952  -18.8076   24.7688 C.ar    1  UNL1       -0.0003
     27 C         -13.8594  -18.0442   23.9100 C.ar    1  UNL1       -0.0003
     28 C         -13.3465  -17.1056   22.8584 C.ar    1  UNL1       -0.0032
     29 C         -11.8693  -16.9304   22.6657 C.ar    1  UNL1       -0.0103
     30 C         -11.3562  -15.9917   21.6141 C.3     1  UNL1        0.0953
     31 N          -9.8790  -15.8165   21.4213 N.3     1  UNL1       -0.2934
     32 H          -9.6791  -14.8264   21.5626 H       1  UNL1        0.1236
@<TRIPOS>BOND
     1    13    14    1
     2    14    12    1
     3    12     1    1
     4     1    21    1
     5    22    21    1
     6    22    23    1
     7    23    24    1
     8    24    25   ar
     9    25    26   ar
    10    26    27   ar
    11    27    28   ar
    12    28    29   ar
    13    29    30    1
    14    30    31    1
    15     2     1    1
    16     2     3    1
    17     3     4    1
    18     4     5    1
    19     5     6    1
    20     6     7   ar
    21     7     8   ar
    22     8     9   ar
    23     9    10   ar
    24    10    11   ar
    25    14    15    2
    26    15    16    1
    27    15    17    1
    28    17    18    1
    29    31    22    1
    30    11     2    1
    31    29    24   ar
    32    11     6   ar
    33    31    32    1
    34    18    19    1
    35    18    20    1
@<TRIPOS>MOLECULE
*****
 32 35 0 0 0
SMALL
GASTEIGER

@<TRIPOS>ATOM
      1 N          -5.2689  -16.9672   23.1008 N.3     1  UNL1       -0.2643
      2 C          -4.0380  -17.1701   22.2680 C.3     1  UNL1        0.0981
      3 C          -2.9056  -16.1900   22.3520 C.3     1  UNL1        0.0224
      4 C          -1.6747  -16.3930   21.5192 C.3     1  UNL1        0.0065
      5 C          -1.5761  -17.5760   20.6023 C.3     1  UNL1        0.0277
      6 C          -2.7084  -18.5561   20.5183 C.ar    1  UNL1       -0.0073
      7 C          -2.6099  -19.7392   19.6014 C.ar    1  UNL1       -0.0015
      8 C          -3.7423  -20.7193   19.5174 C.ar    1  UNL1        0.0203
      9 C          -4.9732  -20.5164   20.3502 C.ar    1  UNL1        0.0985
     10 N          -5.0718  -19.3333   21.2670 N.ar    1  UNL1       -0.2471
     11 C          -3.9394  -18.3532   21.3511 C.ar    1  UNL1        0.0695
     12 C          -5.4031  -15.7412   23.9546 C.3     1  UNL1        0.0971
     13 C          -4.5111  -16.3506   26.3174 C.3     1  UNL1        0.0298
     14 C          -5.6252  -15.8767   25.4318 C.2     1  UNL1       -0.0033
     15 C          -6.9614  -15.5383   26.0236 C.2     1  UNL1        0.1267
     16 F          -7.1834  -15.6737   27.5008 F       1  UNL1       -0.2080
     17 C          -8.0754  -15.0644   25.1380 C.3     1  UNL1        0.1220
     18 N          -7.8002  -14.0589   24.0595 N.3     1  UNL1       -0.3156
     19 H          -7.5296  -13.1714   24.4831 H       1  UNL1        0.1192
     20 H          -8.6405  -13.9250   23.4971 H       1  UNL1        0.1192
     21 C          -6.3657  -17.9902   23.0798 C.3     1  UNL1        0.0888
     22 C          -7.7823  -17.5660   22.8276 C.3     1  UNL1        0.0748
     23 C          -8.9089  -18.2505   23.5433 C.3     1  UNL1        0.0432
     24 C         -10.3254  -17.8263   23.2911 C.ar    1  UNL1       -0.0234
     25 C         -11.4520  -18.5108   24.0068 C.ar    1  UNL1       -0.0045
     26 C         -12.8685  -18.0866   23.7546 C.ar    1  UNL1       -0.0003
     27 C         -13.1583  -16.9780   22.7867 C.ar    1  UNL1       -0.0003
     28 C         -12.0318  -16.2935   22.0710 C.ar    1  UNL1       -0.0032
     29 C         -10.6153  -16.7176   22.3232 C.ar    1  UNL1       -0.0103
     30 C          -9.4886  -16.0331   21.6075 C.3     1  UNL1        0.0953
     31 N          -8.0722  -16.4573   21.8597 N.3     1  UNL1       -0.2934
     32 H          -7.5739  -15.6339   22.1974 H       1  UNL1        0.1236
@<TRIPOS>BOND
     1    13    14    1
     2    14    12    1
     3    12     1    1
     4     1    21    1
     5    22    21    1
     6    22    23    1
     7    23    24    1
     8    24    25   ar
     9    25    26   ar
    10    26    27   ar
    11    27    28   ar
    12    28    29   ar
    13    29    30    1
    14    30    31    1
    15     2     1    1
    16     2     3    1
    17     3     4    1
    18     4     5    1
    19     5     6    1
    20     6     7   ar
    21     7     8   ar
    22     8     9   ar
    23     9    10   ar
    24    10    11   ar
    25    14    15    2
    26    15    16    1
    27    15    17    1
    28    17    18    1
    29    31    22    1
    30    11     2    1
    31    29    24   ar
    32    11     6   ar
    33    31    32    1
    34    18    19    1
    35    18    20    1
@<TRIPOS>MOLECULE
*****
 32 35 0 0 0
SMALL
GASTEIGER

@<TRIPOS>ATOM
      1 N         -12.7207   -5.4971   16.9455 N.3     1  UNL1       -0.2643
      2 C         -13.2006   -4.6747   18.1045 C.3     1  UNL1        0.0981
      3 C         -13.4244   -5.3197   19.4401 C.3     1  UNL1        0.0224
      4 C         -13.9044   -4.4973   20.5991 C.3     1  UNL1        0.0065
      5 C         -14.1605   -3.0300   20.4226 C.3     1  UNL1        0.0277
      6 C         -13.9367   -2.3850   19.0870 C.ar    1  UNL1       -0.0073
      7 C         -14.1929   -0.9176   18.9104 C.ar    1  UNL1       -0.0015
      8 C         -13.9691   -0.2726   17.5748 C.ar    1  UNL1        0.0203
      9 C         -13.4892   -1.0949   16.4158 C.ar    1  UNL1        0.0985
     10 N         -13.2330   -2.5623   16.5923 N.ar    1  UNL1       -0.2471
     11 C         -13.4568   -3.2073   17.9280 C.ar    1  UNL1        0.0695
     12 C         -11.2531   -5.5937   16.6511 C.3     1  UNL1        0.0971
     13 C          -9.6509   -3.8533   17.7254 C.3     1  UNL1        0.0298
     14 C         -10.2510   -5.2279   17.7056 C.2     1  UNL1       -0.0033
     15 C          -9.8489   -6.2367   18.7404 C.2     1  UNL1        0.1267
     16 F          -8.8468   -5.8709   19.7949 F       1  UNL1       -0.2080
     17 C         -10.4490   -7.6113   18.7207 C.3     1  UNL1        0.1220
     18 N          -9.7874   -8.7073   17.9390 N.3     1  UNL1       -0.3156
     19 H          -9.8296   -8.4883   16.9437 H       1  UNL1        0.1192
     20 H         -10.2699   -9.5887   18.1140 H       1  UNL1        0.1192
     21 C         -13.7084   -6.2228   16.0807 C.3     1  UNL1        0.0888
     22 C         -14.5930   -7.2780   16.6757 C.3     1  UNL1        0.0748
     23 C         -16.0580   -7.2971   16.3545 C.3     1  UNL1        0.0432
     24 C         -16.9426   -8.3524   16.9495 C.ar    1  UNL1       -0.0234
     25 C         -18.4077   -8.3715   16.6283 C.ar    1  UNL1       -0.0045
     26 C         -19.2922   -9.4268   17.2233 C.ar    1  UNL1       -0.0003
     27 C         -18.7117  -10.4629   18.1395 C.ar    1  UNL1       -0.0003
     28 C         -17.2466  -10.4438   18.4607 C.ar    1  UNL1       -0.0032
     29 C         -16.3621   -9.3886   17.8657 C.ar    1  UNL1       -0.0103
     30 C         -14.8970   -9.3694   18.1869 C.3     1  UNL1        0.0953
     31 N         -14.0124   -8.3142   17.5919 N.3     1  UNL1       -0.2934
     32 H         -13.2875   -8.8007   17.0644 H       1  UNL1        0.1236
@<TRIPOS>BOND
     1    13    14    1
     2    14    12    1
     3    12     1    1
     4     1    21    1
     5    22    21    1
     6    22    23    1
     7    23    24    1
     8    24    25   ar
     9    25    26   ar
    10    26    27   ar
    11    27    28   ar
    12    28    29   ar
    13    29    30    1
    14    30    31    1
    15     2     1    1
    16     2     3    1
    17     3     4    1
    18     4     5    1
    19     5     6    1
    20     6     7   ar
    21     7     8   ar
    22     8     9   ar
    23     9    10   ar
    24    10    11   ar
    25    14    15    2
    26    15    16    1
    27    15    17    1
    28    17    18    1
    29    31    22    1
    30    11     2    1
    31    29    24   ar
    32    11     6   ar
    33    31    32    1
    34    18    19    1
    35    18    20    1
@<TRIPOS>MOLECULE
*****
 32 35 0 0 0
SMALL
GASTEIGER

@<TRIPOS>ATOM
      1 N          -7.9648  -18.9804   22.6045 N.3     1  UNL1       -0.2643
      2 C          -9.0922  -18.9235   21.6168 C.3     1  UNL1        0.0981
      3 C          -8.8347  -19.2103   20.1672 C.3     1  UNL1        0.0224
      4 C          -9.9621  -19.1534   19.1795 C.3     1  UNL1        0.0065
      5 C         -11.3472  -18.8096   19.6414 C.3     1  UNL1        0.0277
      6 C         -11.6048  -18.5228   21.0909 C.ar    1  UNL1       -0.0073
      7 C         -12.9899  -18.1790   21.5529 C.ar    1  UNL1       -0.0015
      8 C         -13.2475  -17.8921   23.0025 C.ar    1  UNL1        0.0203
      9 C         -12.1200  -17.9491   23.9902 C.ar    1  UNL1        0.0985
     10 N         -10.7350  -18.2929   23.5283 N.ar    1  UNL1       -0.2471
     11 C         -10.4773  -18.5797   22.0786 C.ar    1  UNL1        0.0695
     12 C          -7.9227  -18.0144   23.7512 C.3     1  UNL1        0.0971
     13 C          -7.6076  -16.0435   22.0879 C.3     1  UNL1        0.0298
     14 C          -7.8138  -16.5417   23.4876 C.2     1  UNL1       -0.0033
     15 C          -7.9110  -15.5673   24.6239 C.2     1  UNL1        0.1267
     16 F          -7.8021  -14.0946   24.3604 F       1  UNL1       -0.2080
     17 C          -8.1173  -16.0655   26.0236 C.3     1  UNL1        0.1220
     18 N          -8.0102  -15.1169   27.1806 N.3     1  UNL1       -0.3156
     19 H          -7.0498  -14.7823   27.2583 H       1  UNL1        0.1192
     20 H          -8.2731  -15.5985   28.0405 H       1  UNL1        0.1192
     21 C          -6.8793  -20.0034   22.4455 C.3     1  UNL1        0.0888
     22 C          -5.6104  -19.6455   21.7300 C.3     1  UNL1        0.0748
     23 C          -4.7424  -18.5386   22.2508 C.3     1  UNL1        0.0432
     24 C          -3.4734  -18.1807   21.5353 C.ar    1  UNL1       -0.0234
     25 C          -2.6054  -17.0738   22.0560 C.ar    1  UNL1       -0.0045
     26 C          -1.3365  -16.7160   21.3406 C.ar    1  UNL1       -0.0003
     27 C          -0.9357  -17.4651   20.1044 C.ar    1  UNL1       -0.0003
     28 C          -1.8037  -18.5721   19.5837 C.ar    1  UNL1       -0.0032
     29 C          -3.0726  -18.9299   20.2991 C.ar    1  UNL1       -0.0103
     30 C          -3.9407  -20.0368   19.7784 C.3     1  UNL1        0.0953
     31 N          -5.2095  -20.3946   20.4938 N.3     1  UNL1       -0.2934
     32 H          -5.1322  -21.3771   20.7570 H       1  UNL1        0.1236
@<TRIPOS>BOND
     1    13    14    1
     2    14    12    1
     3    12     1    1
     4     1    21    1
     5    22    21    1
     6    22    23    1
     7    23    24    1
     8    24    25   ar
     9    25    26   ar
    10    26    27   ar
    11    27    28   ar
    12    28    29   ar
    13    29    30    1
    14    30    31    1
    15     2     1    1
    16     2     3    1
    17     3     4    1
    18     4     5    1
    19     5     6    1
    20     6     7   ar
    21     7     8   ar
    22     8     9   ar
    23     9    10   ar
    24    10    11   ar
    25    14    15    2
    26    15    16    1
    27    15    17    1
    28    17    18    1
    29    31    22    1
    30    11     2    1
    31    29    24   ar
    32    11     6   ar
    33    31    32    1
    34    18    19    1
    35    18    20    1
@<TRIPOS>MOLECULE
*****
 32 35 0 0 0
SMALL
GASTEIGER

@<TRIPOS>ATOM
      1 N          -7.6289  -17.8755   22.6226 N.3     1  UNL1       -0.2643
      2 C          -8.5263  -18.2957   21.4965 C.3     1  UNL1        0.0981
      3 C          -8.0787  -19.3585   20.5374 C.3     1  UNL1        0.0224
      4 C          -8.9762  -19.7788   19.4113 C.3     1  UNL1        0.0065
      5 C         -10.3213  -19.1362   19.2445 C.3     1  UNL1        0.0277
      6 C         -10.7689  -18.0734   20.2036 C.ar    1  UNL1       -0.0073
      7 C         -12.1140  -17.4308   20.0368 C.ar    1  UNL1       -0.0015
      8 C         -12.5616  -16.3680   20.9960 C.ar    1  UNL1        0.0203
      9 C         -11.6641  -15.9477   22.1220 C.ar    1  UNL1        0.0985
     10 N         -10.3190  -16.5903   22.2889 N.ar    1  UNL1       -0.2471
     11 C          -9.8714  -17.6531   21.3297 C.ar    1  UNL1        0.0695
     12 C          -7.9853  -16.6839   23.4610 C.3     1  UNL1        0.0971
     13 C          -9.5044  -17.8611   25.2092 C.3     1  UNL1        0.0298
     14 C          -8.4254  -16.8717   24.8826 C.2     1  UNL1       -0.0033
     15 C          -7.7864  -16.0700   25.9777 C.2     1  UNL1        0.1267
     16 F          -8.2266  -16.2578   27.3993 F       1  UNL1       -0.2080
     17 C          -6.7074  -15.0806   25.6511 C.3     1  UNL1        0.1220
     18 N          -5.2682  -15.4394   25.8746 N.3     1  UNL1       -0.3156
     19 H          -5.0977  -15.5544   26.8737 H       1  UNL1        0.1192
     20 H          -4.6721  -14.6957   25.5113 H       1  UNL1        0.1192
     21 C          -6.3750  -18.6468   22.9102 C.3     1  UNL1        0.0888
     22 C          -5.0455  -18.1073   22.4725 C.3     1  UNL1        0.0748
     23 C          -4.3140  -18.7501   21.3316 C.3     1  UNL1        0.0432
     24 C          -2.9845  -18.2106   20.8940 C.ar    1  UNL1       -0.0234
     25 C          -2.2531  -18.8534   19.7530 C.ar    1  UNL1       -0.0045
     26 C          -0.9236  -18.3139   19.3154 C.ar    1  UNL1       -0.0003
     27 C          -0.3257  -17.1316   20.0188 C.ar    1  UNL1       -0.0003
     28 C          -1.0571  -16.4889   21.1597 C.ar    1  UNL1       -0.0032
     29 C          -2.3865  -17.0284   21.5973 C.ar    1  UNL1       -0.0103
     30 C          -3.1181  -16.3856   22.7383 C.3     1  UNL1        0.0953
     31 N          -4.4475  -16.9251   23.1759 N.3     1  UNL1       -0.2934
     32 H          -5.1180  -16.1612   23.0900 H       1  UNL1        0.1236
@<TRIPOS>BOND
     1    13    14    1
     2    14    12    1
     3    12     1    1
     4     1    21    1
     5    22    21    1
     6    22    23    1
     7    23    24    1
     8    24    25   ar
     9    25    26   ar
    10    26    27   ar
    11    27    28   ar
    12    28    29   ar
    13    29    30    1
    14    30    31    1
    15     2     1    1
    16     2     3    1
    17     3     4    1
    18     4     5    1
    19     5     6    1
    20     6     7   ar
    21     7     8   ar
    22     8     9   ar
    23     9    10   ar
    24    10    11   ar
    25    14    15    2
    26    15    16    1
    27    15    17    1
    28    17    18    1
    29    31    22    1
    30    11     2    1
    31    29    24   ar
    32    11     6   ar
    33    31    32    1
    34    18    19    1
    35    18    20    1
@<TRIPOS>MOLECULE
*****
 32 35 0 0 0
SMALL
GASTEIGER

@<TRIPOS>ATOM
      1 N         -12.8993   -4.0492   17.9664 N.3     1  UNL1       -0.2643
      2 C         -12.4558   -2.6379   17.7185 C.3     1  UNL1        0.0981
      3 C         -11.1511   -2.3721   17.0279 C.3     1  UNL1        0.0224
      4 C         -10.7076   -0.9608   16.7800 C.3     1  UNL1        0.0065
      5 C         -11.5688    0.1848   17.2227 C.3     1  UNL1        0.0277
      6 C         -12.8735   -0.0810   17.9134 C.ar    1  UNL1       -0.0073
      7 C         -13.7348    1.0645   18.3561 C.ar    1  UNL1       -0.0015
      8 C         -15.0395    0.7987   19.0467 C.ar    1  UNL1        0.0203
      9 C         -15.4830   -0.6126   19.2946 C.ar    1  UNL1        0.0985
     10 N         -14.6218   -1.7581   18.8519 N.ar    1  UNL1       -0.2471
     11 C         -13.3170   -1.4924   18.1613 C.ar    1  UNL1        0.0695
     12 C         -12.2613   -4.8549   19.0590 C.3     1  UNL1        0.0971
     13 C          -9.6670   -4.7915   19.1830 C.3     1  UNL1        0.0298
     14 C         -10.9333   -5.5129   18.8280 C.2     1  UNL1       -0.0033
     15 C         -10.8715   -6.8923   18.2419 C.2     1  UNL1        0.1267
     16 F          -9.5435   -7.5503   18.0108 F       1  UNL1       -0.2080
     17 C         -12.1378   -7.6137   17.8869 C.3     1  UNL1        0.1220
     18 N         -13.0542   -8.0981   18.9711 N.3     1  UNL1       -0.3156
     19 H         -12.5875   -8.8276   19.5100 H       1  UNL1        0.1192
     20 H         -13.9050   -8.4754   18.5538 H       1  UNL1        0.1192
     21 C         -13.9809   -4.6548   17.1218 C.3     1  UNL1        0.0888
     22 C         -15.1743   -5.2890   17.7727 C.3     1  UNL1        0.0748
     23 C         -15.6822   -6.6120   17.2809 C.3     1  UNL1        0.0432
     24 C         -16.8756   -7.2462   17.9318 C.ar    1  UNL1       -0.0234
     25 C         -17.3835   -8.5691   17.4400 C.ar    1  UNL1       -0.0045
     26 C         -18.5769   -9.2032   18.0909 C.ar    1  UNL1       -0.0003
     27 C         -19.2623   -8.5144   19.2336 C.ar    1  UNL1       -0.0003
     28 C         -18.7545   -7.1915   19.7254 C.ar    1  UNL1       -0.0032
     29 C         -17.5611   -6.5574   19.0745 C.ar    1  UNL1       -0.0103
     30 C         -17.0531   -5.2344   19.5662 C.3     1  UNL1        0.0953
     31 N         -15.8598   -4.6002   18.9153 N.3     1  UNL1       -0.2934
     32 H         -15.1590   -4.4730   19.6455 H       1  UNL1        0.1236
@<TRIPOS>BOND
     1    13    14    1
     2    14    12    1
     3    12     1    1
     4     1    21    1
     5    22    21    1
     6    22    23    1
     7    23    24    1
     8    24    25   ar
     9    25    26   ar
    10    26    27   ar
    11    27    28   ar
    12    28    29   ar
    13    29    30    1
    14    30    31    1
    15     2     1    1
    16     2     3    1
    17     3     4    1
    18     4     5    1
    19     5     6    1
    20     6     7   ar
    21     7     8   ar
    22     8     9   ar
    23     9    10   ar
    24    10    11   ar
    25    14    15    2
    26    15    16    1
    27    15    17    1
    28    17    18    1
    29    31    22    1
    30    11     2    1
    31    29    24   ar
    32    11     6   ar
    33    31    32    1
    34    18    19    1
    35    18    20    1
