@<TRIPOS>MOLECULE
*****
 33 37 0 0 0
SMALL
GASTEIGER

@<TRIPOS>ATOM
      1 C          -8.0100  -19.0220   20.0841 C.3     1  UNL1        0.0749
      2 C          -8.3004  -18.1622   21.2784 C.3     1  UNL1        0.0444
      3 C          -9.7189  -17.9244   21.7040 C.ar    1  UNL1       -0.0101
      4 C         -10.8470  -18.5465   20.9355 C.ar    1  UNL1       -0.0091
      5 C         -12.2655  -18.3086   21.3612 C.ar    1  UNL1       -0.0032
      6 C         -12.5560  -17.4488   22.5555 C.ar    1  UNL1        0.0010
      7 C         -11.4280  -16.8268   23.3241 C.ar    1  UNL1        0.0142
      8 C         -10.0095  -17.0646   22.8984 C.ar    1  UNL1        0.0436
      9 C         -10.5565  -19.4063   19.7412 C.3     1  UNL1        0.0954
     10 N          -9.1380  -19.6440   19.3155 N.3     1  UNL1       -0.2934
     11 H          -9.0590  -19.3104   18.3549 H       1  UNL1        0.1236
     12 N          -8.8815  -16.4426   23.6669 N.pl3   1  UNL1       -0.3077
     13 C          -7.7781  -15.7344   22.9381 C.3     1  UNL1        0.0921
     14 C          -6.6501  -15.1124   23.7067 C.3     1  UNL1        0.0369
     15 C          -6.6255  -15.1986   25.2041 C.3     1  UNL1        0.0542
     16 N          -5.4975  -14.5766   25.9727 N.3     1  UNL1       -0.3221
     17 C          -7.7288  -15.9067   25.9328 C.3     1  UNL1        0.0369
     18 C          -8.8568  -16.5287   25.1642 C.3     1  UNL1        0.0921
     19 H          -4.8425  -14.1416   25.3229 H       1  UNL1        0.1188
     20 H          -5.0151  -15.2964   26.5108 H       1  UNL1        0.1188
     21 C          -6.5914  -19.2599   19.6583 C.3     1  UNL1        0.0886
     22 C          -5.5958  -21.3690   20.8032 C.3     1  UNL1        0.0899
     23 N          -5.6158  -19.8811   20.6134 N.3     1  UNL1       -0.2667
     24 C          -4.6602  -19.0146   21.3789 C.3     1  UNL1        0.0978
     25 C          -4.9478  -18.6615   22.8080 C.3     1  UNL1        0.0224
     26 C          -3.9922  -17.7949   23.5734 C.3     1  UNL1        0.0065
     27 C          -2.7489  -17.2815   22.9097 C.3     1  UNL1        0.0277
     28 C          -2.4612  -17.6345   21.4804 C.ar    1  UNL1       -0.0073
     29 C          -1.2180  -17.1211   20.8167 C.ar    1  UNL1       -0.0015
     30 C          -0.9304  -17.4741   19.3875 C.ar    1  UNL1        0.0203
     31 C          -1.8860  -18.3407   18.6221 C.ar    1  UNL1        0.0985
     32 N          -3.1293  -18.8542   19.2859 N.ar    1  UNL1       -0.2471
     33 C          -3.4169  -18.5011   20.7150 C.ar    1  UNL1        0.0695
@<TRIPOS>BOND
     1    22    23    1
     2    23    21    1
     3     1    21    1
     4     1     2    1
     5     2     3    1
     6     3     4   ar
     7     4     5   ar
     8     5     6   ar
     9     6     7   ar
    10     7     8   ar
    11     8    12    1
    12    12    13    1
    13    13    14    1
    14    14    15    1
    15    15    16    1
    16    15    17    1
    17    17    18    1
    18     4     9    1
    19     9    10    1
    20    24    23    1
    21    24    25    1
    22    25    26    1
    23    26    27    1
    24    27    28    1
    25    28    29   ar
    26    29    30   ar
    27    30    31   ar
    28    31    32   ar
    29    32    33   ar
    30    10     1    1
    31    33    24    1
    32     8     3   ar
    33    18    12    1
    34    33    28   ar
    35    16    19    1
    36    16    20    1
    37    10    11    1
@<TRIPOS>MOLECULE
*****
 33 37 0 0 0
SMALL
GASTEIGER

@<TRIPOS>ATOM
      1 C          -5.7576  -19.9215   21.2365 C.3     1  UNL1        0.0749
      2 C          -5.2409  -18.7739   22.0525 C.3     1  UNL1        0.0444
      3 C          -3.9282  -18.1371   21.7042 C.ar    1  UNL1       -0.0101
      4 C          -3.1323  -18.6481   20.5399 C.ar    1  UNL1       -0.0091
      5 C          -1.8195  -18.0113   20.1916 C.ar    1  UNL1       -0.0032
      6 C          -1.3027  -16.8636   21.0076 C.ar    1  UNL1        0.0010
      7 C          -2.0987  -16.3527   22.1718 C.ar    1  UNL1        0.0142
      8 C          -3.4113  -16.9894   22.5201 C.ar    1  UNL1        0.0436
      9 C          -3.6490  -19.7957   19.7240 C.3     1  UNL1        0.0954
     10 N          -4.9617  -20.4324   20.0723 N.3     1  UNL1       -0.2934
     11 H          -4.7717  -21.4177   20.2552 H       1  UNL1        0.1236
     12 N          -4.2073  -16.4785   23.6844 N.pl3   1  UNL1       -0.3077
     13 C          -4.0101  -17.0742   25.0469 C.3     1  UNL1        0.0921
     14 C          -4.8060  -16.5633   26.2111 C.3     1  UNL1        0.0369
     15 C          -5.7991  -15.4566   26.0128 C.3     1  UNL1        0.0542
     16 N          -6.5950  -14.9457   27.1771 N.3     1  UNL1       -0.3221
     17 C          -5.9962  -14.8610   24.6504 C.3     1  UNL1        0.0369
     18 C          -5.2003  -15.3719   23.4862 C.3     1  UNL1        0.0921
     19 H          -6.3349  -15.4600   28.0187 H       1  UNL1        0.1188
     20 H          -7.5896  -15.0764   26.9926 H       1  UNL1        0.1188
     21 C          -7.0704  -20.5583   21.5848 C.3     1  UNL1        0.0886
     22 C          -8.6362  -19.5796   19.7571 C.3     1  UNL1        0.0899
     23 N          -8.3552  -19.8879   21.1980 N.3     1  UNL1       -0.2667
     24 C          -9.3592  -19.5257   22.2520 C.3     1  UNL1        0.0978
     25 C          -9.3734  -20.2619   23.5588 C.3     1  UNL1        0.0224
     26 C         -10.3773  -19.8997   24.6128 C.3     1  UNL1        0.0065
     27 C         -11.3671  -18.8014   24.3600 C.3     1  UNL1        0.0277
     28 C         -11.3530  -18.0652   23.0531 C.ar    1  UNL1       -0.0073
     29 C         -12.3428  -16.9669   22.8002 C.ar    1  UNL1       -0.0015
     30 C         -12.3287  -16.2308   21.4934 C.ar    1  UNL1        0.0203
     31 C         -11.3247  -16.5929   20.4394 C.ar    1  UNL1        0.0985
     32 N         -10.3349  -17.6912   20.6923 N.ar    1  UNL1       -0.2471
     33 C         -10.3490  -18.4274   21.9991 C.ar    1  UNL1        0.0695
@<TRIPOS>BOND
     1    22    23    1
     2    23    21    1
     3     1    21    1
     4     1     2    1
     5     2     3    1
     6     3     4   ar
     7     4     5   ar
     8     5     6   ar
     9     6     7   ar
    10     7     8   ar
    11     8    12    1
    12    12    13    1
    13    13    14    1
    14    14    15    1
    15    15    16    1
    16    15    17    1
    17    17    18    1
    18     4     9    1
    19     9    10    1
    20    24    23    1
    21    24    25    1
    22    25    26    1
    23    26    27    1
    24    27    28    1
    25    28    29   ar
    26    29    30   ar
    27    30    31   ar
    28    31    32   ar
    29    32    33   ar
    30    10     1    1
    31    33    24    1
    32     8     3   ar
    33    18    12    1
    34    33    28   ar
    35    16    19    1
    36    16    20    1
    37    10    11    1
@<TRIPOS>MOLECULE
*****
 33 37 0 0 0
SMALL
GASTEIGER

@<TRIPOS>ATOM
      1 C          -6.9380  -19.7296   21.3508 C.3     1  UNL1        0.0749
      2 C          -6.1462  -18.8260   22.2488 C.3     1  UNL1        0.0444
      3 C          -4.6581  -18.7258   22.0887 C.ar    1  UNL1       -0.0101
      4 C          -3.9619  -19.5292   21.0304 C.ar    1  UNL1       -0.0091
      5 C          -2.4738  -19.4290   20.8703 C.ar    1  UNL1       -0.0032
      6 C          -1.6820  -18.5254   21.7683 C.ar    1  UNL1        0.0010
      7 C          -2.3782  -17.7220   22.8265 C.ar    1  UNL1        0.0142
      8 C          -3.8662  -17.8222   22.9867 C.ar    1  UNL1        0.0436
      9 C          -4.7537  -20.4328   20.1324 C.3     1  UNL1        0.0954
     10 N          -6.2418  -20.5330   20.2926 N.3     1  UNL1       -0.2934
     11 H          -6.4523  -21.5131   20.4808 H       1  UNL1        0.1236
     12 N          -4.5624  -17.0188   24.0449 N.pl3   1  UNL1       -0.3077
     13 C          -5.5837  -15.9913   23.6560 C.3     1  UNL1        0.0921
     14 C          -6.2799  -15.1878   24.7142 C.3     1  UNL1        0.0369
     15 C          -5.9548  -15.4120   26.1614 C.3     1  UNL1        0.0542
     16 N          -6.6510  -14.6086   27.2196 N.3     1  UNL1       -0.3221
     17 C          -4.9336  -16.4395   26.5502 C.3     1  UNL1        0.0369
     18 C          -4.2374  -17.2429   25.4920 C.3     1  UNL1        0.0921
     19 H          -7.3072  -13.9632   26.7799 H       1  UNL1        0.1188
     20 H          -5.9614  -14.0805   27.7543 H       1  UNL1        0.1188
     21 C          -8.4261  -19.8298   21.5110 C.3     1  UNL1        0.0886
     22 C          -9.1400  -19.9525   19.0159 C.3     1  UNL1        0.0899
     23 N          -9.3312  -19.3968   20.3960 N.3     1  UNL1       -0.2667
     24 C         -10.4277  -18.4081   20.6611 C.3     1  UNL1        0.0978
     25 C         -10.7706  -17.3741   19.6301 C.3     1  UNL1        0.0224
     26 C         -11.8671  -16.3854   19.8952 C.3     1  UNL1        0.0065
     27 C         -12.6206  -16.4308   21.1913 C.3     1  UNL1        0.0277
     28 C         -12.2778  -17.4649   22.2224 C.ar    1  UNL1       -0.0073
     29 C         -13.0313  -17.5103   23.5186 C.ar    1  UNL1       -0.0015
     30 C         -12.6884  -18.5443   24.5496 C.ar    1  UNL1        0.0203
     31 C         -11.5920  -19.5330   24.2845 C.ar    1  UNL1        0.0985
     32 N         -10.8384  -19.4876   22.9884 N.ar    1  UNL1       -0.2471
     33 C         -11.1813  -18.4535   21.9573 C.ar    1  UNL1        0.0695
@<TRIPOS>BOND
     1    22    23    1
     2    23    21    1
     3     1    21    1
     4     1     2    1
     5     2     3    1
     6     3     4   ar
     7     4     5   ar
     8     5     6   ar
     9     6     7   ar
    10     7     8   ar
    11     8    12    1
    12    12    13    1
    13    13    14    1
    14    14    15    1
    15    15    16    1
    16    15    17    1
    17    17    18    1
    18     4     9    1
    19     9    10    1
    20    24    23    1
    21    24    25    1
    22    25    26    1
    23    26    27    1
    24    27    28    1
    25    28    29   ar
    26    29    30   ar
    27    30    31   ar
    28    31    32   ar
    29    32    33   ar
    30    10     1    1
    31    33    24    1
    32     8     3   ar
    33    18    12    1
    34    33    28   ar
    35    16    19    1
    36    16    20    1
    37    10    11    1
@<TRIPOS>MOLECULE
*****
 33 37 0 0 0
SMALL
GASTEIGER

@<TRIPOS>ATOM
      1 C          -8.5449  -19.1889   20.2057 C.3     1  UNL1        0.0749
      2 C          -8.7037  -18.2117   21.3326 C.3     1  UNL1        0.0444
      3 C         -10.0728  -17.7596   21.7459 C.ar    1  UNL1       -0.0101
      4 C         -11.2833  -18.2847   21.0324 C.ar    1  UNL1       -0.0091
      5 C         -12.6525  -17.8325   21.4458 C.ar    1  UNL1       -0.0032
      6 C         -12.8113  -16.8554   22.5727 C.ar    1  UNL1        0.0010
      7 C         -11.6008  -16.3303   23.2862 C.ar    1  UNL1        0.0142
      8 C         -10.2316  -16.7824   22.8729 C.ar    1  UNL1        0.0436
      9 C         -11.1245  -19.2619   19.9055 C.3     1  UNL1        0.0954
     10 N          -9.7554  -19.7140   19.4922 N.3     1  UNL1       -0.2934
     11 H          -9.6479  -19.4662   18.5086 H       1  UNL1        0.1236
     12 N          -9.0212  -16.2573   23.5864 N.pl3   1  UNL1       -0.3077
     13 C          -8.9108  -16.3935   25.0761 C.3     1  UNL1        0.0921
     14 C          -7.7004  -15.8685   25.7897 C.3     1  UNL1        0.0369
     15 C          -6.6003  -15.2071   25.0134 C.3     1  UNL1        0.0542
     16 N          -5.3899  -14.6820   25.7269 N.3     1  UNL1       -0.3221
     17 C          -6.7107  -15.0709   23.5237 C.3     1  UNL1        0.0369
     18 C          -7.9211  -15.5960   22.8102 C.3     1  UNL1        0.0921
     19 H          -5.4818  -14.8582   26.7274 H       1  UNL1        0.1188
     20 H          -5.3082  -13.6783   25.5646 H       1  UNL1        0.1188
     21 C          -7.1757  -19.6410   19.7923 C.3     1  UNL1        0.0886
     22 C          -6.5174  -20.6924   22.0752 C.3     1  UNL1        0.0899
     23 N          -6.1385  -19.9405   20.8337 N.3     1  UNL1       -0.2667
     24 C          -4.7224  -19.4882   20.6337 C.3     1  UNL1        0.0978
     25 C          -4.0146  -19.7866   19.3453 C.3     1  UNL1        0.0224
     26 C          -2.5985  -19.3343   19.1453 C.3     1  UNL1        0.0065
     27 C          -1.8902  -18.5835   20.2337 C.3     1  UNL1        0.0277
     28 C          -2.5979  -18.2850   21.5221 C.ar    1  UNL1       -0.0073
     29 C          -1.8896  -17.5343   22.6105 C.ar    1  UNL1       -0.0015
     30 C          -2.5974  -17.2358   23.8988 C.ar    1  UNL1        0.0203
     31 C          -4.0135  -17.6881   24.0988 C.ar    1  UNL1        0.0985
     32 N          -4.7218  -18.4389   23.0105 N.ar    1  UNL1       -0.2471
     33 C          -4.0141  -18.7374   21.7221 C.ar    1  UNL1        0.0695
@<TRIPOS>BOND
     1    22    23    1
     2    23    21    1
     3     1    21    1
     4     1     2    1
     5     2     3    1
     6     3     4   ar
     7     4     5   ar
     8     5     6   ar
     9     6     7   ar
    10     7     8   ar
    11     8    12    1
    12    12    13    1
    13    13    14    1
    14    14    15    1
    15    15    16    1
    16    15    17    1
    17    17    18    1
    18     4     9    1
    19     9    10    1
    20    24    23    1
    21    24    25    1
    22    25    26    1
    23    26    27    1
    24    27    28    1
    25    28    29   ar
    26    29    30   ar
    27    30    31   ar
    28    31    32   ar
    29    32    33   ar
    30    10     1    1
    31    33    24    1
    32     8     3   ar
    33    18    12    1
    34    33    28   ar
    35    16    19    1
    36    16    20    1
    37    10    11    1
@<TRIPOS>MOLECULE
*****
 33 37 0 0 0
SMALL
GASTEIGER

@<TRIPOS>ATOM
      1 C          -8.3781  -16.4459   22.2678 C.3     1  UNL1        0.0749
      2 C          -6.9277  -16.6069   22.6144 C.3     1  UNL1        0.0444
      3 C          -6.4029  -16.0702   23.9131 C.ar    1  UNL1       -0.0101
      4 C          -7.3286  -15.3725   24.8651 C.ar    1  UNL1       -0.0091
      5 C          -6.8038  -14.8358   26.1638 C.ar    1  UNL1       -0.0032
      6 C          -5.3534  -14.9967   26.5104 C.ar    1  UNL1        0.0010
      7 C          -4.4276  -15.6944   25.5584 C.ar    1  UNL1        0.0142
      8 C          -4.9524  -16.2311   24.2598 C.ar    1  UNL1        0.0436
      9 C          -8.7791  -15.2116   24.5184 C.3     1  UNL1        0.0954
     10 N          -9.3039  -15.7483   23.2198 N.3     1  UNL1       -0.2934
     11 H          -9.7045  -14.9577   22.7148 H       1  UNL1        0.1236
     12 N          -4.0267  -16.9287   23.3077 N.pl3   1  UNL1       -0.3077
     13 C          -3.0470  -16.1339   22.4962 C.3     1  UNL1        0.0921
     14 C          -2.1213  -16.8316   21.5441 C.3     1  UNL1        0.0369
     15 C          -2.1752  -18.3241   21.4037 C.3     1  UNL1        0.0542
     16 N          -1.2495  -19.0217   20.4517 N.3     1  UNL1       -0.3221
     17 C          -3.1548  -19.1188   22.2153 C.3     1  UNL1        0.0369
     18 C          -4.0806  -18.4211   23.1673 C.3     1  UNL1        0.0921
     19 H          -0.6571  -18.3332   19.9875 H       1  UNL1        0.1188
     20 H          -1.7964  -19.5256   19.7536 H       1  UNL1        0.1188
     21 C          -8.9030  -16.9827   20.9691 C.3     1  UNL1        0.0886
     22 C          -9.8809  -18.9700   19.6111 C.3     1  UNL1        0.0899
     23 N          -9.5803  -18.3204   20.9294 N.3     1  UNL1       -0.2667
     24 C          -9.9570  -19.0086   22.2079 C.3     1  UNL1        0.0978
     25 C          -9.0619  -20.0664   22.7821 C.3     1  UNL1        0.0224
     26 C          -9.4386  -20.7546   24.0606 C.3     1  UNL1        0.0065
     27 C         -10.7103  -20.3850   24.7648 C.3     1  UNL1        0.0277
     28 C         -11.6055  -19.3271   24.1905 C.ar    1  UNL1       -0.0073
     29 C         -12.8773  -18.9575   24.8947 C.ar    1  UNL1       -0.0015
     30 C         -13.7724  -17.8997   24.3204 C.ar    1  UNL1        0.0203
     31 C         -13.3957  -17.2116   23.0419 C.ar    1  UNL1        0.0985
     32 N         -12.1239  -17.5812   22.3378 N.ar    1  UNL1       -0.2471
     33 C         -11.2288  -18.6389   22.9120 C.ar    1  UNL1        0.0695
@<TRIPOS>BOND
     1    22    23    1
     2    23    21    1
     3     1    21    1
     4     1     2    1
     5     2     3    1
     6     3     4   ar
     7     4     5   ar
     8     5     6   ar
     9     6     7   ar
    10     7     8   ar
    11     8    12    1
    12    12    13    1
    13    13    14    1
    14    14    15    1
    15    15    16    1
    16    15    17    1
    17    17    18    1
    18     4     9    1
    19     9    10    1
    20    24    23    1
    21    24    25    1
    22    25    26    1
    23    26    27    1
    24    27    28    1
    25    28    29   ar
    26    29    30   ar
    27    30    31   ar
    28    31    32   ar
    29    32    33   ar
    30    10     1    1
    31    33    24    1
    32     8     3   ar
    33    18    12    1
    34    33    28   ar
    35    16    19    1
    36    16    20    1
    37    10    11    1
@<TRIPOS>MOLECULE
*****
 33 37 0 0 0
SMALL
GASTEIGER

@<TRIPOS>ATOM
      1 C          -8.6728  -15.8189   22.5792 C.3     1  UNL1        0.0749
      2 C          -7.2476  -16.2260   22.8095 C.3     1  UNL1        0.0444
      3 C          -6.6528  -16.1300   24.1832 C.ar    1  UNL1       -0.0101
      4 C          -7.4833  -15.6270   25.3266 C.ar    1  UNL1       -0.0091
      5 C          -6.8885  -15.5311   26.7003 C.ar    1  UNL1       -0.0032
      6 C          -5.4633  -15.9381   26.9306 C.ar    1  UNL1        0.0010
      7 C          -4.6329  -16.4410   25.7873 C.ar    1  UNL1        0.0142
      8 C          -5.2276  -16.5370   24.4136 C.ar    1  UNL1        0.0436
      9 C          -8.9085  -15.2200   25.0963 C.3     1  UNL1        0.0954
     10 N          -9.5032  -15.3160   23.7226 N.3     1  UNL1       -0.2934
     11 H          -9.8144  -14.3779   23.4702 H       1  UNL1        0.1236
     12 N          -4.3971  -17.0400   23.2702 N.pl3   1  UNL1       -0.3077
     13 C          -3.2810  -16.1980   22.7265 C.3     1  UNL1        0.0921
     14 C          -2.4505  -16.7009   21.5832 C.3     1  UNL1        0.0369
     15 C          -2.7361  -18.0459   20.9835 C.3     1  UNL1        0.0542
     16 N          -1.9056  -18.5489   19.8401 N.3     1  UNL1       -0.3221
     17 C          -3.8521  -18.8879   21.5272 C.3     1  UNL1        0.0369
     18 C          -4.6826  -18.3849   22.6705 C.3     1  UNL1        0.0921
     19 H          -1.1986  -17.8534   19.6017 H       1  UNL1        0.1188
     20 H          -2.5051  -18.7153   19.0318 H       1  UNL1        0.1188
     21 C          -9.2675  -15.9149   21.2055 C.3     1  UNL1        0.0886
     22 C         -11.0647  -16.8791   19.5958 C.3     1  UNL1        0.0899
     23 N         -10.5098  -16.7251   20.9810 N.3     1  UNL1       -0.2667
     24 C         -11.1971  -17.3813   22.1415 C.3     1  UNL1        0.0978
     25 C         -12.5306  -16.8761   22.6068 C.3     1  UNL1        0.0224
     26 C         -13.2180  -17.5323   23.7673 C.3     1  UNL1        0.0065
     27 C         -12.5719  -18.6938   24.4626 C.3     1  UNL1        0.0277
     28 C         -11.2384  -19.1992   23.9973 C.ar    1  UNL1       -0.0073
     29 C         -10.5923  -20.3607   24.6925 C.ar    1  UNL1       -0.0015
     30 C          -9.2589  -20.8660   24.2272 C.ar    1  UNL1        0.0203
     31 C          -8.5715  -20.2097   23.0667 C.ar    1  UNL1        0.0985
     32 N          -9.2176  -19.0482   22.3714 N.ar    1  UNL1       -0.2471
     33 C         -10.5510  -18.5429   22.8367 C.ar    1  UNL1        0.0695
@<TRIPOS>BOND
     1    22    23    1
     2    23    21    1
     3     1    21    1
     4     1     2    1
     5     2     3    1
     6     3     4   ar
     7     4     5   ar
     8     5     6   ar
     9     6     7   ar
    10     7     8   ar
    11     8    12    1
    12    12    13    1
    13    13    14    1
    14    14    15    1
    15    15    16    1
    16    15    17    1
    17    17    18    1
    18     4     9    1
    19     9    10    1
    20    24    23    1
    21    24    25    1
    22    25    26    1
    23    26    27    1
    24    27    28    1
    25    28    29   ar
    26    29    30   ar
    27    30    31   ar
    28    31    32   ar
    29    32    33   ar
    30    10     1    1
    31    33    24    1
    32     8     3   ar
    33    18    12    1
    34    33    28   ar
    35    16    19    1
    36    16    20    1
    37    10    11    1
@<TRIPOS>MOLECULE
*****
 33 37 0 0 0
SMALL
GASTEIGER

@<TRIPOS>ATOM
      1 C          -7.9657  -17.7439   21.8261 C.3     1  UNL1        0.0749
      2 C          -6.5530  -17.4621   22.2441 C.3     1  UNL1        0.0444
      3 C          -6.2825  -16.7010   23.5080 C.ar    1  UNL1       -0.0101
      4 C          -7.4248  -16.2218   24.3540 C.ar    1  UNL1       -0.0091
      5 C          -7.1542  -15.4607   25.6180 C.ar    1  UNL1       -0.0032
      6 C          -5.7415  -15.1788   26.0359 C.ar    1  UNL1        0.0010
      7 C          -4.5993  -15.6580   25.1900 C.ar    1  UNL1        0.0142
      8 C          -4.8697  -16.4191   23.9261 C.ar    1  UNL1        0.0436
      9 C          -8.8375  -16.5036   23.9360 C.3     1  UNL1        0.0954
     10 N          -9.1079  -17.2647   22.6721 N.3     1  UNL1       -0.2934
     11 H          -9.6789  -16.6605   22.0810 H       1  UNL1        0.1236
     12 N          -3.7275  -16.8983   23.0801 N.pl3   1  UNL1       -0.3077
     13 C          -2.9281  -15.9178   22.2741 C.3     1  UNL1        0.0921
     14 C          -1.7859  -16.3970   21.4282 C.3     1  UNL1        0.0369
     15 C          -1.4430  -17.8568   21.3882 C.3     1  UNL1        0.0542
     16 N          -0.3008  -18.3360   20.5422 N.3     1  UNL1       -0.3221
     17 C          -2.2424  -18.8373   22.1942 C.3     1  UNL1        0.0369
     18 C          -3.3846  -18.3581   23.0401 C.3     1  UNL1        0.0921
     19 H           0.1271  -17.5414   20.0670 H       1  UNL1        0.1188
     20 H          -0.6460  -19.0007   19.8498 H       1  UNL1        0.1188
     21 C          -8.2363  -18.5050   20.5621 C.3     1  UNL1        0.0886
     22 C          -9.8957  -20.1649   19.4480 C.3     1  UNL1        0.0899
     23 N          -9.6402  -18.8977   20.2090 N.3     1  UNL1       -0.2667
     24 C         -10.7887  -18.0233   20.6169 C.3     1  UNL1        0.0978
     25 C         -11.2438  -16.9141   19.7155 C.3     1  UNL1        0.0224
     26 C         -12.3923  -16.0396   20.1233 C.3     1  UNL1        0.0065
     27 C         -13.0856  -16.2744   21.4326 C.3     1  UNL1        0.0277
     28 C         -12.6305  -17.3836   22.3340 C.ar    1  UNL1       -0.0073
     29 C         -13.3239  -17.6184   23.6432 C.ar    1  UNL1       -0.0015
     30 C         -12.8688  -18.7276   24.5446 C.ar    1  UNL1        0.0203
     31 C         -11.7203  -19.6020   24.1367 C.ar    1  UNL1        0.0985
     32 N         -11.0269  -19.3673   22.8275 N.ar    1  UNL1       -0.2471
     33 C         -11.4820  -18.2581   21.9262 C.ar    1  UNL1        0.0695
@<TRIPOS>BOND
     1    22    23    1
     2    23    21    1
     3     1    21    1
     4     1     2    1
     5     2     3    1
     6     3     4   ar
     7     4     5   ar
     8     5     6   ar
     9     6     7   ar
    10     7     8   ar
    11     8    12    1
    12    12    13    1
    13    13    14    1
    14    14    15    1
    15    15    16    1
    16    15    17    1
    17    17    18    1
    18     4     9    1
    19     9    10    1
    20    24    23    1
    21    24    25    1
    22    25    26    1
    23    26    27    1
    24    27    28    1
    25    28    29   ar
    26    29    30   ar
    27    30    31   ar
    28    31    32   ar
    29    32    33   ar
    30    10     1    1
    31    33    24    1
    32     8     3   ar
    33    18    12    1
    34    33    28   ar
    35    16    19    1
    36    16    20    1
    37    10    11    1
@<TRIPOS>MOLECULE
*****
 33 37 0 0 0
SMALL
GASTEIGER

@<TRIPOS>ATOM
      1 C          -6.3325  -16.6769   23.5478 C.3     1  UNL1        0.0749
      2 C          -6.1869  -17.7315   22.4911 C.3     1  UNL1        0.0444
      3 C          -4.8393  -18.3243   22.2039 C.ar    1  UNL1       -0.0101
      4 C          -3.6373  -17.8625   22.9734 C.ar    1  UNL1       -0.0091
      5 C          -2.2897  -18.4553   22.6861 C.ar    1  UNL1       -0.0032
      6 C          -2.1440  -19.5099   21.6294 C.ar    1  UNL1        0.0010
      7 C          -3.3459  -19.9716   20.8599 C.ar    1  UNL1        0.0142
      8 C          -4.6935  -19.3789   21.1471 C.ar    1  UNL1        0.0436
      9 C          -3.7830  -16.8080   24.0301 C.3     1  UNL1        0.0954
     10 N          -5.1306  -16.2152   24.3173 N.3     1  UNL1       -0.2934
     11 H          -5.0495  -15.2104   24.1617 H       1  UNL1        0.1236
     12 N          -5.8955  -19.8406   20.3776 N.pl3   1  UNL1       -0.3077
     13 C          -6.9959  -18.8738   20.0543 C.3     1  UNL1        0.0921
     14 C          -8.1978  -19.3356   19.2848 C.3     1  UNL1        0.0369
     15 C          -8.2993  -20.7642   18.8386 C.3     1  UNL1        0.0542
     16 N          -9.5013  -21.2259   18.0691 N.3     1  UNL1       -0.3221
     17 C          -7.1990  -21.7309   19.1620 C.3     1  UNL1        0.0369
     18 C          -5.9970  -21.2691   19.9315 C.3     1  UNL1        0.0921
     19 H         -10.1434  -20.4440   17.9402 H       1  UNL1        0.1188
     20 H          -9.9706  -21.9697   18.5858 H       1  UNL1        0.1188
     21 C          -7.6802  -16.0841   23.8351 C.3     1  UNL1        0.0886
     22 C          -9.0163  -16.6663   25.9859 C.3     1  UNL1        0.0899
     23 N          -8.7260  -16.9020   24.5332 N.3     1  UNL1       -0.2667
     24 C          -9.4815  -17.9555   23.7786 C.3     1  UNL1        0.0978
     25 C          -9.5458  -19.3571   24.3091 C.3     1  UNL1        0.0224
     26 C         -10.3013  -20.4106   23.5546 C.3     1  UNL1        0.0065
     27 C         -10.9924  -20.0626   22.2696 C.3     1  UNL1        0.0277
     28 C         -10.9281  -18.6610   21.7391 C.ar    1  UNL1       -0.0073
     29 C         -11.6192  -18.3129   20.4541 C.ar    1  UNL1       -0.0015
     30 C         -11.5548  -16.9114   19.9236 C.ar    1  UNL1        0.0203
     31 C         -10.7993  -15.8578   20.6782 C.ar    1  UNL1        0.0985
     32 N         -10.1082  -16.2059   21.9631 N.ar    1  UNL1       -0.2471
     33 C         -10.1726  -17.6074   22.4936 C.ar    1  UNL1        0.0695
@<TRIPOS>BOND
     1    22    23    1
     2    23    21    1
     3     1    21    1
     4     1     2    1
     5     2     3    1
     6     3     4   ar
     7     4     5   ar
     8     5     6   ar
     9     6     7   ar
    10     7     8   ar
    11     8    12    1
    12    12    13    1
    13    13    14    1
    14    14    15    1
    15    15    16    1
    16    15    17    1
    17    17    18    1
    18     4     9    1
    19     9    10    1
    20    24    23    1
    21    24    25    1
    22    25    26    1
    23    26    27    1
    24    27    28    1
    25    28    29   ar
    26    29    30   ar
    27    30    31   ar
    28    31    32   ar
    29    32    33   ar
    30    10     1    1
    31    33    24    1
    32     8     3   ar
    33    18    12    1
    34    33    28   ar
    35    16    19    1
    36    16    20    1
    37    10    11    1
@<TRIPOS>MOLECULE
*****
 33 37 0 0 0
SMALL
GASTEIGER

@<TRIPOS>ATOM
      1 C           4.2081   -1.7680   24.1920 C.3     1  UNL1        0.0749
      2 C           3.6401   -1.2939   22.8872 C.3     1  UNL1        0.0444
      3 C           3.9612   -2.0274   21.6189 C.ar    1  UNL1       -0.0101
      4 C           4.8502   -3.2350   21.6553 C.ar    1  UNL1       -0.0091
      5 C           5.1713   -3.9685   20.3868 C.ar    1  UNL1       -0.0032
      6 C           4.6033   -3.4944   19.0820 C.ar    1  UNL1        0.0010
      7 C           3.7142   -2.2868   19.0456 C.ar    1  UNL1        0.0142
      8 C           3.3931   -1.5533   20.3140 C.ar    1  UNL1        0.0436
      9 C           5.4183   -3.7091   22.9600 C.3     1  UNL1        0.0954
     10 N           5.0972   -2.9756   24.2284 N.3     1  UNL1       -0.2934
     11 H           5.9863   -2.6747   24.6277 H       1  UNL1        0.1236
     12 N           2.5040   -0.3458   20.2776 N.pl3   1  UNL1       -0.3077
     13 C           3.0993    1.0186   20.0924 C.3     1  UNL1        0.0921
     14 C           2.2103    2.2261   20.0560 C.3     1  UNL1        0.0369
     15 C           0.7259    2.0694   20.2048 C.3     1  UNL1        0.0542
     16 N          -0.1632    3.2769   20.1684 N.3     1  UNL1       -0.3221
     17 C           0.1306    0.7051   20.3899 C.3     1  UNL1        0.0369
     18 C           1.0197   -0.5025   20.4263 C.3     1  UNL1        0.0921
     19 H           0.4050    4.1136   20.0365 H       1  UNL1        0.1188
     20 H          -0.6753    3.3488   21.0476 H       1  UNL1        0.1188
     21 C           3.8871   -1.0345   25.4605 C.3     1  UNL1        0.0886
     22 C           4.7838    1.4039   25.4475 C.3     1  UNL1        0.0899
     23 N           3.6319    0.4432   25.4284 N.3     1  UNL1       -0.2667
     24 C           2.2248    0.9604   25.3771 C.3     1  UNL1        0.0978
     25 C           1.6817    1.5314   24.1009 C.3     1  UNL1        0.0224
     26 C           0.2746    2.0487   24.0496 C.3     1  UNL1        0.0065
     27 C          -0.5893    1.9948   25.2746 C.3     1  UNL1        0.0277
     28 C          -0.0462    1.4238   26.5510 C.ar    1  UNL1       -0.0073
     29 C          -0.9101    1.3700   27.7760 C.ar    1  UNL1       -0.0015
     30 C          -0.3670    0.7990   29.0522 C.ar    1  UNL1        0.0203
     31 C           1.0401    0.2818   29.1035 C.ar    1  UNL1        0.0985
     32 N           1.9040    0.3356   27.8785 N.ar    1  UNL1       -0.2471
     33 C           1.3609    0.9066   26.6022 C.ar    1  UNL1        0.0695
@<TRIPOS>BOND
     1    22    23    1
     2    23    21    1
     3     1    21    1
     4     1     2    1
     5     2     3    1
     6     3     4   ar
     7     4     5   ar
     8     5     6   ar
     9     6     7   ar
    10     7     8   ar
    11     8    12    1
    12    12    13    1
    13    13    14    1
    14    14    15    1
    15    15    16    1
    16    15    17    1
    17    17    18    1
    18     4     9    1
    19     9    10    1
    20    24    23    1
    21    24    25    1
    22    25    26    1
    23    26    27    1
    24    27    28    1
    25    28    29   ar
    26    29    30   ar
    27    30    31   ar
    28    31    32   ar
    29    32    33   ar
    30    10     1    1
    31    33    24    1
    32     8     3   ar
    33    18    12    1
    34    33    28   ar
    35    16    19    1
    36    16    20    1
    37    10    11    1
