@<TRIPOS>MOLECULE
*****
 38 42 0 0 0
SMALL
GASTEIGER

@<TRIPOS>ATOM
      1 C          -4.3277  -18.8411   21.4834 C.ar    1  UNL1       -0.0078
      2 C          -4.3877  -20.0705   20.6261 C.ar    1  UNL1       -0.0030
      3 C          -5.6878  -20.4901   20.0067 C.ar    1  UNL1       -0.0003
      4 C          -6.9278  -19.6804   20.2446 C.ar    1  UNL1        0.0001
      5 C          -8.2280  -20.1001   19.6251 C.ar    1  UNL1        0.0031
      6 C          -9.4680  -19.2904   19.8631 C.ar    1  UNL1        0.0368
      7 C          -9.4080  -18.0610   20.7204 C.ar    1  UNL1        0.1422
      8 C          -8.1079  -17.6413   21.3398 C.ar    1  UNL1        0.1053
      9 C          -6.8679  -18.4510   21.1019 C.ar    1  UNL1        0.0066
     10 C          -5.5678  -18.0314   21.7213 C.ar    1  UNL1       -0.0029
     11 C          -8.0479  -16.4120   22.1971 C.3     1  UNL1        0.4214
     12 F          -7.9880  -15.1825   23.0544 F       1  UNL1       -0.1657
     13 F          -7.9516  -17.2714   23.4227 F       1  UNL1       -0.1657
     14 F          -8.1443  -15.5526   20.9715 F       1  UNL1       -0.1657
     15 C          -2.8653  -18.4442   23.5938 C.3     1  UNL1        0.0222
     16 C          -3.0276  -18.4214   22.1028 C.3     1  UNL1        0.0801
     17 N          -1.8899  -17.9788   21.2312 N.3     1  UNL1       -0.2729
     18 C          -0.9501  -18.8780   20.4841 C.3     1  UNL1        0.0581
     19 C           0.0285  -18.0143   19.7448 C.3     1  UNL1        0.0174
     20 C          -0.3066  -16.5813   20.0350 C.3     1  UNL1        0.0174
     21 C          -1.4922  -16.5594   20.9537 C.3     1  UNL1        0.0581
     22 C          -2.6681  -16.8386   21.8584 C.3     1  UNL1        0.0215
     23 C          -2.9468  -18.3008   22.0428 C.3     1  UNL1        0.0392
     24 C          -2.0878  -19.3205   21.3557 C.3     1  UNL1        0.0215
     25 C          -4.0846  -18.7434   22.9145 C.2     1  UNL1        0.0501
     26 O          -4.8075  -20.0441   23.1038 O.co2   1  UNL1       -0.5492
     27 O          -4.7346  -17.7690   23.8514 O.co2   1  UNL1       -0.5492
     28 O         -10.6481  -17.2513   20.9583 O.3     1  UNL1       -0.4792
     29 C         -11.5611  -17.5950   22.0978 C.3     1  UNL1        0.1659
     30 C         -13.0208  -17.2594   22.0168 C.3     1  UNL1        0.0438
     31 C         -13.9338  -17.6031   23.1563 C.3     1  UNL1        0.0122
     32 C         -13.3870  -18.2824   24.3768 C.3     1  UNL1        0.0954
     33 C         -11.9272  -18.6180   24.4578 C.3     1  UNL1        0.0122
     34 C         -11.0143  -18.2743   23.3183 C.3     1  UNL1        0.0438
     35 C         -14.2999  -18.6261   25.5162 C.3     1  UNL1        0.3975
     36 F         -15.2128  -18.9698   26.6557 F       1  UNL1       -0.1701
     37 F         -13.1401  -18.5605   26.4652 F       1  UNL1       -0.1701
     38 F         -15.4597  -18.6917   24.5673 F       1  UNL1       -0.1701
@<TRIPOS>UNITY_ATOM_ATTR
26 1
charge -1
@<TRIPOS>BOND
     1    16    15    1
     2    16     1    1
     3     1     2   ar
     4     2     3   ar
     5     3     4   ar
     6     4     5   ar
     7     5     6   ar
     8     6     7   ar
     9     7    28    1
    10    29    28    1
    11    29    30    1
    12    30    31    1
    13    31    32    1
    14    32    35    1
    15    35    36    1
    16    35    37    1
    17    35    38    1
    18    32    33    1
    19    33    34    1
    20     7     8   ar
    21     8    11    1
    22    11    12    1
    23    11    13    1
    24    11    14    1
    25     8     9   ar
    26     9    10   ar
    27    16    17    1
    28    17    18    1
    29    18    19    1
    30    19    20    1
    31    20    21    1
    32    21    22    1
    33    22    23    1
    34    23    25    1
    35    25    26   ar
    36    25    27   ar
    37    23    24    1
    38    10     1   ar
    39    21    17    1
    40     9     4   ar
    41    24    18    1
    42    34    29    1
@<TRIPOS>MOLECULE
*****
 38 42 0 0 0
SMALL
GASTEIGER

@<TRIPOS>ATOM
      1 C           5.3051   -3.1640   20.3661 C.ar    1  UNL1       -0.0078
      2 C           6.5197   -3.9353   19.9421 C.ar    1  UNL1       -0.0030
      3 C           7.6967   -4.0476   20.8651 C.ar    1  UNL1       -0.0003
      4 C           7.6591   -3.3886   22.2121 C.ar    1  UNL1        0.0001
      5 C           8.8362   -3.5010   23.1351 C.ar    1  UNL1        0.0031
      6 C           8.7987   -2.8420   24.4821 C.ar    1  UNL1        0.0368
      7 C           7.5840   -2.0707   24.9061 C.ar    1  UNL1        0.1422
      8 C           6.4070   -1.9584   23.9831 C.ar    1  UNL1        0.1053
      9 C           6.4445   -2.6173   22.6361 C.ar    1  UNL1        0.0066
     10 C           5.2675   -2.5050   21.7131 C.ar    1  UNL1       -0.0029
     11 C           5.1924   -1.1871   24.4071 C.3     1  UNL1        0.4214
     12 F           3.9777   -0.4158   24.8311 F       1  UNL1       -0.1657
     13 F           5.7906    0.0664   23.8406 F       1  UNL1       -0.1657
     14 F           4.5942   -2.4405   24.9736 F       1  UNL1       -0.1657
     15 C           3.2392   -4.2379   19.2133 C.3     1  UNL1        0.0222
     16 C           4.1280   -3.0516   19.4431 C.3     1  UNL1        0.0801
     17 N           3.8397   -1.7530   18.7500 N.3     1  UNL1       -0.2729
     18 C           4.5403   -1.2294   17.5314 C.3     1  UNL1        0.0581
     19 C           3.9338    0.0973   17.1821 C.3     1  UNL1        0.0174
     20 C           2.8583    0.3937   18.1848 C.3     1  UNL1        0.0174
     21 C           2.8002   -0.7498   19.1538 C.3     1  UNL1        0.0581
     22 C           2.9658   -2.0147   19.9612 C.3     1  UNL1        0.0215
     23 C           4.0414   -2.9207   19.4394 C.3     1  UNL1        0.0392
     24 C           4.8286   -2.5281   18.2245 C.3     1  UNL1        0.0215
     25 C           4.3296   -4.2194   20.1325 C.2     1  UNL1        0.0501
     26 O           4.2922   -4.6676   21.5636 O.co2   1  UNL1       -0.5492
     27 O           4.7599   -5.4153   19.3360 O.co2   1  UNL1       -0.5492
     28 O           7.5464   -1.4117   26.2530 O.3     1  UNL1       -0.4792
     29 C           7.3678   -2.2421   27.4895 C.3     1  UNL1        0.1659
     30 C           6.6102   -3.5349   27.4217 C.3     1  UNL1        0.0438
     31 C           6.4316   -4.3653   28.6581 C.3     1  UNL1        0.0122
     32 C           7.0105   -3.9027   29.9623 C.3     1  UNL1        0.0954
     33 C           7.7681   -2.6098   30.0300 C.3     1  UNL1        0.0122
     34 C           7.9467   -1.7795   28.7936 C.3     1  UNL1        0.0438
     35 C           6.8319   -4.7329   31.1987 C.3     1  UNL1        0.3975
     36 F           6.6533   -5.5632   32.4351 F       1  UNL1       -0.1701
     37 F           6.8062   -5.9763   30.3601 F       1  UNL1       -0.1701
     38 F           6.8576   -3.4896   32.0373 F       1  UNL1       -0.1701
@<TRIPOS>UNITY_ATOM_ATTR
26 1
charge -1
@<TRIPOS>BOND
     1    16    15    1
     2    16     1    1
     3     1     2   ar
     4     2     3   ar
     5     3     4   ar
     6     4     5   ar
     7     5     6   ar
     8     6     7   ar
     9     7    28    1
    10    29    28    1
    11    29    30    1
    12    30    31    1
    13    31    32    1
    14    32    35    1
    15    35    36    1
    16    35    37    1
    17    35    38    1
    18    32    33    1
    19    33    34    1
    20     7     8   ar
    21     8    11    1
    22    11    12    1
    23    11    13    1
    24    11    14    1
    25     8     9   ar
    26     9    10   ar
    27    16    17    1
    28    17    18    1
    29    18    19    1
    30    19    20    1
    31    20    21    1
    32    21    22    1
    33    22    23    1
    34    23    25    1
    35    25    26   ar
    36    25    27   ar
    37    23    24    1
    38    10     1   ar
    39    21    17    1
    40     9     4   ar
    41    24    18    1
    42    34    29    1
@<TRIPOS>MOLECULE
*****
 38 42 0 0 0
SMALL
GASTEIGER

@<TRIPOS>ATOM
      1 C          -9.8418  -16.9225   23.0195 C.ar    1  UNL1       -0.0078
      2 C          -9.7768  -15.7551   23.9591 C.ar    1  UNL1       -0.0030
      3 C          -8.4564  -15.3154   24.5186 C.ar    1  UNL1       -0.0003
      4 C          -7.2010  -16.0430   24.1385 C.ar    1  UNL1        0.0001
      5 C          -5.8805  -15.6033   24.6981 C.ar    1  UNL1        0.0031
      6 C          -4.6251  -16.3309   24.3180 C.ar    1  UNL1        0.0368
      7 C          -4.6902  -17.4984   23.3784 C.ar    1  UNL1        0.1422
      8 C          -6.0106  -17.9381   22.8188 C.ar    1  UNL1        0.1053
      9 C          -7.2660  -17.2104   23.1989 C.ar    1  UNL1        0.0066
     10 C          -8.5864  -17.6501   22.6394 C.ar    1  UNL1       -0.0029
     11 C          -6.0756  -19.1055   21.8792 C.3     1  UNL1        0.4214
     12 F          -6.1406  -20.2729   20.9395 F       1  UNL1       -0.1657
     13 F          -5.7652  -20.0361   23.0139 F       1  UNL1       -0.1657
     14 F          -6.3860  -18.1749   20.7445 F       1  UNL1       -0.1657
     15 C         -11.3830  -17.3699   20.9763 C.3     1  UNL1        0.0222
     16 C         -11.1623  -17.3623   22.4599 C.3     1  UNL1        0.0801
     17 N         -12.2619  -17.7944   23.3840 N.3     1  UNL1       -0.2729
     18 C         -12.1396  -18.7994   24.4908 C.3     1  UNL1        0.0581
     19 C         -13.4791  -18.9235   25.1544 C.3     1  UNL1        0.0174
     20 C         -14.4293  -17.9951   24.4578 C.3     1  UNL1        0.0174
     21 C         -13.6770  -17.2973   23.3637 C.3     1  UNL1        0.0581
     22 C         -12.6857  -16.7594   22.3601 C.3     1  UNL1        0.0215
     23 C         -11.3130  -17.3473   22.5014 C.3     1  UNL1        0.0392
     24 C         -11.0399  -18.3673   23.5667 C.3     1  UNL1        0.0215
     25 C         -10.2133  -16.9152   21.5772 C.2     1  UNL1        0.0501
     26 O          -9.5477  -15.6015   21.2921 O.co2   1  UNL1       -0.5492
     27 O          -9.5450  -17.9193   20.6856 O.co2   1  UNL1       -0.5492
     28 O          -3.4348  -18.2260   22.9983 O.3     1  UNL1       -0.4792
     29 C          -2.8886  -18.1028   21.6066 C.3     1  UNL1        0.1659
     30 C          -1.9990  -16.9491   21.2495 C.3     1  UNL1        0.0438
     31 C          -1.4528  -16.8259   19.8579 C.3     1  UNL1        0.0122
     32 C          -1.7962  -17.8564   18.8234 C.3     1  UNL1        0.0954
     33 C          -2.6858  -19.0101   19.1806 C.3     1  UNL1        0.0122
     34 C          -3.2320  -19.1333   20.5722 C.3     1  UNL1        0.0438
     35 C          -1.2501  -17.7332   17.4319 C.3     1  UNL1        0.3975
     36 F          -0.7039  -17.6101   16.0403 F       1  UNL1       -0.1701
     37 F          -2.5584  -17.1644   16.9687 F       1  UNL1       -0.1701
     38 F           0.0583  -18.3021   17.8950 F       1  UNL1       -0.1701
@<TRIPOS>UNITY_ATOM_ATTR
26 1
charge -1
@<TRIPOS>BOND
     1    16    15    1
     2    16     1    1
     3     1     2   ar
     4     2     3   ar
     5     3     4   ar
     6     4     5   ar
     7     5     6   ar
     8     6     7   ar
     9     7    28    1
    10    29    28    1
    11    29    30    1
    12    30    31    1
    13    31    32    1
    14    32    35    1
    15    35    36    1
    16    35    37    1
    17    35    38    1
    18    32    33    1
    19    33    34    1
    20     7     8   ar
    21     8    11    1
    22    11    12    1
    23    11    13    1
    24    11    14    1
    25     8     9   ar
    26     9    10   ar
    27    16    17    1
    28    17    18    1
    29    18    19    1
    30    19    20    1
    31    20    21    1
    32    21    22    1
    33    22    23    1
    34    23    25    1
    35    25    26   ar
    36    25    27   ar
    37    23    24    1
    38    10     1   ar
    39    21    17    1
    40     9     4   ar
    41    24    18    1
    42    34    29    1
@<TRIPOS>MOLECULE
*****
 38 42 0 0 0
SMALL
GASTEIGER

@<TRIPOS>ATOM
      1 C           1.4670    1.0364   29.4627 C.ar    1  UNL1       -0.0078
      2 C           2.0033   -0.3611   29.3659 C.ar    1  UNL1       -0.0030
      3 C           2.8346   -0.9242   30.4803 C.ar    1  UNL1       -0.0003
      4 C           3.1297   -0.0898   31.6913 C.ar    1  UNL1        0.0001
      5 C           3.9611   -0.6529   32.8057 C.ar    1  UNL1        0.0031
      6 C           4.2561    0.1815   34.0168 C.ar    1  UNL1        0.0368
      7 C           3.7199    1.5790   34.1134 C.ar    1  UNL1        0.1422
      8 C           2.8885    2.1421   32.9991 C.ar    1  UNL1        0.1053
      9 C           2.5934    1.3077   31.7881 C.ar    1  UNL1        0.0066
     10 C           1.7621    1.8708   30.6737 C.ar    1  UNL1       -0.0029
     11 C           2.3523    3.5396   33.0958 C.3     1  UNL1        0.4214
     12 F           1.8161    4.9372   33.1926 F       1  UNL1       -0.1657
     13 F           1.1345    3.0234   33.8031 F       1  UNL1       -0.1657
     14 F           3.5701    4.0559   32.3885 F       1  UNL1       -0.1657
     15 C          -0.8409    1.3387   28.3085 C.3     1  UNL1        0.0222
     16 C           0.6357    1.5995   28.3483 C.3     1  UNL1        0.0801
     17 N           1.2809    2.4235   27.2737 N.3     1  UNL1       -0.2729
     18 C           1.9950    1.8938   26.0656 C.3     1  UNL1        0.0581
     19 C           2.4809    3.0648   25.2638 C.3     1  UNL1        0.0174
     20 C           2.0671    4.3182   25.9764 C.3     1  UNL1        0.0174
     21 C           1.3255    3.9218   27.2186 C.3     1  UNL1        0.0581
     22 C           0.6330    3.2407   28.3744 C.3     1  UNL1        0.0215
     23 C           0.6687    1.7433   28.2946 C.3     1  UNL1        0.0392
     24 C           1.3497    1.0699   27.1402 C.3     1  UNL1        0.0215
     25 C           0.0234    0.9194   29.3691 C.2     1  UNL1        0.0501
     26 O          -0.3892    1.1923   30.7853 O.co2   1  UNL1       -0.5492
     27 O          -0.3422   -0.5103   29.1002 O.co2   1  UNL1       -0.5492
     28 O           4.0149    2.4135   35.3245 O.3     1  UNL1       -0.4792
     29 C           3.2419    2.1961   36.5915 C.3     1  UNL1        0.1659
     30 C           2.2308    3.2108   37.0366 C.3     1  UNL1        0.0438
     31 C           1.4578    2.9935   38.3037 C.3     1  UNL1        0.0122
     32 C           1.6959    1.7615   39.1255 C.3     1  UNL1        0.0954
     33 C           2.7071    0.7468   38.6804 C.3     1  UNL1        0.0122
     34 C           3.4800    0.9641   37.4134 C.3     1  UNL1        0.0438
     35 C           0.9230    1.5441   40.3925 C.3     1  UNL1        0.3975
     36 F           0.1500    1.3268   41.6594 F       1  UNL1       -0.1701
     37 F           1.2010    0.0725   40.3097 F       1  UNL1       -0.1701
     38 F           0.6449    3.0158   40.4753 F       1  UNL1       -0.1701
@<TRIPOS>UNITY_ATOM_ATTR
26 1
charge -1
@<TRIPOS>BOND
     1    16    15    1
     2    16     1    1
     3     1     2   ar
     4     2     3   ar
     5     3     4   ar
     6     4     5   ar
     7     5     6   ar
     8     6     7   ar
     9     7    28    1
    10    29    28    1
    11    29    30    1
    12    30    31    1
    13    31    32    1
    14    32    35    1
    15    35    36    1
    16    35    37    1
    17    35    38    1
    18    32    33    1
    19    33    34    1
    20     7     8   ar
    21     8    11    1
    22    11    12    1
    23    11    13    1
    24    11    14    1
    25     8     9   ar
    26     9    10   ar
    27    16    17    1
    28    17    18    1
    29    18    19    1
    30    19    20    1
    31    20    21    1
    32    21    22    1
    33    22    23    1
    34    23    25    1
    35    25    26   ar
    36    25    27   ar
    37    23    24    1
    38    10     1   ar
    39    21    17    1
    40     9     4   ar
    41    24    18    1
    42    34    29    1
@<TRIPOS>MOLECULE
*****
 38 42 0 0 0
SMALL
GASTEIGER

@<TRIPOS>ATOM
      1 C           4.6246   -0.2297   19.6643 C.ar    1  UNL1       -0.0078
      2 C           6.0690    0.0564   19.9500 C.ar    1  UNL1       -0.0030
      3 C           6.4431    0.9818   21.0696 C.ar    1  UNL1       -0.0003
      4 C           5.3726    1.6212   21.9035 C.ar    1  UNL1        0.0001
      5 C           5.7467    2.5467   23.0232 C.ar    1  UNL1        0.0031
      6 C           4.6763    3.1861   23.8571 C.ar    1  UNL1        0.0368
      7 C           3.2318    2.9000   23.5713 C.ar    1  UNL1        0.1422
      8 C           2.8577    1.9746   22.4516 C.ar    1  UNL1        0.1053
      9 C           3.9282    1.3352   21.6178 C.ar    1  UNL1        0.0066
     10 C           3.5542    0.4097   20.4981 C.ar    1  UNL1       -0.0029
     11 C           1.4133    1.6885   22.1659 C.3     1  UNL1        0.4214
     12 F          -0.0312    1.4025   21.8801 F       1  UNL1       -0.1657
     13 F           1.4612    0.5148   23.0987 F       1  UNL1       -0.1657
     14 F           1.3654    2.8622   21.2331 F       1  UNL1       -0.1657
     15 C           3.9005   -0.5984   17.1965 C.3     1  UNL1        0.0222
     16 C           4.2505   -1.1552   18.5446 C.3     1  UNL1        0.0801
     17 N           4.2265   -2.6375   18.7731 N.3     1  UNL1       -0.2729
     18 C           3.1484   -3.4031   19.4812 C.3     1  UNL1        0.0581
     19 C           3.5319   -4.8532   19.4794 C.3     1  UNL1        0.0174
     20 C           4.8471   -4.9839   18.7701 C.3     1  UNL1        0.0174
     21 C           5.2764   -3.6145   18.3335 C.3     1  UNL1        0.0581
     22 C           5.4503   -2.1471   18.0242 C.3     1  UNL1        0.0215
     23 C           4.3234   -1.2928   18.5242 C.3     1  UNL1        0.0392
     24 C           3.1724   -1.9208   19.2527 C.3     1  UNL1        0.0215
     25 C           4.3474    0.1895   18.2957 C.2     1  UNL1        0.0501
     26 O           5.4412    1.1929   18.0788 O.co2   1  UNL1       -0.5492
     27 O           3.0627    0.9625   18.2515 O.co2   1  UNL1       -0.5492
     28 O           2.1613    3.5394   24.4051 O.3     1  UNL1       -0.4792
     29 C           1.4061    2.7224   25.4112 C.3     1  UNL1        0.1659
     30 C          -0.0877    2.8300   25.4955 C.3     1  UNL1        0.0438
     31 C          -0.8429    2.0130   26.5016 C.3     1  UNL1        0.0122
     32 C          -0.1044    1.0883   27.4233 C.3     1  UNL1        0.0954
     33 C           1.3894    0.9807   27.3390 C.3     1  UNL1        0.0122
     34 C           2.1446    1.7977   26.3329 C.3     1  UNL1        0.0438
     35 C          -0.8596    0.2713   28.4293 C.3     1  UNL1        0.3975
     36 F          -1.6148   -0.5457   29.4354 F       1  UNL1       -0.1701
     37 F          -2.0398    1.1861   28.2863 F       1  UNL1       -0.1701
     38 F           0.3205   -0.6434   28.5724 F       1  UNL1       -0.1701
@<TRIPOS>UNITY_ATOM_ATTR
26 1
charge -1
@<TRIPOS>BOND
     1    16    15    1
     2    16     1    1
     3     1     2   ar
     4     2     3   ar
     5     3     4   ar
     6     4     5   ar
     7     5     6   ar
     8     6     7   ar
     9     7    28    1
    10    29    28    1
    11    29    30    1
    12    30    31    1
    13    31    32    1
    14    32    35    1
    15    35    36    1
    16    35    37    1
    17    35    38    1
    18    32    33    1
    19    33    34    1
    20     7     8   ar
    21     8    11    1
    22    11    12    1
    23    11    13    1
    24    11    14    1
    25     8     9   ar
    26     9    10   ar
    27    16    17    1
    28    17    18    1
    29    18    19    1
    30    19    20    1
    31    20    21    1
    32    21    22    1
    33    22    23    1
    34    23    25    1
    35    25    26   ar
    36    25    27   ar
    37    23    24    1
    38    10     1   ar
    39    21    17    1
    40     9     4   ar
    41    24    18    1
    42    34    29    1
@<TRIPOS>MOLECULE
*****
 38 42 0 0 0
SMALL
GASTEIGER

@<TRIPOS>ATOM
      1 C           4.8566   -2.5752   20.8974 C.ar    1  UNL1       -0.0078
      2 C           4.7000   -3.0261   22.3194 C.ar    1  UNL1       -0.0030
      3 C           3.8959   -2.2042   23.2826 C.ar    1  UNL1       -0.0003
      4 C           3.2484   -0.9313   22.8238 C.ar    1  UNL1        0.0001
      5 C           2.4443   -0.1094   23.7871 C.ar    1  UNL1        0.0031
      6 C           1.7967    1.1635   23.3283 C.ar    1  UNL1        0.0368
      7 C           1.9533    1.6144   21.9062 C.ar    1  UNL1        0.1422
      8 C           2.7574    0.7925   20.9430 C.ar    1  UNL1        0.1053
      9 C           3.4049   -0.4804   21.4018 C.ar    1  UNL1        0.0066
     10 C           4.2090   -1.3023   20.4386 C.ar    1  UNL1       -0.0029
     11 C           2.9140    1.2434   19.5211 C.3     1  UNL1        0.4214
     12 F           3.0705    1.6944   18.0990 F       1  UNL1       -0.1657
     13 F           4.1443    2.0130   19.9006 F       1  UNL1       -0.1657
     14 F           1.6837    0.4739   19.1416 F       1  UNL1       -0.1657
     15 C           4.9990   -4.4867   19.1436 C.3     1  UNL1        0.0222
     16 C           5.6607   -3.3972   19.9341 C.3     1  UNL1        0.0801
     17 N           7.1265   -3.1295   19.7614 N.3     1  UNL1       -0.2729
     18 C           8.2260   -3.6391   20.6453 C.3     1  UNL1        0.0581
     19 C           9.5292   -3.1297   20.1047 C.3     1  UNL1        0.0174
     20 C           9.2351   -2.3053   18.8866 C.3     1  UNL1        0.0174
     21 C           7.7501   -2.3051   18.6745 C.3     1  UNL1        0.0581
     22 C           6.2508   -2.4788   18.7083 C.3     1  UNL1        0.0215
     23 C           5.7726   -3.3267   19.8495 C.3     1  UNL1        0.0392
     24 C           6.7602   -3.9068   20.8180 C.3     1  UNL1        0.0215
     25 C           4.3068   -3.5944   20.0222 C.2     1  UNL1        0.0501
     26 O           3.0596   -2.9222   19.5295 O.co2   1  UNL1       -0.5492
     27 O           3.8496   -4.7613   20.8462 O.co2   1  UNL1       -0.5492
     28 O           1.3058    2.8873   21.4475 O.3     1  UNL1       -0.4792
     29 C          -0.1794    3.0593   21.5688 C.3     1  UNL1        0.1659
     30 C          -0.7887    3.4030   22.8957 C.3     1  UNL1        0.0438
     31 C          -2.2739    3.5750   23.0170 C.3     1  UNL1        0.0122
     32 C          -3.1498    3.4033   21.8114 C.3     1  UNL1        0.0954
     33 C          -2.5404    3.0596   20.4845 C.3     1  UNL1        0.0122
     34 C          -1.0552    2.8877   20.3632 C.3     1  UNL1        0.0438
     35 C          -4.6349    3.5753   21.9327 C.3     1  UNL1        0.3975
     36 F          -6.1200    3.7473   22.0540 F       1  UNL1       -0.1701
     37 F          -4.6564    4.3110   20.6257 F       1  UNL1       -0.1701
     38 F          -4.6134    2.8396   23.2396 F       1  UNL1       -0.1701
@<TRIPOS>UNITY_ATOM_ATTR
26 1
charge -1
@<TRIPOS>BOND
     1    16    15    1
     2    16     1    1
     3     1     2   ar
     4     2     3   ar
     5     3     4   ar
     6     4     5   ar
     7     5     6   ar
     8     6     7   ar
     9     7    28    1
    10    29    28    1
    11    29    30    1
    12    30    31    1
    13    31    32    1
    14    32    35    1
    15    35    36    1
    16    35    37    1
    17    35    38    1
    18    32    33    1
    19    33    34    1
    20     7     8   ar
    21     8    11    1
    22    11    12    1
    23    11    13    1
    24    11    14    1
    25     8     9   ar
    26     9    10   ar
    27    16    17    1
    28    17    18    1
    29    18    19    1
    30    19    20    1
    31    20    21    1
    32    21    22    1
    33    22    23    1
    34    23    25    1
    35    25    26   ar
    36    25    27   ar
    37    23    24    1
    38    10     1   ar
    39    21    17    1
    40     9     4   ar
    41    24    18    1
    42    34    29    1
@<TRIPOS>MOLECULE
*****
 38 42 0 0 0
SMALL
GASTEIGER

@<TRIPOS>ATOM
      1 C           4.0483   -0.8296   19.5429 C.ar    1  UNL1       -0.0078
      2 C           2.9591   -0.8734   20.5732 C.ar    1  UNL1       -0.0030
      3 C           3.1814   -1.5951   21.8692 C.ar    1  UNL1       -0.0003
      4 C           4.4929   -2.2729   22.1350 C.ar    1  UNL1        0.0001
      5 C           4.7151   -2.9946   23.4311 C.ar    1  UNL1        0.0031
      6 C           6.0266   -3.6724   23.6968 C.ar    1  UNL1        0.0368
      7 C           7.1158   -3.6285   22.6664 C.ar    1  UNL1        0.1422
      8 C           6.8936   -2.9068   21.3703 C.ar    1  UNL1        0.1053
      9 C           5.5821   -2.2290   21.1046 C.ar    1  UNL1        0.0066
     10 C           5.3598   -1.5074   19.8086 C.ar    1  UNL1       -0.0029
     11 C           7.9828   -2.8630   20.3400 C.3     1  UNL1        0.4214
     12 F           9.0721   -2.8191   19.3096 F       1  UNL1       -0.1657
     13 F           7.4598   -4.1311   19.7332 F       1  UNL1       -0.1657
     14 F           8.5058   -1.5949   20.9469 F       1  UNL1       -0.1657
     15 C           3.8033   -0.8729   16.9567 C.3     1  UNL1        0.0222
     16 C           3.8261   -0.1079   18.2468 C.3     1  UNL1        0.0801
     17 N           3.6267    1.3788   18.2408 N.3     1  UNL1       -0.2729
     18 C           4.7123    2.4139   18.2360 C.3     1  UNL1        0.0581
     19 C           4.0633    3.7663   18.2308 C.3     1  UNL1        0.0174
     20 C           2.5766    3.5669   18.2323 C.3     1  UNL1        0.0174
     21 C           2.3068    2.0914   18.2385 C.3     1  UNL1        0.0581
     22 C           2.3367    0.5820   18.2447 C.3     1  UNL1        0.0215
     23 C           3.7239    0.0113   18.2463 C.3     1  UNL1        0.0392
     24 C           4.9117    0.9273   18.2420 C.3     1  UNL1        0.0215
     25 C           3.9232   -1.4754   18.2523 C.2     1  UNL1        0.0501
     26 O           3.1609   -2.6267   18.8384 O.co2   1  UNL1       -0.5492
     27 O           5.1075   -2.0761   17.5547 O.co2   1  UNL1       -0.5492
     28 O           8.4273   -4.3063   22.9321 O.3     1  UNL1       -0.4792
     29 C           8.5801   -5.2028   24.1250 C.3     1  UNL1        0.1659
     30 C           9.1486   -4.6606   25.4028 C.3     1  UNL1        0.0438
     31 C           9.3014   -5.5571   26.5957 C.3     1  UNL1        0.0122
     32 C           8.8856   -6.9959   26.5108 C.3     1  UNL1        0.0954
     33 C           8.3171   -7.5381   25.2329 C.3     1  UNL1        0.0122
     34 C           8.1643   -6.6415   24.0401 C.3     1  UNL1        0.0438
     35 C           9.0384   -7.8924   27.7036 C.3     1  UNL1        0.3975
     36 F           9.1911   -8.7889   28.8964 F       1  UNL1       -0.1701
     37 F           8.6841   -9.0789   26.8572 F       1  UNL1       -0.1701
     38 F           9.3927   -6.7058   28.5500 F       1  UNL1       -0.1701
@<TRIPOS>UNITY_ATOM_ATTR
26 1
charge -1
@<TRIPOS>BOND
     1    16    15    1
     2    16     1    1
     3     1     2   ar
     4     2     3   ar
     5     3     4   ar
     6     4     5   ar
     7     5     6   ar
     8     6     7   ar
     9     7    28    1
    10    29    28    1
    11    29    30    1
    12    30    31    1
    13    31    32    1
    14    32    35    1
    15    35    36    1
    16    35    37    1
    17    35    38    1
    18    32    33    1
    19    33    34    1
    20     7     8   ar
    21     8    11    1
    22    11    12    1
    23    11    13    1
    24    11    14    1
    25     8     9   ar
    26     9    10   ar
    27    16    17    1
    28    17    18    1
    29    18    19    1
    30    19    20    1
    31    20    21    1
    32    21    22    1
    33    22    23    1
    34    23    25    1
    35    25    26   ar
    36    25    27   ar
    37    23    24    1
    38    10     1   ar
    39    21    17    1
    40     9     4   ar
    41    24    18    1
    42    34    29    1
@<TRIPOS>MOLECULE
*****
 38 42 0 0 0
SMALL
GASTEIGER

@<TRIPOS>ATOM
      1 C           5.2032   -0.6083   18.9332 C.ar    1  UNL1       -0.0078
      2 C           6.3172    0.2527   18.4160 C.ar    1  UNL1       -0.0030
      3 C           6.0529    1.6845   18.0555 C.ar    1  UNL1       -0.0003
      4 C           4.6746    2.2553   18.2121 C.ar    1  UNL1        0.0001
      5 C           4.4103    3.6872   17.8515 C.ar    1  UNL1        0.0031
      6 C           3.0320    4.2579   18.0081 C.ar    1  UNL1        0.0368
      7 C           1.9180    3.3967   18.5253 C.ar    1  UNL1        0.1422
      8 C           2.1823    1.9649   18.8859 C.ar    1  UNL1        0.1053
      9 C           3.5606    1.3942   18.7292 C.ar    1  UNL1        0.0066
     10 C           3.8249   -0.0376   19.0898 C.ar    1  UNL1       -0.0029
     11 C           1.0683    1.1039   19.4030 C.3     1  UNL1        0.4214
     12 F          -0.0458    0.2428   19.9203 F       1  UNL1       -0.1657
     13 F           0.5925    0.8761   17.9989 F       1  UNL1       -0.1657
     14 F           1.5441    1.3317   20.8072 F       1  UNL1       -0.1657
     15 C           5.7423   -3.0466   18.2160 C.3     1  UNL1        0.0222
     16 C           5.4675   -2.0402   19.2937 C.3     1  UNL1        0.0801
     17 N           5.4569   -2.4656   20.7321 N.3     1  UNL1       -0.2729
     18 C           6.5508   -2.2268   21.7303 C.3     1  UNL1        0.0581
     19 C           6.1205   -2.8182   23.0399 C.3     1  UNL1        0.0174
     20 C           4.7606   -3.4225   22.8512 C.3     1  UNL1        0.0174
     21 C           4.3505   -3.2046   21.4249 C.3     1  UNL1        0.0581
     22 C           4.2061   -2.8481   19.9650 C.3     1  UNL1        0.0215
     23 C           5.3890   -2.1120   19.4093 C.3     1  UNL1        0.0392
     24 C           6.5614   -1.8014   20.2919 C.3     1  UNL1        0.0215
     25 C           5.3996   -1.6866   17.9709 C.2     1  UNL1        0.0501
     26 O           4.3363   -1.2607   17.0023 O.co2   1  UNL1       -0.5492
     27 O           6.6939   -1.6308   17.2148 O.co2   1  UNL1       -0.5492
     28 O           0.5397    3.9675   18.6819 O.3     1  UNL1       -0.4792
     29 C          -0.1437    3.9219   20.0165 C.3     1  UNL1        0.1659
     30 C           0.5692    4.4130   21.2414 C.3     1  UNL1        0.0438
     31 C          -0.1142    4.3674   22.5759 C.3     1  UNL1        0.0122
     32 C          -1.5106    3.8308   22.6855 C.3     1  UNL1        0.0954
     33 C          -2.2236    3.3397   21.4605 C.3     1  UNL1        0.0122
     34 C          -1.5402    3.3853   20.1260 C.3     1  UNL1        0.0438
     35 C          -2.1941    3.7852   24.0199 C.3     1  UNL1        0.3975
     36 F          -2.8775    3.7396   25.3543 F       1  UNL1       -0.1701
     37 F          -3.4661    3.3516   23.3536 F       1  UNL1       -0.1701
     38 F          -0.9221    4.2188   24.6862 F       1  UNL1       -0.1701
@<TRIPOS>UNITY_ATOM_ATTR
26 1
charge -1
@<TRIPOS>BOND
     1    16    15    1
     2    16     1    1
     3     1     2   ar
     4     2     3   ar
     5     3     4   ar
     6     4     5   ar
     7     5     6   ar
     8     6     7   ar
     9     7    28    1
    10    29    28    1
    11    29    30    1
    12    30    31    1
    13    31    32    1
    14    32    35    1
    15    35    36    1
    16    35    37    1
    17    35    38    1
    18    32    33    1
    19    33    34    1
    20     7     8   ar
    21     8    11    1
    22    11    12    1
    23    11    13    1
    24    11    14    1
    25     8     9   ar
    26     9    10   ar
    27    16    17    1
    28    17    18    1
    29    18    19    1
    30    19    20    1
    31    20    21    1
    32    21    22    1
    33    22    23    1
    34    23    25    1
    35    25    26   ar
    36    25    27   ar
    37    23    24    1
    38    10     1   ar
    39    21    17    1
    40     9     4   ar
    41    24    18    1
    42    34    29    1
@<TRIPOS>MOLECULE
*****
 38 42 0 0 0
SMALL
GASTEIGER

@<TRIPOS>ATOM
      1 C           5.4602   -0.3647   18.9889 C.ar    1  UNL1       -0.0078
      2 C           6.7186    0.4441   19.0995 C.ar    1  UNL1       -0.0030
      3 C           7.8265   -0.0122   20.0018 C.ar    1  UNL1       -0.0003
      4 C           7.6760   -1.2773   20.7936 C.ar    1  UNL1        0.0001
      5 C           8.7840   -1.7336   21.6960 C.ar    1  UNL1        0.0031
      6 C           8.6335   -2.9987   22.4878 C.ar    1  UNL1        0.0368
      7 C           7.3750   -3.8075   22.3772 C.ar    1  UNL1        0.1422
      8 C           6.2670   -3.3511   21.4749 C.ar    1  UNL1        0.1053
      9 C           6.4176   -2.0861   20.6831 C.ar    1  UNL1        0.0066
     10 C           5.3096   -1.6297   19.7807 C.ar    1  UNL1       -0.0029
     11 C           5.0086   -4.1599   21.3643 C.3     1  UNL1        0.4214
     12 F           3.7501   -4.9687   21.2538 F       1  UNL1       -0.1657
     13 F           5.4787   -4.7118   20.0512 F       1  UNL1       -0.1657
     14 F           4.5386   -3.6080   22.6774 F       1  UNL1       -0.1657
     15 C           4.2537   -0.4450   16.6894 C.3     1  UNL1        0.0222
     16 C           4.3522    0.0917   18.0866 C.3     1  UNL1        0.0801
     17 N           3.3427    1.0847   18.5815 N.3     1  UNL1       -0.2729
     18 C           3.4792    2.5778   18.5364 C.3     1  UNL1        0.0581
     19 C           2.2404    3.1748   19.1354 C.3     1  UNL1        0.0174
     20 C           1.3382    2.0508   19.5507 C.3     1  UNL1        0.0174
     21 C           2.0195    0.7590   19.2084 C.3     1  UNL1        0.0581
     22 C           2.9261   -0.3622   18.7608 C.3     1  UNL1        0.0215
     23 C           4.2121    0.1148   18.1537 C.3     1  UNL1        0.0392
     24 C           4.4887    1.5848   18.0415 C.3     1  UNL1        0.0215
     25 C           5.2215   -0.8782   17.6588 C.2     1  UNL1        0.0501
     26 O           6.6059   -0.7630   17.0927 O.co2   1  UNL1       -0.5492
     27 O           4.9039   -2.3441   17.6789 O.co2   1  UNL1       -0.5492
     28 O           7.2244   -5.0725   23.1690 O.3     1  UNL1       -0.4792
     29 C           7.0857   -5.0113   24.6613 C.3     1  UNL1        0.1659
     30 C           7.4288   -6.2092   25.4963 C.3     1  UNL1        0.0438
     31 C           7.2901   -6.1479   26.9886 C.3     1  UNL1        0.0122
     32 C           6.8083   -4.8887   27.6460 C.3     1  UNL1        0.0954
     33 C           6.4652   -3.6907   26.8110 C.3     1  UNL1        0.0122
     34 C           6.6039   -3.7520   25.3187 C.3     1  UNL1        0.0438
     35 C           6.6695   -4.8274   29.1383 C.3     1  UNL1        0.3975
     36 F           6.5308   -4.7660   30.6305 F       1  UNL1       -0.1701
     37 F           6.1262   -3.4334   29.0305 F       1  UNL1       -0.1701
     38 F           7.2129   -6.2213   29.2461 F       1  UNL1       -0.1701
@<TRIPOS>UNITY_ATOM_ATTR
26 1
charge -1
@<TRIPOS>BOND
     1    16    15    1
     2    16     1    1
     3     1     2   ar
     4     2     3   ar
     5     3     4   ar
     6     4     5   ar
     7     5     6   ar
     8     6     7   ar
     9     7    28    1
    10    29    28    1
    11    29    30    1
    12    30    31    1
    13    31    32    1
    14    32    35    1
    15    35    36    1
    16    35    37    1
    17    35    38    1
    18    32    33    1
    19    33    34    1
    20     7     8   ar
    21     8    11    1
    22    11    12    1
    23    11    13    1
    24    11    14    1
    25     8     9   ar
    26     9    10   ar
    27    16    17    1
    28    17    18    1
    29    18    19    1
    30    19    20    1
    31    20    21    1
    32    21    22    1
    33    22    23    1
    34    23    25    1
    35    25    26   ar
    36    25    27   ar
    37    23    24    1
    38    10     1   ar
    39    21    17    1
    40     9     4   ar
    41    24    18    1
    42    34    29    1
