@<TRIPOS>MOLECULE
*****
 36 39 0 0 0
SMALL
GASTEIGER

@<TRIPOS>ATOM
      1 C         -10.7983  -18.3457   25.0453 C.3     1  UNL1        0.1153
      2 N          -9.6564  -18.2504   24.0773 N.am    1  UNL1       -0.2714
      3 C          -9.2256  -19.4614   23.3041 C.2     1  UNL1        0.2661
      4 O          -9.9366  -20.7677   23.4990 O.2     1  UNL1       -0.2710
      5 C          -8.0837  -19.3661   22.3361 C.3     1  UNL1        0.2415
      6 C          -8.3512  -19.3470   20.8603 C.3     1  UNL1        0.0579
      7 C          -7.2093  -19.2517   19.8923 C.3     1  UNL1        0.0337
      8 C          -5.7999  -19.1755   20.4002 C.ar    1  UNL1        0.0117
      9 C          -4.6580  -19.0802   19.4321 C.ar    1  UNL1       -0.0041
     10 C          -3.2486  -19.0041   19.9400 C.ar    1  UNL1       -0.0049
     11 C          -2.9812  -19.0232   21.4159 C.ar    1  UNL1        0.0002
     12 C          -4.1231  -19.1185   22.3838 C.ar    1  UNL1        0.0363
     13 C          -5.5324  -19.1947   21.8760 C.ar    1  UNL1        0.1350
     14 O          -6.6743  -19.2900   22.8439 O.3     1  UNL1       -0.4703
     15 C          -2.1068  -18.9088   18.9720 C.3     1  UNL1        0.1173
     16 N          -1.2239  -17.6961   18.9707 N.3     1  UNL1       -0.1788
     17 H          -1.8197  -16.8978   19.1900 H       1  UNL1        0.1488
     18 S          -0.0462  -17.6247   19.8969 S.O2    1  UNL1        0.0429
     19 C           1.1315  -17.5534   20.8231 C.3     1  UNL1        0.1957
     20 O           0.3477  -19.0176   19.5034 O.2     1  UNL1       -0.1574
     21 O          -0.4401  -16.2319   20.2904 O.2     1  UNL1       -0.1574
     22 C          -8.9454  -16.9441   23.8824 C.3     1  UNL1        0.1139
     23 C          -8.1241  -16.3639   24.9955 C.ar    1  UNL1       -0.0029
     24 C          -6.7732  -15.7801   24.7052 C.ar    1  UNL1       -0.0026
     25 C          -5.9519  -15.1999   25.8182 C.ar    1  UNL1       -0.0003
     26 C          -6.4815  -15.2035   27.2215 C.ar    1  UNL1       -0.0000
     27 C          -7.8324  -15.7873   27.5119 C.ar    1  UNL1       -0.0003
     28 C          -8.6537  -16.3675   26.3989 C.ar    1  UNL1       -0.0026
     29 C          -9.0557  -16.2179   22.5746 C.3     1  UNL1        0.0968
     30 N         -10.3488  -16.2338   21.8146 N.3     1  UNL1       -0.2689
     31 C         -11.6455  -16.8170   22.2928 C.3     1  UNL1        0.0748
     32 C         -12.6704  -16.6130   21.2167 C.3     1  UNL1        0.0480
     33 C         -12.0072  -15.9036   20.0735 C.3     1  UNL1        0.1278
     34 O         -12.6635  -15.4996   18.7866 O.3     1  UNL1       -0.3830
     35 C         -10.5724  -15.6693   20.4430 C.3     1  UNL1        0.1017
     36 H         -12.0145  -15.0569   18.2177 H       1  UNL1        0.2104
@<TRIPOS>BOND
     1     1     2    1
     2     2     3   am
     3     3     4    2
     4     5     3    1
     5     5     6    1
     6     6     7    1
     7     7     8    1
     8     8     9   ar
     9     9    10   ar
    10    10    15    1
    11    15    16    1
    12    16    18    1
    13    18    19    1
    14    18    20    2
    15    18    21    2
    16    10    11   ar
    17    11    12   ar
    18    12    13   ar
    19    13    14    1
    20     2    22    1
    21    22    29    1
    22    29    30    1
    23    30    31    1
    24    31    32    1
    25    32    33    1
    26    33    34    1
    27    33    35    1
    28    22    23    1
    29    23    24   ar
    30    24    25   ar
    31    25    26   ar
    32    26    27   ar
    33    27    28   ar
    34    14     5    1
    35    35    30    1
    36    28    23   ar
    37    13     8   ar
    38    16    17    1
    39    34    36    1
@<TRIPOS>MOLECULE
*****
 36 39 0 0 0
SMALL
GASTEIGER

@<TRIPOS>ATOM
      1 C           7.2825   -4.1025   20.9915 C.3     1  UNL1        0.1153
      2 N           6.3196   -2.9762   21.2250 N.am    1  UNL1       -0.2714
      3 C           4.8656   -3.2672   21.4507 C.2     1  UNL1        0.2661
      4 O           4.3742   -4.6844   21.4429 O.2     1  UNL1       -0.2710
      5 C           3.9027   -2.1408   21.6842 C.3     1  UNL1        0.2415
      6 C           3.7913   -1.5193   23.0448 C.3     1  UNL1        0.0579
      7 C           2.8286   -0.3930   23.2782 C.3     1  UNL1        0.0337
      8 C           1.9772    0.1117   22.1511 C.ar    1  UNL1        0.0117
      9 C           1.0144    1.2380   22.3846 C.ar    1  UNL1       -0.0041
     10 C           0.1630    1.7427   21.2575 C.ar    1  UNL1       -0.0049
     11 C           0.2744    1.1211   19.8969 C.ar    1  UNL1        0.0002
     12 C           1.2372   -0.0051   19.6634 C.ar    1  UNL1        0.0363
     13 C           2.0886   -0.5099   20.7905 C.ar    1  UNL1        0.1350
     14 O           3.0514   -1.6361   20.5571 O.3     1  UNL1       -0.4703
     15 C          -0.7998    2.8690   21.4910 C.3     1  UNL1        0.1173
     16 N          -2.2321    2.7313   21.0672 N.3     1  UNL1       -0.1788
     17 H          -2.5384    1.8039   21.3613 H       1  UNL1        0.1488
     18 S          -3.2587    3.7046   21.5658 S.O2    1  UNL1        0.0429
     19 C          -4.2852    4.6780   22.0645 C.3     1  UNL1        0.1957
     20 O          -2.1657    4.6421   21.9860 O.2     1  UNL1       -0.1574
     21 O          -4.3517    2.7672   21.1457 O.2     1  UNL1       -0.1574
     22 C           6.8110   -1.5590   21.2328 C.3     1  UNL1        0.1139
     23 C           7.0094   -0.8411   22.5349 C.ar    1  UNL1       -0.0029
     24 C           7.4882   -1.5938   23.7408 C.ar    1  UNL1       -0.0026
     25 C           7.6866   -0.8760   25.0429 C.ar    1  UNL1       -0.0003
     26 C           7.4061    0.5944   25.1390 C.ar    1  UNL1       -0.0000
     27 C           6.9273    1.3470   23.9331 C.ar    1  UNL1       -0.0003
     28 C           6.7289    0.6292   22.6310 C.ar    1  UNL1       -0.0026
     29 C           7.1039   -0.8596   19.9386 C.3     1  UNL1        0.0968
     30 N           5.9918   -0.5679   18.9752 N.3     1  UNL1       -0.2689
     31 C           5.1955    0.7014   18.9059 C.3     1  UNL1        0.0748
     32 C           4.1923    0.5595   17.7999 C.3     1  UNL1        0.0480
     33 C           4.3685   -0.7976   17.1855 C.3     1  UNL1        0.1278
     34 O           3.5724   -1.3593   16.0451 O.3     1  UNL1       -0.3830
     35 C           5.4807   -1.4943   17.9119 C.3     1  UNL1        0.1017
     36 H           3.8863   -2.2542   15.8415 H       1  UNL1        0.2104
@<TRIPOS>BOND
     1     1     2    1
     2     2     3   am
     3     3     4    2
     4     5     3    1
     5     5     6    1
     6     6     7    1
     7     7     8    1
     8     8     9   ar
     9     9    10   ar
    10    10    15    1
    11    15    16    1
    12    16    18    1
    13    18    19    1
    14    18    20    2
    15    18    21    2
    16    10    11   ar
    17    11    12   ar
    18    12    13   ar
    19    13    14    1
    20     2    22    1
    21    22    29    1
    22    29    30    1
    23    30    31    1
    24    31    32    1
    25    32    33    1
    26    33    34    1
    27    33    35    1
    28    22    23    1
    29    23    24   ar
    30    24    25   ar
    31    25    26   ar
    32    26    27   ar
    33    27    28   ar
    34    14     5    1
    35    35    30    1
    36    28    23   ar
    37    13     8   ar
    38    16    17    1
    39    34    36    1
@<TRIPOS>MOLECULE
*****
 36 39 0 0 0
SMALL
GASTEIGER

@<TRIPOS>ATOM
      1 C           6.4903   -0.3522   17.7515 C.3     1  UNL1        0.1153
      2 N           5.9141   -0.3996   19.1357 N.am    1  UNL1       -0.2714
      3 C           6.0934    0.7657   20.0630 C.2     1  UNL1        0.2661
      4 O           6.8488    1.9784   19.6062 O.2     1  UNL1       -0.2710
      5 C           5.5172    0.7183   21.4472 C.3     1  UNL1        0.2415
      6 C           6.4120    0.4631   22.6237 C.3     1  UNL1        0.0579
      7 C           5.8358    0.4157   24.0078 C.3     1  UNL1        0.0337
      8 C           4.3648    0.6236   24.2153 C.ar    1  UNL1        0.0117
      9 C           3.7887    0.5762   25.5995 C.ar    1  UNL1       -0.0041
     10 C           2.3177    0.7840   25.8071 C.ar    1  UNL1       -0.0049
     11 C           1.4229    1.0392   24.6305 C.ar    1  UNL1        0.0002
     12 C           1.9991    1.0866   23.2464 C.ar    1  UNL1        0.0363
     13 C           3.4701    0.8788   23.0388 C.ar    1  UNL1        0.1350
     14 O           4.0463    0.9262   21.6548 O.3     1  UNL1       -0.4703
     15 C           1.7415    0.7366   27.1912 C.3     1  UNL1        0.1173
     16 N           1.7842   -0.5397   27.9781 N.3     1  UNL1       -0.1788
     17 H           2.3779   -1.1863   27.4585 H       1  UNL1        0.1488
     18 S           2.2851   -0.5328   29.3919 S.O2    1  UNL1        0.0429
     19 C           2.7861   -0.5258   30.8057 C.3     1  UNL1        0.1957
     20 O           3.6532   -0.9139   28.9090 O.2     1  UNL1       -0.1574
     21 O           0.9171   -0.1516   29.8747 O.2     1  UNL1       -0.1574
     22 C           5.1587   -1.6123   19.5925 C.3     1  UNL1        0.1139
     23 C           5.7463   -2.5117   20.6394 C.ar    1  UNL1       -0.0029
     24 C           4.9375   -2.8869   21.8456 C.ar    1  UNL1       -0.0026
     25 C           5.5250   -3.7862   22.8925 C.ar    1  UNL1       -0.0003
     26 C           6.9213   -4.3103   22.7331 C.ar    1  UNL1       -0.0000
     27 C           7.7302   -3.9351   21.5269 C.ar    1  UNL1       -0.0003
     28 C           7.1426   -3.0358   20.4800 C.ar    1  UNL1       -0.0026
     29 C           3.8157   -1.9256   19.0024 C.3     1  UNL1        0.0968
     30 N           2.7108   -0.9136   19.0731 N.3     1  UNL1       -0.2689
     31 C           2.5464    0.2764   18.1748 C.3     1  UNL1        0.0748
     32 C           1.3104    1.0116   18.6009 C.3     1  UNL1        0.0480
     33 C           0.7108    0.2761   19.7626 C.3     1  UNL1        0.1278
     34 O          -0.5354    0.6625   20.5025 O.3     1  UNL1       -0.3830
     35 C           1.5764   -0.9137   20.0544 C.3     1  UNL1        0.1017
     36 H          -0.7038    0.0203   21.2097 H       1  UNL1        0.2104
@<TRIPOS>BOND
     1     1     2    1
     2     2     3   am
     3     3     4    2
     4     5     3    1
     5     5     6    1
     6     6     7    1
     7     7     8    1
     8     8     9   ar
     9     9    10   ar
    10    10    15    1
    11    15    16    1
    12    16    18    1
    13    18    19    1
    14    18    20    2
    15    18    21    2
    16    10    11   ar
    17    11    12   ar
    18    12    13   ar
    19    13    14    1
    20     2    22    1
    21    22    29    1
    22    29    30    1
    23    30    31    1
    24    31    32    1
    25    32    33    1
    26    33    34    1
    27    33    35    1
    28    22    23    1
    29    23    24   ar
    30    24    25   ar
    31    25    26   ar
    32    26    27   ar
    33    27    28   ar
    34    14     5    1
    35    35    30    1
    36    28    23   ar
    37    13     8   ar
    38    16    17    1
    39    34    36    1
@<TRIPOS>MOLECULE
*****
 36 39 0 0 0
SMALL
GASTEIGER

@<TRIPOS>ATOM
      1 C           0.8721    1.7677   18.3842 C.3     1  UNL1        0.1153
      2 N           1.8041    1.1600   19.3903 N.am    1  UNL1       -0.2714
      3 C           1.2570    0.3340   20.5164 C.2     1  UNL1        0.2661
      4 O          -0.2221    0.1156   20.6367 O.2     1  UNL1       -0.2710
      5 C           2.1891   -0.2737   21.5225 C.3     1  UNL1        0.2415
      6 C           2.3173    0.3328   22.8883 C.3     1  UNL1        0.0579
      7 C           3.2493   -0.2749   23.8943 C.3     1  UNL1        0.0337
      8 C           4.0531   -1.4892   23.5344 C.ar    1  UNL1        0.0117
      9 C           4.9852   -2.0969   24.5404 C.ar    1  UNL1       -0.0041
     10 C           5.7890   -3.3111   24.1805 C.ar    1  UNL1       -0.0049
     11 C           5.6607   -3.9177   22.8146 C.ar    1  UNL1        0.0002
     12 C           4.7287   -3.3100   21.8086 C.ar    1  UNL1        0.0363
     13 C           3.9249   -2.0957   22.1685 C.ar    1  UNL1        0.1350
     14 O           2.9929   -1.4880   21.1626 O.3     1  UNL1       -0.4703
     15 C           6.7210   -3.9188   25.1865 C.3     1  UNL1        0.1173
     16 N           6.1731   -4.5412   26.4365 N.3     1  UNL1       -0.1788
     17 H           5.2514   -4.9100   26.2022 H       1  UNL1        0.1488
     18 S           6.9235   -5.6495   27.1136 S.O2    1  UNL1        0.0429
     19 C           7.6740   -6.7577   27.7908 C.3     1  UNL1        0.1957
     20 O           6.1370   -5.4150   28.3691 O.2     1  UNL1       -0.1574
     21 O           7.7101   -5.8840   25.8582 O.2     1  UNL1       -0.1574
     22 C           3.2833    1.3784   19.2701 C.3     1  UNL1        0.1139
     23 C           4.0140    2.1597   20.3216 C.ar    1  UNL1       -0.0029
     24 C           3.5178    3.5155   20.7288 C.ar    1  UNL1       -0.0026
     25 C           4.2484    4.2968   21.7803 C.ar    1  UNL1       -0.0003
     26 C           5.4752    3.7225   22.4245 C.ar    1  UNL1       -0.0000
     27 C           5.9713    2.3667   22.0173 C.ar    1  UNL1       -0.0003
     28 C           5.2407    1.5854   20.9659 C.ar    1  UNL1       -0.0026
     29 C           4.0317    0.8154   18.0984 C.3     1  UNL1        0.0968
     30 N           4.6568   -0.5450   18.1912 N.3     1  UNL1       -0.2689
     31 C           6.1170   -0.8336   18.3772 C.3     1  UNL1        0.0748
     32 C           6.2941   -2.3226   18.4152 C.3     1  UNL1        0.0480
     33 C           4.9434   -2.9543   18.2526 C.3     1  UNL1        0.1278
     34 O           4.6551   -4.4262   18.2320 O.3     1  UNL1       -0.3830
     35 C           3.9315   -1.8557   18.1141 C.3     1  UNL1        0.1017
     36 H           3.7027   -4.5675   18.1142 H       1  UNL1        0.2104
@<TRIPOS>BOND
     1     1     2    1
     2     2     3   am
     3     3     4    2
     4     5     3    1
     5     5     6    1
     6     6     7    1
     7     7     8    1
     8     8     9   ar
     9     9    10   ar
    10    10    15    1
    11    15    16    1
    12    16    18    1
    13    18    19    1
    14    18    20    2
    15    18    21    2
    16    10    11   ar
    17    11    12   ar
    18    12    13   ar
    19    13    14    1
    20     2    22    1
    21    22    29    1
    22    29    30    1
    23    30    31    1
    24    31    32    1
    25    32    33    1
    26    33    34    1
    27    33    35    1
    28    22    23    1
    29    23    24   ar
    30    24    25   ar
    31    25    26   ar
    32    26    27   ar
    33    27    28   ar
    34    14     5    1
    35    35    30    1
    36    28    23   ar
    37    13     8   ar
    38    16    17    1
    39    34    36    1
@<TRIPOS>MOLECULE
*****
 36 39 0 0 0
SMALL
GASTEIGER

@<TRIPOS>ATOM
      1 C           6.3136    0.6910   17.0787 C.3     1  UNL1        0.1153
      2 N           5.7878    0.3640   18.4450 N.am    1  UNL1       -0.2714
      3 C           6.2581    1.1447   19.6363 C.2     1  UNL1        0.2661
      4 O           7.2542    2.2525   19.4613 O.2     1  UNL1       -0.2710
      5 C           5.7323    0.8177   21.0026 C.3     1  UNL1        0.2415
      6 C           4.6501    1.6595   21.6110 C.3     1  UNL1        0.0579
      7 C           4.1244    1.3325   22.9772 C.3     1  UNL1        0.0337
      8 C           4.6809    0.1637   23.7350 C.ar    1  UNL1        0.0117
      9 C           4.1551   -0.1634   25.1013 C.ar    1  UNL1       -0.0041
     10 C           4.7115   -1.3322   25.8591 C.ar    1  UNL1       -0.0049
     11 C           5.7938   -2.1740   25.2506 C.ar    1  UNL1        0.0002
     12 C           6.3195   -1.8469   23.8843 C.ar    1  UNL1        0.0363
     13 C           5.7630   -0.6781   23.1266 C.ar    1  UNL1        0.1350
     14 O           6.2888   -0.3511   21.7603 O.3     1  UNL1       -0.4703
     15 C           4.1858   -1.6592   27.2253 C.3     1  UNL1        0.1173
     16 N           2.7861   -1.2735   27.6025 N.3     1  UNL1       -0.1788
     17 H           2.2440   -2.1364   27.6442 H       1  UNL1        0.1488
     18 S           2.5304   -0.5390   28.8851 S.O2    1  UNL1        0.0429
     19 C           2.2747    0.1954   30.1678 C.3     1  UNL1        0.1957
     20 O           3.8985   -0.9140   29.3726 O.2     1  UNL1       -0.1574
     21 O           1.1623   -0.1641   28.3977 O.2     1  UNL1       -0.1574
     22 C           4.7917   -0.7438   18.6199 C.3     1  UNL1        0.1139
     23 C           3.3734   -0.4256   18.9903 C.ar    1  UNL1       -0.0029
     24 C           2.6216    0.6331   18.2392 C.ar    1  UNL1       -0.0026
     25 C           1.2033    0.9514   18.6095 C.ar    1  UNL1       -0.0003
     26 C           0.5368    0.2110   19.7309 C.ar    1  UNL1       -0.0000
     27 C           1.2886   -0.8477   20.4820 C.ar    1  UNL1       -0.0003
     28 C           2.7069   -1.1659   20.1117 C.ar    1  UNL1       -0.0026
     29 C           5.2139   -2.1698   18.4245 C.3     1  UNL1        0.0968
     30 N           6.2383   -2.7801   19.3345 N.3     1  UNL1       -0.2689
     31 C           7.7160   -2.5249   19.2956 C.3     1  UNL1        0.0748
     32 C           8.3559   -3.3399   20.3802 C.3     1  UNL1        0.0480
     33 C           7.2738   -4.0988   21.0894 C.3     1  UNL1        0.1278
     34 O           7.4665   -5.0386   22.2425 O.3     1  UNL1       -0.3830
     35 C           5.9651   -3.7528   20.4431 C.3     1  UNL1        0.1017
     36 H           6.6071   -5.3968   22.5148 H       1  UNL1        0.2104
@<TRIPOS>BOND
     1     1     2    1
     2     2     3   am
     3     3     4    2
     4     5     3    1
     5     5     6    1
     6     6     7    1
     7     7     8    1
     8     8     9   ar
     9     9    10   ar
    10    10    15    1
    11    15    16    1
    12    16    18    1
    13    18    19    1
    14    18    20    2
    15    18    21    2
    16    10    11   ar
    17    11    12   ar
    18    12    13   ar
    19    13    14    1
    20     2    22    1
    21    22    29    1
    22    29    30    1
    23    30    31    1
    24    31    32    1
    25    32    33    1
    26    33    34    1
    27    33    35    1
    28    22    23    1
    29    23    24   ar
    30    24    25   ar
    31    25    26   ar
    32    26    27   ar
    33    27    28   ar
    34    14     5    1
    35    35    30    1
    36    28    23   ar
    37    13     8   ar
    38    16    17    1
    39    34    36    1
@<TRIPOS>MOLECULE
*****
 36 39 0 0 0
SMALL
GASTEIGER

@<TRIPOS>ATOM
      1 C           6.0009   -1.8766   28.8433 C.3     1  UNL1        0.1153
      2 N           5.7637   -1.8848   27.3621 N.am    1  UNL1       -0.2714
      3 C           4.3898   -1.6208   26.8212 C.2     1  UNL1        0.2661
      4 O           3.2530   -1.3487   27.7613 O.2     1  UNL1       -0.2710
      5 C           4.1525   -1.6289   25.3400 C.3     1  UNL1        0.2415
      6 C           3.3673   -0.5227   24.7001 C.3     1  UNL1        0.0579
      7 C           3.1301   -0.5309   23.2190 C.3     1  UNL1        0.0337
      8 C           3.6782   -1.6453   22.3778 C.ar    1  UNL1        0.0117
      9 C           3.4410   -1.6535   20.8967 C.ar    1  UNL1       -0.0041
     10 C           3.9891   -2.7679   20.0555 C.ar    1  UNL1       -0.0049
     11 C           4.7743   -3.8743   20.6955 C.ar    1  UNL1        0.0002
     12 C           5.0115   -3.8661   22.1766 C.ar    1  UNL1        0.0363
     13 C           4.4634   -2.7516   23.0177 C.ar    1  UNL1        0.1350
     14 O           4.7006   -2.7434   24.4988 O.3     1  UNL1       -0.4703
     15 C           3.7519   -2.7761   18.5744 C.3     1  UNL1        0.1173
     16 N           4.8420   -2.3465   17.6379 N.3     1  UNL1       -0.1788
     17 H           4.6313   -2.7620   16.7304 H       1  UNL1        0.1488
     18 S           5.0931   -0.8873   17.3982 S.O2    1  UNL1        0.0429
     19 C           5.3441    0.5720   17.1586 C.3     1  UNL1        0.1957
     20 O           4.0134   -0.8725   16.3571 O.2     1  UNL1       -0.1574
     21 O           6.1728   -0.9020   18.4394 O.2     1  UNL1       -0.1574
     22 C           6.9004   -2.1569   26.4220 C.3     1  UNL1        0.1139
     23 C           7.2046   -3.5640   26.0005 C.ar    1  UNL1       -0.0029
     24 C           6.7275   -4.7163   26.8339 C.ar    1  UNL1       -0.0026
     25 C           7.0317   -6.1233   26.4125 C.ar    1  UNL1       -0.0003
     26 C           7.8130   -6.3780   25.1576 C.ar    1  UNL1       -0.0000
     27 C           8.2901   -5.2257   24.3243 C.ar    1  UNL1       -0.0003
     28 C           7.9859   -3.8187   24.7457 C.ar    1  UNL1       -0.0026
     29 C           7.7329   -1.0220   25.9034 C.3     1  UNL1        0.0968
     30 N           7.2385   -0.1926   24.7555 N.3     1  UNL1       -0.2689
     31 C           6.6205    1.1706   24.8545 C.3     1  UNL1        0.0748
     32 C           6.2753    1.6250   23.4673 C.3     1  UNL1        0.0480
     33 C           6.6800    0.5426   22.5109 C.3     1  UNL1        0.1278
     34 O           6.5179    0.5773   21.0201 O.3     1  UNL1       -0.3830
     35 C           7.2752   -0.5807   23.3071 C.3     1  UNL1        0.1017
     36 H           6.8597   -0.2463   20.6384 H       1  UNL1        0.2104
@<TRIPOS>BOND
     1     1     2    1
     2     2     3   am
     3     3     4    2
     4     5     3    1
     5     5     6    1
     6     6     7    1
     7     7     8    1
     8     8     9   ar
     9     9    10   ar
    10    10    15    1
    11    15    16    1
    12    16    18    1
    13    18    19    1
    14    18    20    2
    15    18    21    2
    16    10    11   ar
    17    11    12   ar
    18    12    13   ar
    19    13    14    1
    20     2    22    1
    21    22    29    1
    22    29    30    1
    23    30    31    1
    24    31    32    1
    25    32    33    1
    26    33    34    1
    27    33    35    1
    28    22    23    1
    29    23    24   ar
    30    24    25   ar
    31    25    26   ar
    32    26    27   ar
    33    27    28   ar
    34    14     5    1
    35    35    30    1
    36    28    23   ar
    37    13     8   ar
    38    16    17    1
    39    34    36    1
@<TRIPOS>MOLECULE
*****
 36 39 0 0 0
SMALL
GASTEIGER

@<TRIPOS>ATOM
      1 C          -3.3282    4.5740   23.0565 C.3     1  UNL1        0.1153
      2 N          -2.1476    4.0151   22.3189 N.am    1  UNL1       -0.2714
      3 C          -2.3565    3.1949   21.0806 C.2     1  UNL1        0.2661
      4 O          -3.7461    2.9336   20.5796 O.2     1  UNL1       -0.2710
      5 C          -1.1760    2.6360   20.3430 C.3     1  UNL1        0.2415
      6 C          -0.5885    3.3897   19.1869 C.3     1  UNL1        0.0579
      7 C           0.5921    2.8308   18.4494 C.3     1  UNL1        0.0337
      8 C           1.1851    1.5181   18.8681 C.ar    1  UNL1        0.0117
      9 C           2.3657    0.9592   18.1306 C.ar    1  UNL1       -0.0041
     10 C           2.9587   -0.3534   18.5493 C.ar    1  UNL1       -0.0049
     11 C           2.3712   -1.1071   19.7055 C.ar    1  UNL1        0.0002
     12 C           1.1907   -0.5482   20.4430 C.ar    1  UNL1        0.0363
     13 C           0.5976    0.7644   20.0243 C.ar    1  UNL1        0.1350
     14 O          -0.5829    1.3234   20.7617 O.3     1  UNL1       -0.4703
     15 C           4.1393   -0.9124   17.8118 C.3     1  UNL1        0.1173
     16 N           4.6177   -2.3033   18.1063 N.3     1  UNL1       -0.1788
     17 H           4.5968   -2.8148   17.2241 H       1  UNL1        0.1488
     18 S           5.9785   -2.5185   18.6995 S.O2    1  UNL1        0.0429
     19 C           7.3393   -2.7337   19.2926 C.3     1  UNL1        0.1957
     20 O           6.6085   -2.1342   17.3936 O.2     1  UNL1       -0.1574
     21 O           5.3485   -2.9028   20.0053 O.2     1  UNL1       -0.1574
     22 C          -0.7580    4.2763   22.8199 C.3     1  UNL1        0.1139
     23 C           0.0165    3.1798   23.4892 C.ar    1  UNL1       -0.0029
     24 C           1.3906    2.8271   23.0021 C.ar    1  UNL1       -0.0026
     25 C           2.1651    1.7307   23.6713 C.ar    1  UNL1       -0.0003
     26 C           1.5655    0.9870   24.8277 C.ar    1  UNL1       -0.0000
     27 C           0.1913    1.3397   25.3148 C.ar    1  UNL1       -0.0003
     28 C          -0.5832    2.4361   24.6456 C.ar    1  UNL1       -0.0026
     29 C          -0.1430    5.6340   22.6515 C.3     1  UNL1        0.0968
     30 N           0.3459    6.0740   21.3034 N.3     1  UNL1       -0.2689
     31 C          -0.4290    6.8820   20.3050 C.3     1  UNL1        0.0748
     32 C           0.4417    7.0906   19.1016 C.3     1  UNL1        0.0480
     33 C           1.7547    6.4115   19.3561 C.3     1  UNL1        0.1278
     34 O           2.9221    6.3683   18.4151 O.3     1  UNL1       -0.3830
     35 C           1.6955    5.7832   20.7169 C.3     1  UNL1        0.1017
     36 H           3.6461    5.8663   18.8209 H       1  UNL1        0.2104
@<TRIPOS>BOND
     1     1     2    1
     2     2     3   am
     3     3     4    2
     4     5     3    1
     5     5     6    1
     6     6     7    1
     7     7     8    1
     8     8     9   ar
     9     9    10   ar
    10    10    15    1
    11    15    16    1
    12    16    18    1
    13    18    19    1
    14    18    20    2
    15    18    21    2
    16    10    11   ar
    17    11    12   ar
    18    12    13   ar
    19    13    14    1
    20     2    22    1
    21    22    29    1
    22    29    30    1
    23    30    31    1
    24    31    32    1
    25    32    33    1
    26    33    34    1
    27    33    35    1
    28    22    23    1
    29    23    24   ar
    30    24    25   ar
    31    25    26   ar
    32    26    27   ar
    33    27    28   ar
    34    14     5    1
    35    35    30    1
    36    28    23   ar
    37    13     8   ar
    38    16    17    1
    39    34    36    1
@<TRIPOS>MOLECULE
*****
 36 39 0 0 0
SMALL
GASTEIGER

@<TRIPOS>ATOM
      1 C           0.7158    5.4182   18.8006 C.3     1  UNL1        0.1153
      2 N           1.3241    4.0821   19.1086 N.am    1  UNL1       -0.2714
      3 C           0.6904    2.8296   18.5798 C.2     1  UNL1        0.2661
      4 O          -0.5518    2.9131   17.7431 O.2     1  UNL1       -0.2710
      5 C           1.2987    1.4935   18.8878 C.3     1  UNL1        0.2415
      6 C           0.7075    0.6299   19.9624 C.3     1  UNL1        0.0579
      7 C           1.3159   -0.7061   20.2703 C.3     1  UNL1        0.0337
      8 C           2.5155   -1.1786   19.5037 C.ar    1  UNL1        0.0117
      9 C           3.1239   -2.5147   19.8116 C.ar    1  UNL1       -0.0041
     10 C           4.3235   -2.9872   19.0450 C.ar    1  UNL1       -0.0049
     11 C           4.9147   -2.1235   17.9704 C.ar    1  UNL1        0.0002
     12 C           4.3063   -0.7875   17.6625 C.ar    1  UNL1        0.0363
     13 C           3.1067   -0.3150   18.4291 C.ar    1  UNL1        0.1350
     14 O           2.4983    1.0210   18.1212 O.3     1  UNL1       -0.4703
     15 C           4.9319   -4.3232   19.3529 C.3     1  UNL1        0.1173
     16 N           6.1578   -4.4088   20.2131 N.3     1  UNL1       -0.1788
     17 H           6.9587   -4.2550   19.6005 H       1  UNL1        0.1488
     18 S           6.3211   -3.4811   21.3805 S.O2    1  UNL1        0.0429
     19 C           6.4845   -2.5535   22.5478 C.3     1  UNL1        0.1957
     20 O           5.2686   -4.2412   22.1318 O.2     1  UNL1       -0.1574
     21 O           7.3736   -2.7210   20.6292 O.2     1  UNL1       -0.1574
     22 C           2.5663    3.9985   19.9453 C.3     1  UNL1        0.1139
     23 C           3.8866    3.6984   19.2997 C.ar    1  UNL1       -0.0029
     24 C           4.8897    2.8376   20.0087 C.ar    1  UNL1       -0.0026
     25 C           6.2100    2.5375   19.3632 C.ar    1  UNL1       -0.0003
     26 C           6.5272    3.0983   18.0087 C.ar    1  UNL1       -0.0000
     27 C           5.5242    3.9592   17.2997 C.ar    1  UNL1       -0.0003
     28 C           4.2039    4.2593   17.9452 C.ar    1  UNL1       -0.0026
     29 C           2.4881    4.2150   21.4275 C.3     1  UNL1        0.0968
     30 N           1.9354    3.1391   22.3145 N.3     1  UNL1       -0.2689
     31 C           0.5126    3.0197   22.7741 C.3     1  UNL1        0.0748
     32 C           0.4063    1.8004   23.6413 C.3     1  UNL1        0.0480
     33 C           1.7635    1.1662   23.7177 C.3     1  UNL1        0.1278
     34 O           2.1141   -0.0770   24.4802 O.3     1  UNL1       -0.3830
     35 C           2.7085    1.9935   22.8977 C.3     1  UNL1        0.1017
     36 H           3.0572   -0.2722   24.3644 H       1  UNL1        0.2104
@<TRIPOS>BOND
     1     1     2    1
     2     2     3   am
     3     3     4    2
     4     5     3    1
     5     5     6    1
     6     6     7    1
     7     7     8    1
     8     8     9   ar
     9     9    10   ar
    10    10    15    1
    11    15    16    1
    12    16    18    1
    13    18    19    1
    14    18    20    2
    15    18    21    2
    16    10    11   ar
    17    11    12   ar
    18    12    13   ar
    19    13    14    1
    20     2    22    1
    21    22    29    1
    22    29    30    1
    23    30    31    1
    24    31    32    1
    25    32    33    1
    26    33    34    1
    27    33    35    1
    28    22    23    1
    29    23    24   ar
    30    24    25   ar
    31    25    26   ar
    32    26    27   ar
    33    27    28   ar
    34    14     5    1
    35    35    30    1
    36    28    23   ar
    37    13     8   ar
    38    16    17    1
    39    34    36    1
@<TRIPOS>MOLECULE
*****
 36 39 0 0 0
SMALL
GASTEIGER

@<TRIPOS>ATOM
      1 C         -11.9854  -18.8030   25.0444 C.3     1  UNL1        0.1153
      2 N         -10.7593  -18.5395   24.2214 N.am    1  UNL1       -0.2714
      3 C          -9.6430  -19.5411   24.1968 C.2     1  UNL1        0.2661
      4 O          -9.7528  -20.8062   24.9951 O.2     1  UNL1       -0.2710
      5 C          -8.4168  -19.2776   23.3738 C.3     1  UNL1        0.2415
      6 C          -7.7259  -17.9491   23.4615 C.3     1  UNL1        0.0579
      7 C          -6.4998  -17.6857   22.6386 C.3     1  UNL1        0.0337
      8 C          -5.9647  -18.7507   21.7279 C.ar    1  UNL1        0.0117
      9 C          -4.7386  -18.4872   20.9049 C.ar    1  UNL1       -0.0041
     10 C          -4.2034  -19.5523   19.9942 C.ar    1  UNL1       -0.0049
     11 C          -4.8944  -20.8808   19.9065 C.ar    1  UNL1        0.0002
     12 C          -6.1205  -21.1442   20.7295 C.ar    1  UNL1        0.0363
     13 C          -6.6556  -20.0792   21.6402 C.ar    1  UNL1        0.1350
     14 O          -7.8817  -20.3426   22.4631 O.3     1  UNL1       -0.4703
     15 C          -2.9774  -19.2888   19.1712 C.3     1  UNL1        0.1173
     16 N          -2.4316  -17.8958   19.0633 N.3     1  UNL1       -0.1788
     17 H          -3.1148  -17.2771   19.5002 H       1  UNL1        0.1488
     18 S          -1.0988  -17.5636   19.6661 S.O2    1  UNL1        0.0429
     19 C           0.2339  -17.2315   20.2690 C.3     1  UNL1        0.1957
     20 O          -0.4112  -18.2641   18.5319 O.2     1  UNL1       -0.1574
     21 O          -1.7864  -16.8631   20.8003 O.2     1  UNL1       -0.1574
     22 C         -10.6495  -17.2743   23.4230 C.3     1  UNL1        0.1139
     23 C         -10.8436  -17.3067   21.9359 C.ar    1  UNL1       -0.0029
     24 C         -11.0995  -16.0335   21.1852 C.ar    1  UNL1       -0.0026
     25 C         -11.2936  -16.0658   19.6982 C.ar    1  UNL1       -0.0003
     26 C         -11.2319  -17.3712   18.9620 C.ar    1  UNL1       -0.0000
     27 C         -10.9761  -18.6444   19.7127 C.ar    1  UNL1       -0.0003
     28 C         -10.7819  -18.6121   21.1997 C.ar    1  UNL1       -0.0026
     29 C         -10.3456  -15.9769   24.1117 C.3     1  UNL1        0.0968
     30 N          -9.1257  -15.8543   24.9759 N.3     1  UNL1       -0.2689
     31 C          -8.9015  -16.5458   26.2880 C.3     1  UNL1        0.0748
     32 C          -7.5531  -16.1375   26.8027 C.3     1  UNL1        0.0480
     33 C          -6.9438  -15.1936   25.8088 C.3     1  UNL1        0.1278
     34 O          -5.5988  -14.5395   25.9237 O.3     1  UNL1       -0.3830
     35 C          -7.9158  -15.0186   24.6798 C.3     1  UNL1        0.1017
     36 H          -5.4456  -13.9770   25.1485 H       1  UNL1        0.2104
@<TRIPOS>BOND
     1     1     2    1
     2     2     3   am
     3     3     4    2
     4     5     3    1
     5     5     6    1
     6     6     7    1
     7     7     8    1
     8     8     9   ar
     9     9    10   ar
    10    10    15    1
    11    15    16    1
    12    16    18    1
    13    18    19    1
    14    18    20    2
    15    18    21    2
    16    10    11   ar
    17    11    12   ar
    18    12    13   ar
    19    13    14    1
    20     2    22    1
    21    22    29    1
    22    29    30    1
    23    30    31    1
    24    31    32    1
    25    32    33    1
    26    33    34    1
    27    33    35    1
    28    22    23    1
    29    23    24   ar
    30    24    25   ar
    31    25    26   ar
    32    26    27   ar
    33    27    28   ar
    34    14     5    1
    35    35    30    1
    36    28    23   ar
    37    13     8   ar
    38    16    17    1
    39    34    36    1
