@<TRIPOS>MOLECULE
*****
 22 24 0 0 0
SMALL
GASTEIGER

@<TRIPOS>ATOM
      1 C          -7.4325  -18.3179   22.1076 C.3     1  UNL1        0.1038
      2 C          -8.0148  -19.5954   21.5794 C.3     1  UNL1        0.2106
      3 O          -9.4898  -19.6996   21.3275 O.3     1  UNL1       -0.4755
      4 C         -10.3826  -18.5262   21.6038 C.ar    1  UNL1        0.1379
      5 C         -11.8576  -18.6304   21.3519 C.ar    1  UNL1        0.0367
      6 C         -12.7503  -17.4571   21.6282 C.ar    1  UNL1        0.0031
      7 C         -12.1680  -16.1796   22.1563 C.ar    1  UNL1       -0.0000
      8 C         -10.6930  -16.0754   22.4082 C.ar    1  UNL1        0.0022
      9 C          -9.8003  -17.2487   22.1319 C.ar    1  UNL1        0.0513
     10 C          -8.3252  -17.1445   22.3838 C.3     1  UNL1        0.1959
     11 C          -5.9574  -18.2137   22.3594 C.3     1  UNL1        0.0763
     12 C          -3.7597  -19.4230   21.6831 C.3     1  UNL1        0.0859
     13 N          -4.9839  -18.6443   21.3026 N.3     1  UNL1       -0.2961
     14 H          -5.5041  -19.2189   20.6396 H       1  UNL1        0.1233
     15 O          -7.7429  -15.8670   22.9119 O.3     1  UNL1       -0.4736
     16 C          -7.4490  -15.7257   24.3761 C.ar    1  UNL1        0.1493
     17 C          -8.5504  -15.8879   25.3813 C.ar    1  UNL1        0.0378
     18 C          -8.2564  -15.7465   26.8454 C.ar    1  UNL1        0.0032
     19 C          -6.8609  -15.4430   27.3042 C.ar    1  UNL1        0.0011
     20 C          -5.7595  -15.2809   26.2990 C.ar    1  UNL1        0.0145
     21 C          -6.0535  -15.4222   24.8350 C.ar    1  UNL1        0.0915
     22 CL         -4.9520  -15.2601   23.8297 Cl      1  UNL1       -0.0791
@<TRIPOS>BOND
     1    12    13    1
     2    13    11    1
     3     1    11    1
     4     1     2    1
     5     2     3    1
     6     3     4    1
     7     4     5   ar
     8     5     6   ar
     9     6     7   ar
    10     7     8   ar
    11     8     9   ar
    12     9    10    1
    13    10    15    1
    14    15    16    1
    15    16    17   ar
    16    17    18   ar
    17    18    19   ar
    18    19    20   ar
    19    20    21   ar
    20    21    22    1
    21    10     1    1
    22    21    16   ar
    23     9     4   ar
    24    13    14    1
@<TRIPOS>MOLECULE
*****
 22 24 0 0 0
SMALL
GASTEIGER

@<TRIPOS>ATOM
      1 C          -6.9876  -16.1065   23.3938 C.3     1  UNL1        0.1038
      2 C          -5.5597  -16.4196   23.7305 C.3     1  UNL1        0.2106
      3 O          -4.8844  -17.6044   23.1060 O.3     1  UNL1       -0.4755
      4 C          -5.6368  -18.4761   22.1447 C.ar    1  UNL1        0.1379
      5 C          -4.9614  -19.6609   21.5202 C.ar    1  UNL1        0.0367
      6 C          -5.7138  -20.5326   20.5590 C.ar    1  UNL1        0.0031
      7 C          -7.1416  -20.2195   20.2223 C.ar    1  UNL1       -0.0000
      8 C          -7.8170  -19.0347   20.8468 C.ar    1  UNL1        0.0022
      9 C          -7.0646  -18.1630   21.8080 C.ar    1  UNL1        0.0513
     10 C          -7.7400  -16.9782   22.4326 C.3     1  UNL1        0.1959
     11 C          -7.6629  -14.9216   24.0184 C.3     1  UNL1        0.0763
     12 C          -8.3966  -15.8609   26.3270 C.3     1  UNL1        0.0859
     13 N          -8.7221  -15.1254   25.0609 N.3     1  UNL1       -0.2961
     14 H          -9.0482  -14.1984   25.3344 H       1  UNL1        0.1233
     15 O          -9.1678  -16.6651   22.0959 O.3     1  UNL1       -0.4736
     16 C         -10.2798  -17.3334   22.8489 C.ar    1  UNL1        0.1493
     17 C          -9.9641  -18.2865   23.9632 C.ar    1  UNL1        0.0378
     18 C         -11.0761  -18.9547   24.7161 C.ar    1  UNL1        0.0032
     19 C         -12.5038  -18.6699   24.3547 C.ar    1  UNL1        0.0011
     20 C         -12.8194  -17.7167   23.2403 C.ar    1  UNL1        0.0145
     21 C         -11.7074  -17.0485   22.4874 C.ar    1  UNL1        0.0915
     22 CL        -12.0231  -16.0953   21.3730 Cl      1  UNL1       -0.0791
@<TRIPOS>BOND
     1    12    13    1
     2    13    11    1
     3     1    11    1
     4     1     2    1
     5     2     3    1
     6     3     4    1
     7     4     5   ar
     8     5     6   ar
     9     6     7   ar
    10     7     8   ar
    11     8     9   ar
    12     9    10    1
    13    10    15    1
    14    15    16    1
    15    16    17   ar
    16    17    18   ar
    17    18    19   ar
    18    19    20   ar
    19    20    21   ar
    20    21    22    1
    21    10     1    1
    22    21    16   ar
    23     9     4   ar
    24    13    14    1
@<TRIPOS>MOLECULE
*****
 22 24 0 0 0
SMALL
GASTEIGER

@<TRIPOS>ATOM
      1 C          -7.1576  -18.7548   21.2840 C.3     1  UNL1        0.1038
      2 C          -5.7464  -19.1350   21.6216 C.3     1  UNL1        0.2106
      3 O          -4.9834  -18.3510   22.6478 O.3     1  UNL1       -0.4755
      4 C          -5.6317  -17.1867   23.3365 C.ar    1  UNL1        0.1379
      5 C          -4.8687  -16.4027   24.3627 C.ar    1  UNL1        0.0367
      6 C          -5.5169  -15.2385   25.0514 C.ar    1  UNL1        0.0031
      7 C          -6.9281  -14.8583   24.7139 C.ar    1  UNL1       -0.0000
      8 C          -7.6911  -15.6423   23.6877 C.ar    1  UNL1        0.0022
      9 C          -7.0429  -16.8065   22.9990 C.ar    1  UNL1        0.0513
     10 C          -7.8059  -17.5906   21.9727 C.3     1  UNL1        0.1959
     11 C          -7.9206  -19.5389   20.2578 C.3     1  UNL1        0.0763
     12 C         -10.3284  -19.4270   19.2884 C.3     1  UNL1        0.0859
     13 N          -8.9461  -18.8560   19.4022 N.3     1  UNL1       -0.2961
     14 H          -9.0480  -17.9080   19.7648 H       1  UNL1        0.1233
     15 O          -9.2171  -17.2104   21.6352 O.3     1  UNL1       -0.4736
     16 C         -10.3456  -17.6584   22.5160 C.ar    1  UNL1        0.1493
     17 C         -10.0755  -18.5718   23.6747 C.ar    1  UNL1        0.0378
     18 C         -11.2041  -19.0197   24.5555 C.ar    1  UNL1        0.0032
     19 C         -12.6027  -18.5543   24.2775 C.ar    1  UNL1        0.0011
     20 C         -12.8727  -17.6409   23.1188 C.ar    1  UNL1        0.0145
     21 C         -11.7442  -17.1929   22.2380 C.ar    1  UNL1        0.0915
     22 CL        -12.0143  -16.2794   21.0792 Cl      1  UNL1       -0.0791
@<TRIPOS>BOND
     1    12    13    1
     2    13    11    1
     3     1    11    1
     4     1     2    1
     5     2     3    1
     6     3     4    1
     7     4     5   ar
     8     5     6   ar
     9     6     7   ar
    10     7     8   ar
    11     8     9   ar
    12     9    10    1
    13    10    15    1
    14    15    16    1
    15    16    17   ar
    16    17    18   ar
    17    18    19   ar
    18    19    20   ar
    19    20    21   ar
    20    21    22    1
    21    10     1    1
    22    21    16   ar
    23     9     4   ar
    24    13    14    1
@<TRIPOS>MOLECULE
*****
 22 24 0 0 0
SMALL
GASTEIGER

@<TRIPOS>ATOM
      1 C          -9.5308  -17.3634   21.7776 C.3     1  UNL1        0.1038
      2 C          -9.9040  -18.6417   21.0872 C.3     1  UNL1        0.2106
      3 O          -8.8650  -19.6974   20.8508 O.3     1  UNL1       -0.4755
      4 C          -7.4528  -19.4750   21.3048 C.ar    1  UNL1        0.1379
      5 C          -6.4138  -20.5307   21.0684 C.ar    1  UNL1        0.0367
      6 C          -5.0016  -20.3082   21.5225 C.ar    1  UNL1        0.0031
      7 C          -4.6284  -19.0299   22.2130 C.ar    1  UNL1       -0.0000
      8 C          -5.6674  -17.9741   22.4494 C.ar    1  UNL1        0.0022
      9 C          -7.0795  -18.1967   21.9953 C.ar    1  UNL1        0.0513
     10 C          -8.1186  -17.1409   22.2317 C.3     1  UNL1        0.1959
     11 C         -10.5698  -16.3077   22.0140 C.3     1  UNL1        0.0763
     12 C         -11.5911  -15.8335   19.6727 C.3     1  UNL1        0.0859
     13 N         -11.7651  -16.2166   21.1124 N.3     1  UNL1       -0.2961
     14 H         -12.2111  -17.1339   21.1212 H       1  UNL1        0.1233
     15 O          -7.7454  -15.8626   22.9221 O.3     1  UNL1       -0.4736
     16 C          -7.5099  -15.8515   24.4036 C.ar    1  UNL1        0.1493
     17 C          -8.6180  -16.2276   25.3420 C.ar    1  UNL1        0.0378
     18 C          -8.3825  -16.2164   26.8233 C.ar    1  UNL1        0.0032
     19 C          -7.0389  -15.8291   27.3662 C.ar    1  UNL1        0.0011
     20 C          -5.9308  -15.4530   26.4278 C.ar    1  UNL1        0.0145
     21 C          -6.1663  -15.4641   24.9465 C.ar    1  UNL1        0.0915
     22 CL         -5.0582  -15.0880   24.0080 Cl      1  UNL1       -0.0791
@<TRIPOS>BOND
     1    12    13    1
     2    13    11    1
     3     1    11    1
     4     1     2    1
     5     2     3    1
     6     3     4    1
     7     4     5   ar
     8     5     6   ar
     9     6     7   ar
    10     7     8   ar
    11     8     9   ar
    12     9    10    1
    13    10    15    1
    14    15    16    1
    15    16    17   ar
    16    17    18   ar
    17    18    19   ar
    18    19    20   ar
    19    20    21   ar
    20    21    22    1
    21    10     1    1
    22    21    16   ar
    23     9     4   ar
    24    13    14    1
@<TRIPOS>MOLECULE
*****
 22 24 0 0 0
SMALL
GASTEIGER

@<TRIPOS>ATOM
      1 C          -6.9808  -16.2780   23.9419 C.3     1  UNL1        0.1038
      2 C          -5.5182  -15.9506   23.8842 C.3     1  UNL1        0.2106
      3 O          -4.5813  -16.8350   23.1160 O.3     1  UNL1       -0.4755
      4 C          -5.1071  -18.0469   22.4055 C.ar    1  UNL1        0.1379
      5 C          -4.1703  -18.9313   21.6374 C.ar    1  UNL1        0.0367
      6 C          -4.6961  -20.1432   20.9269 C.ar    1  UNL1        0.0031
      7 C          -6.1588  -20.4706   20.9846 C.ar    1  UNL1       -0.0000
      8 C          -7.0956  -19.5862   21.7527 C.ar    1  UNL1        0.0022
      9 C          -6.5698  -18.3744   22.4632 C.ar    1  UNL1        0.0513
     10 C          -7.5067  -17.4899   23.2314 C.3     1  UNL1        0.1959
     11 C          -7.9177  -15.3935   24.7101 C.3     1  UNL1        0.0763
     12 C          -8.1166  -16.0527   27.2152 C.3     1  UNL1        0.0859
     13 N          -7.6526  -15.0970   26.1564 N.3     1  UNL1       -0.2961
     14 H          -6.6413  -15.0121   26.2590 H       1  UNL1        0.1233
     15 O          -8.9693  -17.8174   23.2890 O.3     1  UNL1       -0.4736
     16 C          -9.8651  -17.4536   22.1422 C.ar    1  UNL1        0.1493
     17 C          -9.8934  -16.0439   21.6304 C.ar    1  UNL1        0.0378
     18 C         -10.7892  -15.6802   20.4836 C.ar    1  UNL1        0.0032
     19 C         -11.6567  -16.7261   19.8485 C.ar    1  UNL1        0.0011
     20 C         -11.6284  -18.1358   20.3602 C.ar    1  UNL1        0.0145
     21 C         -10.7326  -18.4996   21.5070 C.ar    1  UNL1        0.0915
     22 CL        -10.7044  -19.9093   22.0188 Cl      1  UNL1       -0.0791
@<TRIPOS>BOND
     1    12    13    1
     2    13    11    1
     3     1    11    1
     4     1     2    1
     5     2     3    1
     6     3     4    1
     7     4     5   ar
     8     5     6   ar
     9     6     7   ar
    10     7     8   ar
    11     8     9   ar
    12     9    10    1
    13    10    15    1
    14    15    16    1
    15    16    17   ar
    16    17    18   ar
    17    18    19   ar
    18    19    20   ar
    19    20    21   ar
    20    21    22    1
    21    10     1    1
    22    21    16   ar
    23     9     4   ar
    24    13    14    1
@<TRIPOS>MOLECULE
*****
 22 24 0 0 0
SMALL
GASTEIGER

@<TRIPOS>ATOM
      1 C          -7.4549  -18.7246   22.1337 C.3     1  UNL1        0.1038
      2 C          -7.0142  -20.0923   21.7035 C.3     1  UNL1        0.2106
      3 O          -5.5524  -20.4197   21.6265 O.3     1  UNL1       -0.4755
      4 C          -4.5312  -19.3793   21.9797 C.ar    1  UNL1        0.1379
      5 C          -3.0694  -19.7066   21.9027 C.ar    1  UNL1        0.0367
      6 C          -2.0483  -18.6662   22.2560 C.ar    1  UNL1        0.0031
      7 C          -2.4889  -17.2984   22.6862 C.ar    1  UNL1       -0.0000
      8 C          -3.9507  -16.9711   22.7632 C.ar    1  UNL1        0.0022
      9 C          -4.9718  -18.0115   22.4099 C.ar    1  UNL1        0.0513
     10 C          -6.4337  -17.6842   22.4869 C.3     1  UNL1        0.1959
     11 C          -8.9167  -18.3973   22.2106 C.3     1  UNL1        0.0763
     12 C         -11.0083  -17.2523   21.1790 C.3     1  UNL1        0.0859
     13 N          -9.5195  -17.4245   21.2409 N.3     1  UNL1       -0.2961
     14 H          -9.1261  -16.5091   21.4592 H       1  UNL1        0.1233
     15 O          -6.8744  -16.3164   22.9171 O.3     1  UNL1       -0.4736
     16 C          -6.9277  -15.9698   24.3756 C.ar    1  UNL1        0.1493
     17 C          -5.6571  -15.7380   25.1383 C.ar    1  UNL1        0.0378
     18 C          -5.7104  -15.3914   26.5967 C.ar    1  UNL1        0.0032
     19 C          -7.0343  -15.2767   27.2924 C.ar    1  UNL1        0.0011
     20 C          -8.3049  -15.5085   26.5297 C.ar    1  UNL1        0.0145
     21 C          -8.2516  -15.8551   25.0713 C.ar    1  UNL1        0.0915
     22 CL         -9.5223  -16.0869   24.3085 Cl      1  UNL1       -0.0791
@<TRIPOS>BOND
     1    12    13    1
     2    13    11    1
     3     1    11    1
     4     1     2    1
     5     2     3    1
     6     3     4    1
     7     4     5   ar
     8     5     6   ar
     9     6     7   ar
    10     7     8   ar
    11     8     9   ar
    12     9    10    1
    13    10    15    1
    14    15    16    1
    15    16    17   ar
    16    17    18   ar
    17    18    19   ar
    18    19    20   ar
    19    20    21   ar
    20    21    22    1
    21    10     1    1
    22    21    16   ar
    23     9     4   ar
    24    13    14    1
@<TRIPOS>MOLECULE
*****
 22 24 0 0 0
SMALL
GASTEIGER

@<TRIPOS>ATOM
      1 C          -6.9430  -16.6790   23.3987 C.3     1  UNL1        0.1038
      2 C          -6.0018  -15.5179   23.5249 C.3     1  UNL1        0.2106
      3 O          -4.5471  -15.6934   23.2044 O.3     1  UNL1       -0.4755
      4 C          -4.0334  -17.0300   22.7577 C.ar    1  UNL1        0.1379
      5 C          -2.5786  -17.2055   22.4372 C.ar    1  UNL1        0.0367
      6 C          -2.0650  -18.5421   21.9904 C.ar    1  UNL1        0.0031
      7 C          -3.0062  -19.7033   21.8642 C.ar    1  UNL1       -0.0000
      8 C          -4.4610  -19.5278   22.1847 C.ar    1  UNL1        0.0022
      9 C          -4.9746  -18.1912   22.6314 C.ar    1  UNL1        0.0513
     10 C          -6.4294  -18.0156   22.9519 C.3     1  UNL1        0.1959
     11 C          -8.3979  -16.5034   23.7192 C.3     1  UNL1        0.0763
     12 C          -8.4603  -15.4996   26.1147 C.3     1  UNL1        0.0859
     13 N          -8.8326  -15.4223   24.6637 N.3     1  UNL1       -0.2961
     14 H          -8.4477  -14.5475   24.3072 H       1  UNL1        0.1233
     15 O          -7.3706  -19.1767   22.8257 O.3     1  UNL1       -0.4736
     16 C          -8.2220  -19.3221   21.5992 C.ar    1  UNL1        0.1493
     17 C          -7.5837  -19.3509   20.2422 C.ar    1  UNL1        0.0378
     18 C          -8.4350  -19.4963   19.0159 C.ar    1  UNL1        0.0032
     19 C          -9.9248  -19.6130   19.1466 C.ar    1  UNL1        0.0011
     20 C         -10.5631  -19.5842   20.5036 C.ar    1  UNL1        0.0145
     21 C          -9.7118  -19.4388   21.7299 C.ar    1  UNL1        0.0915
     22 CL        -10.3501  -19.4100   23.0871 Cl      1  UNL1       -0.0791
@<TRIPOS>BOND
     1    12    13    1
     2    13    11    1
     3     1    11    1
     4     1     2    1
     5     2     3    1
     6     3     4    1
     7     4     5   ar
     8     5     6   ar
     9     6     7   ar
    10     7     8   ar
    11     8     9   ar
    12     9    10    1
    13    10    15    1
    14    15    16    1
    15    16    17   ar
    16    17    18   ar
    17    18    19   ar
    18    19    20   ar
    19    20    21   ar
    20    21    22    1
    21    10     1    1
    22    21    16   ar
    23     9     4   ar
    24    13    14    1
@<TRIPOS>MOLECULE
*****
 22 24 0 0 0
SMALL
GASTEIGER

@<TRIPOS>ATOM
      1 C          -7.1628  -17.6169   22.7658 C.3     1  UNL1        0.1038
      2 C          -5.8533  -16.8854   22.7794 C.3     1  UNL1        0.2106
      3 O          -5.4829  -16.0325   23.9563 O.3     1  UNL1       -0.4755
      4 C          -6.4219  -15.9110   25.1197 C.ar    1  UNL1        0.1379
      5 C          -6.0515  -15.0580   26.2966 C.ar    1  UNL1        0.0367
      6 C          -6.9906  -14.9365   27.4600 C.ar    1  UNL1        0.0031
      7 C          -8.3001  -15.6680   27.4464 C.ar    1  UNL1       -0.0000
      8 C          -8.6705  -16.5209   26.2694 C.ar    1  UNL1        0.0022
      9 C          -7.7315  -16.6424   25.1061 C.ar    1  UNL1        0.0513
     10 C          -8.1019  -17.4954   23.9291 C.3     1  UNL1        0.1959
     11 C          -7.5332  -18.4699   21.5888 C.3     1  UNL1        0.0763
     12 C          -5.6047  -19.3084   20.0631 C.3     1  UNL1        0.0859
     13 N          -6.7484  -18.3710   20.3143 N.3     1  UNL1       -0.2961
     14 H          -7.4106  -18.5029   19.5497 H       1  UNL1        0.1233
     15 O          -9.4114  -18.2268   23.9155 O.3     1  UNL1       -0.4736
     16 C         -10.5415  -17.7259   23.0657 C.ar    1  UNL1        0.1493
     17 C         -10.9708  -16.2916   23.1583 C.ar    1  UNL1        0.0378
     18 C         -12.1008  -15.7908   22.3086 C.ar    1  UNL1        0.0032
     19 C         -12.8015  -16.7241   21.3663 C.ar    1  UNL1        0.0011
     20 C         -12.3722  -18.1583   21.2737 C.ar    1  UNL1        0.0145
     21 C         -11.2422  -18.6592   22.1234 C.ar    1  UNL1        0.0915
     22 CL        -10.8128  -20.0935   22.0309 Cl      1  UNL1       -0.0791
@<TRIPOS>BOND
     1    12    13    1
     2    13    11    1
     3     1    11    1
     4     1     2    1
     5     2     3    1
     6     3     4    1
     7     4     5   ar
     8     5     6   ar
     9     6     7   ar
    10     7     8   ar
    11     8     9   ar
    12     9    10    1
    13    10    15    1
    14    15    16    1
    15    16    17   ar
    16    17    18   ar
    17    18    19   ar
    18    19    20   ar
    19    20    21   ar
    20    21    22    1
    21    10     1    1
    22    21    16   ar
    23     9     4   ar
    24    13    14    1
@<TRIPOS>MOLECULE
*****
 22 24 0 0 0
SMALL
GASTEIGER

@<TRIPOS>ATOM
      1 C         -10.1520   -5.4008   18.2529 C.3     1  UNL1        0.1038
      2 C          -9.2721   -5.0316   17.0956 C.3     1  UNL1        0.2106
      3 O          -9.3270   -3.6460   16.5237 O.3     1  UNL1       -0.4755
      4 C         -10.2619   -2.6295   17.1091 C.ar    1  UNL1        0.1379
      5 C         -10.3169   -1.2439   16.5373 C.ar    1  UNL1        0.0367
      6 C         -11.2518   -0.2275   17.1227 C.ar    1  UNL1        0.0031
      7 C         -12.1318   -0.5967   18.2800 C.ar    1  UNL1       -0.0000
      8 C         -12.0768   -1.9823   18.8519 C.ar    1  UNL1        0.0022
      9 C         -11.1419   -2.9987   18.2664 C.ar    1  UNL1        0.0513
     10 C         -11.0870   -4.3844   18.8383 C.3     1  UNL1        0.1959
     11 C         -10.0971   -6.7865   18.8247 C.3     1  UNL1        0.0763
     12 C         -11.3503   -7.9748   16.8838 C.3     1  UNL1        0.0859
     13 N         -10.2730   -7.9756   17.9275 N.3     1  UNL1       -0.2961
     14 H          -9.3883   -8.1081   17.4374 H       1  UNL1        0.1233
     15 O         -11.9669   -4.7535   19.9956 O.3     1  UNL1       -0.4736
     16 C         -13.4174   -5.0600   19.7670 C.ar    1  UNL1        0.1493
     17 C         -13.8116   -6.2054   18.8824 C.ar    1  UNL1        0.0378
     18 C         -15.2620   -6.5119   18.6538 C.ar    1  UNL1        0.0032
     19 C         -16.3183   -5.6729   19.3099 C.ar    1  UNL1        0.0011
     20 C         -15.9241   -4.5275   20.1945 C.ar    1  UNL1        0.0145
     21 C         -14.4737   -4.2211   20.4231 C.ar    1  UNL1        0.0915
     22 CL        -14.0795   -3.0756   21.3078 Cl      1  UNL1       -0.0791
@<TRIPOS>BOND
     1    12    13    1
     2    13    11    1
     3     1    11    1
     4     1     2    1
     5     2     3    1
     6     3     4    1
     7     4     5   ar
     8     5     6   ar
     9     6     7   ar
    10     7     8   ar
    11     8     9   ar
    12     9    10    1
    13    10    15    1
    14    15    16    1
    15    16    17   ar
    16    17    18   ar
    17    18    19   ar
    18    19    20   ar
    19    20    21   ar
    20    21    22    1
    21    10     1    1
    22    21    16   ar
    23     9     4   ar
    24    13    14    1
