@<TRIPOS>MOLECULE
*****
 37 41 0 0 0
SMALL
GASTEIGER

@<TRIPOS>ATOM
      1 N          -9.3171  -18.1205   21.1442 N.3     1  UNL1       -0.2679
      2 C          -9.7867  -18.8335   22.3776 C.3     1  UNL1        0.0978
      3 C          -8.9243  -19.8852   23.0101 C.3     1  UNL1        0.0224
      4 C          -9.3938  -20.5982   24.2434 C.3     1  UNL1        0.0065
      5 C         -10.7257  -20.2594   24.8443 C.3     1  UNL1        0.0277
      6 C         -11.5882  -19.2077   24.2119 C.ar    1  UNL1       -0.0073
      7 C         -12.9202  -18.8689   24.8128 C.ar    1  UNL1       -0.0015
      8 C         -13.7826  -17.8172   24.1803 C.ar    1  UNL1        0.0203
      9 C         -13.3131  -17.1042   22.9469 C.ar    1  UNL1        0.0985
     10 N         -11.9811  -17.4429   22.3460 N.ar    1  UNL1       -0.2471
     11 C         -11.1186  -18.4947   22.9785 C.ar    1  UNL1        0.0695
     12 C          -9.5813  -18.7102   19.7906 C.3     1  UNL1        0.0725
     13 C          -8.5773  -19.6331   19.1656 C.3     1  UNL1        0.0188
     14 C          -7.3080  -19.9639   19.8931 C.3     1  UNL1        0.0188
     15 C          -6.1924  -18.9627   19.9480 C.3     1  UNL1        0.0721
     16 C          -5.3733  -19.6789   22.3073 C.3     1  UNL1        0.0896
     17 N          -5.0814  -19.1315   20.9417 N.3     1  UNL1       -0.2728
     18 C          -3.6785  -18.7527   20.5697 C.3     1  UNL1        0.0579
     19 C          -3.3325  -18.4703   19.1377 C.3     1  UNL1        0.0216
     20 C          -1.9296  -18.0916   18.7657 C.3     1  UNL1        0.0679
     21 C          -0.8727  -17.9953   19.8256 C.3     1  UNL1        0.2640
     22 F           0.4660  -17.7742   20.4654 F       1  UNL1       -0.2043
     23 F          -0.0618  -17.6361   18.6158 F       1  UNL1       -0.2043
     24 C          -1.2186  -18.2777   21.2576 C.3     1  UNL1        0.0679
     25 C          -2.6215  -18.6564   21.6297 C.3     1  UNL1        0.0216
     26 C          -8.5835  -16.8177   21.2645 C.3     1  UNL1        0.0886
     27 C          -7.9010  -16.4572   22.5507 C.3     1  UNL1        0.0764
     28 C          -8.7165  -16.1004   23.7581 C.3     1  UNL1        0.0626
     29 C          -8.0340  -15.7400   25.0443 C.ar    1  UNL1        0.0577
     30 N          -8.8494  -15.3832   26.2516 N.ar    1  UNL1       -0.2484
     31 C          -8.1670  -15.0227   27.5378 C.ar    1  UNL1        0.0984
     32 C          -6.6690  -15.0190   27.6166 C.ar    1  UNL1        0.0204
     33 C          -5.8536  -15.3758   26.4093 C.ar    1  UNL1       -0.0002
     34 C          -6.5361  -15.7363   25.1232 C.ar    1  UNL1        0.0073
     35 C          -5.7206  -16.0931   23.9157 C.3     1  UNL1        0.0968
     36 N          -6.4031  -16.4536   22.6296 N.3     1  UNL1       -0.2934
     37 H          -6.0931  -17.3941   22.3853 H       1  UNL1        0.1236
@<TRIPOS>BOND
     1    16    17    1
     2    17    15    1
     3    15    14    1
     4    14    13    1
     5    13    12    1
     6    12     1    1
     7     1    26    1
     8    27    26    1
     9    27    28    1
    10    28    29    1
    11    29    30   ar
    12    30    31   ar
    13    31    32   ar
    14    32    33   ar
    15    33    34   ar
    16    34    35    1
    17    35    36    1
    18     2     1    1
    19     2     3    1
    20     3     4    1
    21     4     5    1
    22     5     6    1
    23     6     7   ar
    24     7     8   ar
    25     8     9   ar
    26     9    10   ar
    27    10    11   ar
    28    17    18    1
    29    18    19    1
    30    19    20    1
    31    20    21    1
    32    21    22    1
    33    21    23    1
    34    21    24    1
    35    24    25    1
    36    36    27    1
    37    11     2    1
    38    25    18    1
    39    34    29   ar
    40    11     6   ar
    41    36    37    1
@<TRIPOS>MOLECULE
*****
 37 41 0 0 0
SMALL
GASTEIGER

@<TRIPOS>ATOM
      1 N         -10.5884  -17.0437   21.0492 N.3     1  UNL1       -0.2679
      2 C         -11.3220  -17.6326   22.2176 C.3     1  UNL1        0.0978
      3 C         -12.6865  -17.1255   22.5794 C.3     1  UNL1        0.0224
      4 C         -13.4201  -17.7143   23.7478 C.3     1  UNL1        0.0065
      5 C         -12.7891  -18.8102   24.5544 C.3     1  UNL1        0.0277
      6 C         -11.4246  -19.3173   24.1927 C.ar    1  UNL1       -0.0073
      7 C         -10.7935  -20.4133   24.9994 C.ar    1  UNL1       -0.0015
      8 C          -9.4290  -20.9204   24.6377 C.ar    1  UNL1        0.0203
      9 C          -8.6955  -20.3316   23.4693 C.ar    1  UNL1        0.0985
     10 N          -9.3264  -19.2357   22.6626 N.ar    1  UNL1       -0.2471
     11 C         -10.6910  -18.7285   23.0243 C.ar    1  UNL1        0.0695
     12 C         -10.6626  -17.7066   19.7057 C.3     1  UNL1        0.0725
     13 C         -10.3378  -19.1648   19.5699 C.3     1  UNL1        0.0188
     14 C          -8.9617  -19.5908   19.1517 C.3     1  UNL1        0.0188
     15 C          -7.7659  -19.1392   19.9365 C.3     1  UNL1        0.0721
     16 C          -6.7334  -21.5148   19.7345 C.3     1  UNL1        0.0896
     17 N          -6.6343  -20.0900   20.1927 N.3     1  UNL1       -0.2728
     18 C          -5.4035  -19.6158   20.9072 C.3     1  UNL1        0.0579
     19 C          -5.5303  -18.7510   22.1263 C.3     1  UNL1        0.0216
     20 C          -4.2996  -18.2768   22.8408 C.3     1  UNL1        0.0679
     21 C          -2.9421  -18.6674   22.3363 C.3     1  UNL1        0.2640
     22 F          -1.4485  -18.7701   22.2440 F       1  UNL1       -0.2043
     23 F          -2.5502  -17.8382   23.5233 F       1  UNL1       -0.2043
     24 C          -2.8153  -19.5322   21.1172 C.3     1  UNL1        0.0679
     25 C          -4.0460  -20.0064   20.4027 C.3     1  UNL1        0.0216
     26 C          -9.7807  -15.7920   21.2243 C.3     1  UNL1        0.0886
     27 C          -8.8298  -15.6682   22.3778 C.3     1  UNL1        0.0764
     28 C          -9.3070  -15.9330   23.7750 C.3     1  UNL1        0.0626
     29 C          -8.3561  -15.8091   24.9285 C.ar    1  UNL1        0.0577
     30 N          -8.8333  -16.0739   26.3256 N.ar    1  UNL1       -0.2484
     31 C          -7.8824  -15.9501   27.4790 C.ar    1  UNL1        0.0984
     32 C          -6.4542  -15.5615   27.2353 C.ar    1  UNL1        0.0204
     33 C          -5.9770  -15.2968   25.8381 C.ar    1  UNL1       -0.0002
     34 C          -6.9279  -15.4206   24.6847 C.ar    1  UNL1        0.0073
     35 C          -6.4507  -15.1559   23.2875 C.3     1  UNL1        0.0968
     36 N          -7.4016  -15.2797   22.1341 N.3     1  UNL1       -0.2934
     37 H          -7.0098  -15.9789   21.5032 H       1  UNL1        0.1236
@<TRIPOS>BOND
     1    16    17    1
     2    17    15    1
     3    15    14    1
     4    14    13    1
     5    13    12    1
     6    12     1    1
     7     1    26    1
     8    27    26    1
     9    27    28    1
    10    28    29    1
    11    29    30   ar
    12    30    31   ar
    13    31    32   ar
    14    32    33   ar
    15    33    34   ar
    16    34    35    1
    17    35    36    1
    18     2     1    1
    19     2     3    1
    20     3     4    1
    21     4     5    1
    22     5     6    1
    23     6     7   ar
    24     7     8   ar
    25     8     9   ar
    26     9    10   ar
    27    10    11   ar
    28    17    18    1
    29    18    19    1
    30    19    20    1
    31    20    21    1
    32    21    22    1
    33    21    23    1
    34    21    24    1
    35    24    25    1
    36    36    27    1
    37    11     2    1
    38    25    18    1
    39    34    29   ar
    40    11     6   ar
    41    36    37    1
@<TRIPOS>MOLECULE
*****
 37 41 0 0 0
SMALL
GASTEIGER

@<TRIPOS>ATOM
      1 N          -7.6913  -19.5812   21.4498 N.3     1  UNL1       -0.2679
      2 C          -8.3631  -19.2483   22.7489 C.3     1  UNL1        0.0978
      3 C          -9.1921  -20.2825   23.4512 C.3     1  UNL1        0.0224
      4 C          -9.8640  -19.9495   24.7503 C.3     1  UNL1        0.0065
      5 C          -9.7069  -18.5825   25.3472 C.3     1  UNL1        0.0277
      6 C          -8.8779  -17.5483   24.6449 C.ar    1  UNL1       -0.0073
      7 C          -8.7208  -16.1811   25.2418 C.ar    1  UNL1       -0.0015
      8 C          -7.8918  -15.1469   24.5396 C.ar    1  UNL1        0.0203
      9 C          -7.2199  -15.4798   23.2404 C.ar    1  UNL1        0.0985
     10 N          -7.3770  -16.8469   22.6436 N.ar    1  UNL1       -0.2471
     11 C          -8.2060  -17.8812   23.3458 C.ar    1  UNL1        0.0695
     12 C          -8.3521  -19.2258   20.1510 C.3     1  UNL1        0.0725
     13 C          -9.5779  -19.9670   19.7057 C.3     1  UNL1        0.0188
     14 C         -10.9303  -19.3344   19.8492 C.3     1  UNL1        0.0188
     15 C         -11.0766  -17.8453   19.7451 C.3     1  UNL1        0.0721
     16 C         -10.4685  -15.7714   21.1872 C.3     1  UNL1        0.0896
     17 N         -11.2711  -17.0222   20.9840 N.3     1  UNL1       -0.2728
     18 C         -12.2682  -17.4501   22.0198 C.3     1  UNL1        0.0579
     19 C         -13.6095  -17.9731   21.5987 C.3     1  UNL1        0.0216
     20 C         -14.6065  -18.4010   22.6344 C.3     1  UNL1        0.0679
     21 C         -14.2623  -18.3058   24.0913 C.3     1  UNL1        0.2640
     22 F         -14.4006  -18.4042   25.5817 F       1  UNL1       -0.2043
     23 F         -15.6517  -18.8630   24.1878 F       1  UNL1       -0.2043
     24 C         -12.9209  -17.7828   24.5124 C.3     1  UNL1        0.0679
     25 C         -11.9239  -17.3550   23.4767 C.3     1  UNL1        0.0216
     26 C          -6.3585  -20.2694   21.4495 C.3     1  UNL1        0.0886
     27 C          -5.0961  -19.4595   21.4290 C.3     1  UNL1        0.0764
     28 C          -4.2207  -19.4656   20.2110 C.3     1  UNL1        0.0626
     29 C          -2.9583  -18.6557   20.1906 C.ar    1  UNL1        0.0577
     30 N          -2.0829  -18.6618   18.9726 N.ar    1  UNL1       -0.2484
     31 C          -0.8205  -17.8519   18.9522 C.ar    1  UNL1        0.0984
     32 C          -0.4336  -17.0358   20.1499 C.ar    1  UNL1        0.0204
     33 C          -1.3090  -17.0297   21.3679 C.ar    1  UNL1       -0.0002
     34 C          -2.5713  -17.8396   21.3883 C.ar    1  UNL1        0.0073
     35 C          -3.4468  -17.8335   22.6063 C.3     1  UNL1        0.0968
     36 N          -4.7092  -18.6434   22.6267 N.3     1  UNL1       -0.2934
     37 H          -5.4745  -17.9915   22.7985 H       1  UNL1        0.1236
@<TRIPOS>BOND
     1    16    17    1
     2    17    15    1
     3    15    14    1
     4    14    13    1
     5    13    12    1
     6    12     1    1
     7     1    26    1
     8    27    26    1
     9    27    28    1
    10    28    29    1
    11    29    30   ar
    12    30    31   ar
    13    31    32   ar
    14    32    33   ar
    15    33    34   ar
    16    34    35    1
    17    35    36    1
    18     2     1    1
    19     2     3    1
    20     3     4    1
    21     4     5    1
    22     5     6    1
    23     6     7   ar
    24     7     8   ar
    25     8     9   ar
    26     9    10   ar
    27    10    11   ar
    28    17    18    1
    29    18    19    1
    30    19    20    1
    31    20    21    1
    32    21    22    1
    33    21    23    1
    34    21    24    1
    35    24    25    1
    36    36    27    1
    37    11     2    1
    38    25    18    1
    39    34    29   ar
    40    11     6   ar
    41    36    37    1
@<TRIPOS>MOLECULE
*****
 37 41 0 0 0
SMALL
GASTEIGER

@<TRIPOS>ATOM
      1 N          -7.5730  -19.8423   21.8326 N.3     1  UNL1       -0.2679
      2 C          -8.3380  -19.3474   23.0242 C.3     1  UNL1        0.0978
      3 C          -9.2753  -20.2675   23.7487 C.3     1  UNL1        0.0224
      4 C         -10.0403  -19.7726   24.9403 C.3     1  UNL1        0.0065
      5 C          -9.8680  -18.3577   25.4074 C.3     1  UNL1        0.0277
      6 C          -8.9307  -17.4376   24.6830 C.ar    1  UNL1       -0.0073
      7 C          -8.7584  -16.0226   25.1501 C.ar    1  UNL1       -0.0015
      8 C          -7.8211  -15.1025   24.4256 C.ar    1  UNL1        0.0203
      9 C          -7.0561  -15.5974   23.2339 C.ar    1  UNL1        0.0985
     10 N          -7.2284  -17.0123   22.7668 N.ar    1  UNL1       -0.2471
     11 C          -8.1657  -17.9325   23.4913 C.ar    1  UNL1        0.0695
     12 C          -8.1903  -19.7813   20.4669 C.3     1  UNL1        0.0725
     13 C          -9.5332  -19.1398   20.2787 C.3     1  UNL1        0.0188
     14 C         -10.7835  -19.9383   20.5001 C.3     1  UNL1        0.0188
     15 C         -11.6646  -19.6412   21.6770 C.3     1  UNL1        0.0721
     16 C         -13.0237  -17.9383   23.0924 C.3     1  UNL1        0.0896
     17 N         -12.0592  -18.2261   21.9803 N.3     1  UNL1       -0.2728
     18 C         -11.4893  -17.0988   21.1713 C.3     1  UNL1        0.0579
     19 C         -11.9931  -16.8433   19.7817 C.3     1  UNL1        0.0216
     20 C         -11.4232  -15.7160   18.9727 C.3     1  UNL1        0.0679
     21 C         -10.3495  -14.8443   19.5533 C.3     1  UNL1        0.2640
     22 F          -9.3274  -13.7520   19.6647 F       1  UNL1       -0.2043
     23 F         -10.4984  -14.2094   18.2024 F       1  UNL1       -0.2043
     24 C          -9.8456  -15.0998   20.9429 C.3     1  UNL1        0.0679
     25 C         -10.4155  -16.2270   21.7519 C.3     1  UNL1        0.0216
     26 C          -6.1908  -20.3981   22.0067 C.3     1  UNL1        0.0886
     27 C          -4.9973  -19.5029   21.8508 C.3     1  UNL1        0.0764
     28 C          -4.1989  -19.5317   20.5813 C.3     1  UNL1        0.0626
     29 C          -3.0053  -18.6366   20.4254 C.ar    1  UNL1        0.0577
     30 N          -2.2069  -18.6654   19.1559 N.ar    1  UNL1       -0.2484
     31 C          -1.0135  -17.7702   19.0001 C.ar    1  UNL1        0.0984
     32 C          -0.6185  -16.8462   20.1137 C.ar    1  UNL1        0.0204
     33 C          -1.4169  -16.8174   21.3832 C.ar    1  UNL1       -0.0002
     34 C          -2.6103  -17.7126   21.5391 C.ar    1  UNL1        0.0073
     35 C          -3.4088  -17.6838   22.8086 C.3     1  UNL1        0.0968
     36 N          -4.6022  -18.5789   22.9645 N.3     1  UNL1       -0.2934
     37 H          -5.4033  -17.9732   23.1427 H       1  UNL1        0.1236
@<TRIPOS>BOND
     1    16    17    1
     2    17    15    1
     3    15    14    1
     4    14    13    1
     5    13    12    1
     6    12     1    1
     7     1    26    1
     8    27    26    1
     9    27    28    1
    10    28    29    1
    11    29    30   ar
    12    30    31   ar
    13    31    32   ar
    14    32    33   ar
    15    33    34   ar
    16    34    35    1
    17    35    36    1
    18     2     1    1
    19     2     3    1
    20     3     4    1
    21     4     5    1
    22     5     6    1
    23     6     7   ar
    24     7     8   ar
    25     8     9   ar
    26     9    10   ar
    27    10    11   ar
    28    17    18    1
    29    18    19    1
    30    19    20    1
    31    20    21    1
    32    21    22    1
    33    21    23    1
    34    21    24    1
    35    24    25    1
    36    36    27    1
    37    11     2    1
    38    25    18    1
    39    34    29   ar
    40    11     6   ar
    41    36    37    1
@<TRIPOS>MOLECULE
*****
 37 41 0 0 0
SMALL
GASTEIGER

@<TRIPOS>ATOM
      1 N          -8.9122  -17.9336   21.3581 N.3     1  UNL1       -0.2679
      2 C         -10.3470  -17.4965   21.3419 C.3     1  UNL1        0.0978
      3 C         -10.8721  -16.6891   20.1919 C.3     1  UNL1        0.0224
      4 C         -12.3069  -16.2520   20.1757 C.3     1  UNL1        0.0065
      5 C         -13.2166  -16.6222   21.3094 C.3     1  UNL1        0.0277
      6 C         -12.6915  -17.4295   22.4594 C.ar    1  UNL1       -0.0073
      7 C         -13.6012  -17.7997   23.5932 C.ar    1  UNL1       -0.0015
      8 C         -13.0761  -18.6070   24.7432 C.ar    1  UNL1        0.0203
      9 C         -11.6413  -19.0442   24.7594 C.ar    1  UNL1        0.0985
     10 N         -10.7316  -18.6740   23.6257 N.ar    1  UNL1       -0.2471
     11 C         -11.2567  -17.8666   22.4756 C.ar    1  UNL1        0.0695
     12 C          -8.5708  -19.3905   21.2540 C.3     1  UNL1        0.0725
     13 C          -7.8217  -20.0665   22.3640 C.3     1  UNL1        0.0188
     14 C          -6.4587  -20.6387   22.1092 C.3     1  UNL1        0.0188
     15 C          -5.2616  -19.7358   22.0704 C.3     1  UNL1        0.0721
     16 C          -4.4136  -20.9368   19.9283 C.3     1  UNL1        0.0896
     17 N          -4.2856  -19.8326   20.9354 N.3     1  UNL1       -0.2728
     18 C          -3.1816  -18.8252   20.8076 C.3     1  UNL1        0.0579
     19 C          -3.1186  -17.6582   21.7478 C.3     1  UNL1        0.0216
     20 C          -2.0146  -16.6508   21.6200 C.3     1  UNL1        0.0679
     21 C          -0.9736  -16.8104   20.5520 C.3     1  UNL1        0.2640
     22 F           0.2351  -16.5310   19.7087 F       1  UNL1       -0.2043
     23 F          -0.4909  -15.5463   21.1994 F       1  UNL1       -0.2043
     24 C          -1.0366  -17.9774   19.6116 C.3     1  UNL1        0.0679
     25 C          -2.1405  -18.9848   19.7394 C.3     1  UNL1        0.0216
     26 C          -7.8188  -16.9139   21.4784 C.3     1  UNL1        0.0886
     27 C          -7.3516  -16.4714   22.8335 C.3     1  UNL1        0.0764
     28 C          -8.3513  -16.1778   23.9125 C.3     1  UNL1        0.0626
     29 C          -7.8842  -15.7353   25.2675 C.ar    1  UNL1        0.0577
     30 N          -8.8839  -15.4417   26.3466 N.ar    1  UNL1       -0.2484
     31 C          -8.4167  -14.9993   27.7015 C.ar    1  UNL1        0.0984
     32 C          -6.9498  -14.8504   27.9774 C.ar    1  UNL1        0.0204
     33 C          -5.9501  -15.1440   26.8984 C.ar    1  UNL1       -0.0002
     34 C          -6.4173  -15.5865   25.5434 C.ar    1  UNL1        0.0073
     35 C          -5.4176  -15.8801   24.4643 C.3     1  UNL1        0.0968
     36 N          -5.8848  -16.3226   23.1094 N.3     1  UNL1       -0.2934
     37 H          -5.4583  -17.2322   22.9334 H       1  UNL1        0.1236
@<TRIPOS>BOND
     1    16    17    1
     2    17    15    1
     3    15    14    1
     4    14    13    1
     5    13    12    1
     6    12     1    1
     7     1    26    1
     8    27    26    1
     9    27    28    1
    10    28    29    1
    11    29    30   ar
    12    30    31   ar
    13    31    32   ar
    14    32    33   ar
    15    33    34   ar
    16    34    35    1
    17    35    36    1
    18     2     1    1
    19     2     3    1
    20     3     4    1
    21     4     5    1
    22     5     6    1
    23     6     7   ar
    24     7     8   ar
    25     8     9   ar
    26     9    10   ar
    27    10    11   ar
    28    17    18    1
    29    18    19    1
    30    19    20    1
    31    20    21    1
    32    21    22    1
    33    21    23    1
    34    21    24    1
    35    24    25    1
    36    36    27    1
    37    11     2    1
    38    25    18    1
    39    34    29   ar
    40    11     6   ar
    41    36    37    1
@<TRIPOS>MOLECULE
*****
 37 41 0 0 0
SMALL
GASTEIGER

@<TRIPOS>ATOM
      1 N          -5.0569  -18.1693   22.7367 N.3     1  UNL1       -0.2679
      2 C          -4.3688  -18.7759   21.5498 C.3     1  UNL1        0.0978
      3 C          -4.9528  -19.9851   20.8814 C.3     1  UNL1        0.0224
      4 C          -4.2647  -20.5917   19.6945 C.3     1  UNL1        0.0065
      5 C          -2.9927  -19.9891   19.1761 C.3     1  UNL1        0.0277
      6 C          -2.4087  -18.7800   19.8445 C.ar    1  UNL1       -0.0073
      7 C          -1.1366  -18.1773   19.3261 C.ar    1  UNL1       -0.0015
      8 C          -0.5526  -16.9682   19.9946 C.ar    1  UNL1        0.0203
      9 C          -1.2407  -16.3616   21.1814 C.ar    1  UNL1        0.0985
     10 N          -2.5127  -16.9641   21.6998 N.ar    1  UNL1       -0.2471
     11 C          -3.0968  -18.1734   21.0314 C.ar    1  UNL1        0.0695
     12 C          -4.4105  -17.0392   23.4816 C.3     1  UNL1        0.0725
     13 C          -5.1699  -15.7681   23.7222 C.3     1  UNL1        0.0188
     14 C          -5.7941  -15.5094   25.0614 C.3     1  UNL1        0.0188
     15 C          -7.2496  -15.1593   25.1552 C.3     1  UNL1        0.0721
     16 C          -8.0085  -16.2103   27.4068 C.3     1  UNL1        0.0896
     17 N          -8.1852  -16.0422   25.9268 N.3     1  UNL1       -0.2728
     18 C          -9.2974  -16.7571   25.2183 C.3     1  UNL1        0.0579
     19 C         -10.2107  -16.0001   24.3003 C.3     1  UNL1        0.0216
     20 C         -11.3229  -16.7149   23.5918 C.3     1  UNL1        0.0679
     21 C         -11.5218  -18.1868   23.8013 C.3     1  UNL1        0.2640
     22 F         -12.1087  -19.5616   23.6770 F       1  UNL1       -0.2043
     23 F         -12.6389  -17.9072   22.8400 F       1  UNL1       -0.2043
     24 C         -10.6085  -18.9439   24.7193 C.3     1  UNL1        0.0679
     25 C          -9.4963  -18.2291   25.4279 C.3     1  UNL1        0.0216
     26 C          -6.3912  -18.6929   23.1785 C.3     1  UNL1        0.0886
     27 C          -7.6042  -18.4713   22.3243 C.3     1  UNL1        0.0764
     28 C          -8.0302  -17.0764   21.9741 C.3     1  UNL1        0.0626
     29 C          -9.2432  -16.8548   21.1198 C.ar    1  UNL1        0.0577
     30 N          -9.6692  -15.4598   20.7696 N.ar    1  UNL1       -0.2484
     31 C         -10.8821  -15.2383   19.9154 C.ar    1  UNL1        0.0984
     32 C         -11.6690  -16.4117   19.4114 C.ar    1  UNL1        0.0204
     33 C         -11.2430  -17.8066   19.7616 C.ar    1  UNL1       -0.0002
     34 C         -10.0301  -18.0281   20.6158 C.ar    1  UNL1        0.0073
     35 C          -9.6040  -19.4231   20.9660 C.3     1  UNL1        0.0968
     36 N          -8.3911  -19.6446   21.8203 N.3     1  UNL1       -0.2934
     37 H          -7.7477  -20.2183   21.2750 H       1  UNL1        0.1236
@<TRIPOS>BOND
     1    16    17    1
     2    17    15    1
     3    15    14    1
     4    14    13    1
     5    13    12    1
     6    12     1    1
     7     1    26    1
     8    27    26    1
     9    27    28    1
    10    28    29    1
    11    29    30   ar
    12    30    31   ar
    13    31    32   ar
    14    32    33   ar
    15    33    34   ar
    16    34    35    1
    17    35    36    1
    18     2     1    1
    19     2     3    1
    20     3     4    1
    21     4     5    1
    22     5     6    1
    23     6     7   ar
    24     7     8   ar
    25     8     9   ar
    26     9    10   ar
    27    10    11   ar
    28    17    18    1
    29    18    19    1
    30    19    20    1
    31    20    21    1
    32    21    22    1
    33    21    23    1
    34    21    24    1
    35    24    25    1
    36    36    27    1
    37    11     2    1
    38    25    18    1
    39    34    29   ar
    40    11     6   ar
    41    36    37    1
@<TRIPOS>MOLECULE
*****
 37 41 0 0 0
SMALL
GASTEIGER

@<TRIPOS>ATOM
      1 N           7.1523   -3.9617   23.7322 N.3     1  UNL1       -0.2679
      2 C           7.6120   -5.2022   24.4392 C.3     1  UNL1        0.0978
      3 C           8.2735   -6.3045   23.6663 C.3     1  UNL1        0.0224
      4 C           8.7332   -7.5450   24.3733 C.3     1  UNL1        0.0065
      5 C           8.5314   -7.6832   25.8532 C.3     1  UNL1        0.0277
      6 C           7.8698   -6.5810   26.6261 C.ar    1  UNL1       -0.0073
      7 C           7.6679   -6.7192   28.1061 C.ar    1  UNL1       -0.0015
      8 C           7.0064   -5.6170   28.8789 C.ar    1  UNL1        0.0203
      9 C           6.5467   -4.3765   28.1719 C.ar    1  UNL1        0.0985
     10 N           6.7486   -4.2382   26.6921 N.ar    1  UNL1       -0.2471
     11 C           7.4102   -5.3405   25.9191 C.ar    1  UNL1        0.0695
     12 C           8.0782   -2.7895   23.5957 C.3     1  UNL1        0.0725
     13 C           8.4118   -2.2517   22.2357 C.3     1  UNL1        0.0188
     14 C           7.6994   -1.0395   21.7132 C.3     1  UNL1        0.0188
     15 C           7.9013   -0.6058   20.2915 C.3     1  UNL1        0.0721
     16 C           6.5086    0.5793   18.4460 C.3     1  UNL1        0.0896
     17 N           6.7446   -0.6045   19.3363 N.3     1  UNL1       -0.2728
     18 C           5.8241   -1.7871   19.2716 C.3     1  UNL1        0.0579
     19 C           4.3655   -1.5873   18.9847 C.3     1  UNL1        0.0216
     20 C           3.4450   -2.7699   18.9200 C.3     1  UNL1        0.0679
     21 C           3.9832   -4.1523   19.1421 C.3     1  UNL1        0.2640
     22 F           4.0191   -5.6454   19.2814 F       1  UNL1       -0.2043
     23 F           2.5369   -4.4710   18.9036 F       1  UNL1       -0.2043
     24 C           5.4419   -4.3521   19.4290 C.3     1  UNL1        0.0679
     25 C           6.3624   -3.1695   19.4938 C.3     1  UNL1        0.0216
     26 C           5.7668   -3.8934   23.1617 C.3     1  UNL1        0.0886
     27 C           4.8526   -2.7674   23.5448 C.3     1  UNL1        0.0764
     28 C           4.0409   -2.0698   22.4939 C.3     1  UNL1        0.0626
     29 C           3.1268   -0.9438   22.8770 C.ar    1  UNL1        0.0577
     30 N           2.3151   -0.2462   21.8261 N.ar    1  UNL1       -0.2484
     31 C           1.4010    0.8797   22.2092 C.ar    1  UNL1        0.0984
     32 C           1.2986    1.3079   23.6431 C.ar    1  UNL1        0.0204
     33 C           2.1103    0.6102   24.6940 C.ar    1  UNL1       -0.0002
     34 C           3.0244   -0.5156   24.3109 C.ar    1  UNL1        0.0073
     35 C           3.8361   -1.2134   25.3618 C.3     1  UNL1        0.0968
     36 N           4.7502   -2.3393   24.9787 N.3     1  UNL1       -0.2934
     37 H           4.4490   -3.1567   25.5093 H       1  UNL1        0.1236
@<TRIPOS>BOND
     1    16    17    1
     2    17    15    1
     3    15    14    1
     4    14    13    1
     5    13    12    1
     6    12     1    1
     7     1    26    1
     8    27    26    1
     9    27    28    1
    10    28    29    1
    11    29    30   ar
    12    30    31   ar
    13    31    32   ar
    14    32    33   ar
    15    33    34   ar
    16    34    35    1
    17    35    36    1
    18     2     1    1
    19     2     3    1
    20     3     4    1
    21     4     5    1
    22     5     6    1
    23     6     7   ar
    24     7     8   ar
    25     8     9   ar
    26     9    10   ar
    27    10    11   ar
    28    17    18    1
    29    18    19    1
    30    19    20    1
    31    20    21    1
    32    21    22    1
    33    21    23    1
    34    21    24    1
    35    24    25    1
    36    36    27    1
    37    11     2    1
    38    25    18    1
    39    34    29   ar
    40    11     6   ar
    41    36    37    1
@<TRIPOS>MOLECULE
*****
 37 41 0 0 0
SMALL
GASTEIGER

@<TRIPOS>ATOM
      1 N          -8.2380  -18.7986   21.5530 N.3     1  UNL1       -0.2679
      2 C          -9.5476  -18.7076   22.2788 C.3     1  UNL1        0.0978
      3 C          -9.7619  -19.4903   23.5403 C.3     1  UNL1        0.0224
      4 C         -11.0715  -19.3992   24.2661 C.3     1  UNL1        0.0065
      5 C         -12.1667  -18.5254   23.7304 C.3     1  UNL1        0.0277
      6 C         -11.9523  -17.7427   22.4689 C.ar    1  UNL1       -0.0073
      7 C         -13.0476  -16.8689   21.9331 C.ar    1  UNL1       -0.0015
      8 C         -12.8332  -16.0862   20.6716 C.ar    1  UNL1        0.0203
      9 C         -11.5236  -16.1772   19.9459 C.ar    1  UNL1        0.0985
     10 N         -10.4284  -17.0510   20.4816 N.ar    1  UNL1       -0.2471
     11 C         -10.6428  -17.8338   21.7431 C.ar    1  UNL1        0.0695
     12 C          -7.8810  -20.0481   20.8039 C.3     1  UNL1        0.0725
     13 C          -6.5965  -20.7620   21.1049 C.3     1  UNL1        0.0188
     14 C          -5.6432  -21.0908   19.9945 C.3     1  UNL1        0.0188
     15 C          -4.1950  -20.7189   20.1146 C.3     1  UNL1        0.0721
     16 C          -4.4085  -19.7995   22.5352 C.3     1  UNL1        0.0896
     17 N          -3.7511  -19.7690   21.1873 N.3     1  UNL1       -0.2728
     18 C          -2.6497  -18.7885   20.9120 C.3     1  UNL1        0.0579
     19 C          -2.7090  -17.4096   21.4993 C.3     1  UNL1        0.0216
     20 C          -1.6076  -16.4292   21.2240 C.3     1  UNL1        0.0679
     21 C          -0.4470  -16.8277   20.3614 C.3     1  UNL1        0.2640
     22 F           0.8495  -16.7363   19.6125 F       1  UNL1       -0.2043
     23 F          -0.0560  -15.4170   20.6886 F       1  UNL1       -0.2043
     24 C          -0.3876  -18.2067   19.7741 C.3     1  UNL1        0.0679
     25 C          -1.4890  -19.1872   20.0494 C.3     1  UNL1        0.0216
     26 C          -7.2855  -17.6402   21.5764 C.3     1  UNL1        0.0886
     27 C          -6.9390  -16.9801   22.8781 C.3     1  UNL1        0.0764
     28 C          -8.0144  -16.6957   23.8843 C.3     1  UNL1        0.0626
     29 C          -7.6679  -16.0356   25.1860 C.ar    1  UNL1        0.0577
     30 N          -8.7433  -15.7512   26.1923 N.ar    1  UNL1       -0.2484
     31 C          -8.3969  -15.0912   27.4939 C.ar    1  UNL1        0.0984
     32 C          -6.9750  -14.7156   27.7893 C.ar    1  UNL1        0.0204
     33 C          -5.8996  -15.0000   26.7830 C.ar    1  UNL1       -0.0002
     34 C          -6.2461  -15.6600   25.4814 C.ar    1  UNL1        0.0073
     35 C          -5.1707  -15.9445   24.4750 C.3     1  UNL1        0.0968
     36 N          -5.5172  -16.6045   23.1734 N.3     1  UNL1       -0.2934
     37 H          -4.9693  -17.4635   23.1239 H       1  UNL1        0.1236
@<TRIPOS>BOND
     1    16    17    1
     2    17    15    1
     3    15    14    1
     4    14    13    1
     5    13    12    1
     6    12     1    1
     7     1    26    1
     8    27    26    1
     9    27    28    1
    10    28    29    1
    11    29    30   ar
    12    30    31   ar
    13    31    32   ar
    14    32    33   ar
    15    33    34   ar
    16    34    35    1
    17    35    36    1
    18     2     1    1
    19     2     3    1
    20     3     4    1
    21     4     5    1
    22     5     6    1
    23     6     7   ar
    24     7     8   ar
    25     8     9   ar
    26     9    10   ar
    27    10    11   ar
    28    17    18    1
    29    18    19    1
    30    19    20    1
    31    20    21    1
    32    21    22    1
    33    21    23    1
    34    21    24    1
    35    24    25    1
    36    36    27    1
    37    11     2    1
    38    25    18    1
    39    34    29   ar
    40    11     6   ar
    41    36    37    1
@<TRIPOS>MOLECULE
*****
 37 41 0 0 0
SMALL
GASTEIGER

@<TRIPOS>ATOM
      1 N          -8.1917  -18.7595   22.6653 N.3     1  UNL1       -0.2679
      2 C          -7.9417  -17.3549   23.1285 C.3     1  UNL1        0.0978
      3 C          -7.4590  -16.3193   22.1566 C.3     1  UNL1        0.0224
      4 C          -7.2091  -14.9147   22.6198 C.3     1  UNL1        0.0065
      5 C          -7.4419  -14.5456   24.0549 C.3     1  UNL1        0.0277
      6 C          -7.9247  -15.5811   25.0267 C.ar    1  UNL1       -0.0073
      7 C          -8.1576  -15.2120   26.4619 C.ar    1  UNL1       -0.0015
      8 C          -8.6403  -16.2475   27.4338 C.ar    1  UNL1        0.0203
      9 C          -8.8903  -17.6522   26.9706 C.ar    1  UNL1        0.0985
     10 N          -8.6574  -18.0213   25.5355 N.ar    1  UNL1       -0.2471
     11 C          -8.1746  -16.9857   24.5635 C.ar    1  UNL1        0.0695
     12 C          -9.5914  -19.2178   22.3815 C.3     1  UNL1        0.0725
     13 C         -10.1475  -20.4152   23.0936 C.3     1  UNL1        0.0188
     14 C         -11.1877  -20.2377   24.1596 C.3     1  UNL1        0.0188
     15 C         -11.5996  -18.8591   24.5833 C.3     1  UNL1        0.0721
     16 C         -14.0526  -18.1012   24.1847 C.3     1  UNL1        0.0896
     17 N         -12.6091  -18.0968   23.7770 N.3     1  UNL1       -0.2728
     18 C         -12.1750  -17.3303   22.5629 C.3     1  UNL1        0.0579
     19 C         -12.7458  -17.6696   21.2180 C.3     1  UNL1        0.0216
     20 C         -12.3117  -16.9031   20.0039 C.3     1  UNL1        0.0679
     21 C         -11.3067  -15.7973   20.1348 C.3     1  UNL1        0.2640
     22 F         -10.3892  -14.6738   19.7524 F       1  UNL1       -0.2043
     23 F         -11.5590  -15.7464   18.6570 F       1  UNL1       -0.2043
     24 C         -10.7357  -15.4580   21.4798 C.3     1  UNL1        0.0679
     25 C         -11.1699  -16.2245   22.6938 C.3     1  UNL1        0.0216
     26 C          -7.0418  -19.7058   22.4858 C.3     1  UNL1        0.0886
     27 C          -5.6754  -19.1743   22.1687 C.3     1  UNL1        0.0764
     28 C          -5.1524  -19.2402   20.7644 C.3     1  UNL1        0.0626
     29 C          -3.7860  -18.7086   20.4472 C.ar    1  UNL1        0.0577
     30 N          -3.2630  -18.7745   19.0429 N.ar    1  UNL1       -0.2484
     31 C          -1.8967  -18.2430   18.7258 C.ar    1  UNL1        0.0984
     32 C          -1.0534  -17.6456   19.8130 C.ar    1  UNL1        0.0204
     33 C          -1.5764  -17.5797   21.2173 C.ar    1  UNL1       -0.0002
     34 C          -2.9427  -18.1112   21.5344 C.ar    1  UNL1        0.0073
     35 C          -3.4658  -18.0453   22.9387 C.3     1  UNL1        0.0968
     36 N          -4.8321  -18.5768   23.2558 N.3     1  UNL1       -0.2934
     37 H          -5.3654  -17.8018   23.6498 H       1  UNL1        0.1236
@<TRIPOS>BOND
     1    16    17    1
     2    17    15    1
     3    15    14    1
     4    14    13    1
     5    13    12    1
     6    12     1    1
     7     1    26    1
     8    27    26    1
     9    27    28    1
    10    28    29    1
    11    29    30   ar
    12    30    31   ar
    13    31    32   ar
    14    32    33   ar
    15    33    34   ar
    16    34    35    1
    17    35    36    1
    18     2     1    1
    19     2     3    1
    20     3     4    1
    21     4     5    1
    22     5     6    1
    23     6     7   ar
    24     7     8   ar
    25     8     9   ar
    26     9    10   ar
    27    10    11   ar
    28    17    18    1
    29    18    19    1
    30    19    20    1
    31    20    21    1
    32    21    22    1
    33    21    23    1
    34    21    24    1
    35    24    25    1
    36    36    27    1
    37    11     2    1
    38    25    18    1
    39    34    29   ar
    40    11     6   ar
    41    36    37    1
