@<TRIPOS>MOLECULE
*****
 31 36 0 0 0
SMALL
GASTEIGER

@<TRIPOS>ATOM
      1 O           7.3320   -6.4543   30.9125 O.2     1  UNL1       -0.2638
      2 C           7.0031   -5.2496   30.0815 C.2     1  UNL1        0.3160
      3 N           6.8956   -5.3735   28.5906 N.am    1  UNL1       -0.1720
      4 C           6.5667   -4.1687   27.7596 C.ar    1  UNL1        0.0775
      5 C           6.4592   -4.2926   26.2686 C.ar    1  UNL1        0.0167
      6 C           6.1303   -3.0879   25.4377 C.ar    1  UNL1        0.0013
      7 C           5.9089   -1.7593   26.0978 C.ar    1  UNL1        0.0002
      8 C           6.0163   -1.6354   27.5888 C.ar    1  UNL1        0.0051
      9 C           6.3452   -2.8401   28.4197 C.ar    1  UNL1        0.0623
     10 C           6.4527   -2.7162   29.9107 C.2     1  UNL1        0.2419
     11 N           6.2885   -1.5464   30.8350 N.2     1  UNL1       -0.0302
     12 C           6.5160   -2.0281   32.2373 C.2     1  UNL1        0.3765
     13 N           6.8207   -3.4956   32.1795 N.2     1  UNL1       -0.0256
     14 C           6.7816   -3.9209   30.7416 C.2     1  UNL1        0.2907
     15 C           6.0228   -3.2118   23.9467 C.ar    1  UNL1        0.0000
     16 C           7.0789   -3.9484   23.1772 C.ar    1  UNL1        0.0000
     17 C           6.9714   -4.0723   21.6863 C.ar    1  UNL1        0.0000
     18 C           5.8078   -3.4595   20.9646 C.ar    1  UNL1        0.0000
     19 C           5.7004   -3.5834   19.4737 C.ar    1  UNL1        0.0000
     20 C           4.5369   -2.9707   18.7521 C.ar    1  UNL1        0.0000
     21 C           3.4808   -2.2340   19.5216 C.ar    1  UNL1        0.0000
     22 C           3.5882   -2.1101   21.0125 C.ar    1  UNL1        0.0000
     23 C           4.7518   -2.7229   21.7341 C.ar    1  UNL1        0.0000
     24 C           4.8592   -2.5990   23.2251 C.ar    1  UNL1        0.0000
     25 C           6.4502   -1.1894   33.4792 C.ar    1  UNL1        0.0989
     26 C           7.6189   -0.3340   33.8694 C.ar    1  UNL1        0.0085
     27 C           7.5531    0.5046   35.1113 C.ar    1  UNL1        0.0003
     28 C           6.3185    0.4878   35.9630 C.ar    1  UNL1        0.0009
     29 C           5.1498   -0.3676   35.5729 C.ar    1  UNL1        0.0116
     30 C           5.2156   -1.2062   34.3310 C.ar    1  UNL1        0.0651
     31 CL          4.0468   -2.0617   33.9408 Cl      1  UNL1       -0.0820
@<TRIPOS>BOND
     1     1     2    2
     2     2     3    1
     3     3     4    2
     4     4     5   ar
     5     5     6   ar
     6     6    15    1
     7    15    16   ar
     8    16    17   ar
     9    17    18   ar
    10    18    19   ar
    11    19    20   ar
    12    20    21   ar
    13    21    22   ar
    14    22    23   ar
    15    23    24   ar
    16     6     7   ar
    17     7     8   ar
    18     8     9   ar
    19     9    10    2
    20    10    11    1
    21    11    12    2
    22    12    25    1
    23    25    26   ar
    24    26    27   ar
    25    27    28   ar
    26    28    29   ar
    27    29    30   ar
    28    30    31    1
    29    12    13    1
    30    13    14    2
    31    14     2    1
    32     9     4   ar
    33    14    10    1
    34    24    15   ar
    35    30    25   ar
    36    23    18   ar
@<TRIPOS>MOLECULE
*****
 31 36 0 0 0
SMALL
GASTEIGER

@<TRIPOS>ATOM
      1 O           3.5204   -1.0468   32.8348 O.2     1  UNL1       -0.2638
      2 C           3.1526   -0.3386   31.5645 C.2     1  UNL1        0.3160
      3 N           3.4782   -0.9594   30.2385 N.am    1  UNL1       -0.1720
      4 C           3.1103   -0.2513   28.9683 C.ar    1  UNL1        0.0775
      5 C           3.4359   -0.8721   27.6422 C.ar    1  UNL1        0.0167
      6 C           3.0681   -0.1640   26.3721 C.ar    1  UNL1        0.0013
      7 C           2.3747    1.1649   26.4280 C.ar    1  UNL1        0.0002
      8 C           2.0492    1.7858   27.7541 C.ar    1  UNL1        0.0051
      9 C           2.4170    1.0776   29.0242 C.ar    1  UNL1        0.0623
     10 C           2.0914    1.6984   30.3504 C.2     1  UNL1        0.2419
     11 N           1.4182    2.9878   30.7167 N.2     1  UNL1       -0.0302
     12 C           1.3700    3.0766   32.2134 C.2     1  UNL1        0.3765
     13 N           2.0133    1.8421   32.7719 N.2     1  UNL1       -0.0256
     14 C           2.4592    0.9903   31.6205 C.2     1  UNL1        0.2907
     15 C           3.3937   -0.7848   25.0459 C.ar    1  UNL1        0.0000
     16 C           4.4562   -1.8394   24.9521 C.ar    1  UNL1        0.0000
     17 C           4.7818   -2.4602   23.6260 C.ar    1  UNL1        0.0000
     18 C           4.0449   -2.0264   22.3936 C.ar    1  UNL1        0.0000
     19 C           4.3705   -2.6472   21.0675 C.ar    1  UNL1        0.0000
     20 C           3.6335   -2.2134   19.8352 C.ar    1  UNL1        0.0000
     21 C           2.5710   -1.1588   19.9290 C.ar    1  UNL1        0.0000
     22 C           2.2454   -0.5380   21.2551 C.ar    1  UNL1        0.0000
     23 C           2.9823   -0.9718   22.4874 C.ar    1  UNL1        0.0000
     24 C           2.6568   -0.3510   23.8136 C.ar    1  UNL1        0.0000
     25 C           0.7817    4.2024   33.0113 C.ar    1  UNL1        0.0989
     26 C          -0.5763    4.7373   32.6653 C.ar    1  UNL1        0.0085
     27 C          -1.1645    5.8630   33.4633 C.ar    1  UNL1        0.0003
     28 C          -0.3948    6.4537   34.6072 C.ar    1  UNL1        0.0009
     29 C           0.9631    5.9188   34.9532 C.ar    1  UNL1        0.0116
     30 C           1.5514    4.7931   34.1552 C.ar    1  UNL1        0.0651
     31 CL          2.9094    4.2582   34.5012 Cl      1  UNL1       -0.0820
@<TRIPOS>BOND
     1     1     2    2
     2     2     3    1
     3     3     4    2
     4     4     5   ar
     5     5     6   ar
     6     6    15    1
     7    15    16   ar
     8    16    17   ar
     9    17    18   ar
    10    18    19   ar
    11    19    20   ar
    12    20    21   ar
    13    21    22   ar
    14    22    23   ar
    15    23    24   ar
    16     6     7   ar
    17     7     8   ar
    18     8     9   ar
    19     9    10    2
    20    10    11    1
    21    11    12    2
    22    12    25    1
    23    25    26   ar
    24    26    27   ar
    25    27    28   ar
    26    28    29   ar
    27    29    30   ar
    28    30    31    1
    29    12    13    1
    30    13    14    2
    31    14     2    1
    32     9     4   ar
    33    14    10    1
    34    24    15   ar
    35    30    25   ar
    36    23    18   ar
@<TRIPOS>MOLECULE
*****
 31 36 0 0 0
SMALL
GASTEIGER

@<TRIPOS>ATOM
      1 O           8.7184   -4.5074   30.2049 O.2     1  UNL1       -0.2638
      2 C           7.6528   -3.5572   29.7448 C.2     1  UNL1        0.3160
      3 N           7.2280   -3.5462   28.3063 N.am    1  UNL1       -0.1720
      4 C           6.1624   -2.5959   27.8461 C.ar    1  UNL1        0.0775
      5 C           5.7376   -2.5849   26.4076 C.ar    1  UNL1        0.0167
      6 C           4.6720   -1.6347   25.9476 C.ar    1  UNL1        0.0013
      7 C           4.0313   -0.6955   26.9260 C.ar    1  UNL1        0.0002
      8 C           4.4561   -0.7066   28.3646 C.ar    1  UNL1        0.0051
      9 C           5.5216   -1.6568   28.8246 C.ar    1  UNL1        0.0623
     10 C           5.9465   -1.6678   30.2632 C.2     1  UNL1        0.2419
     11 N           5.4986   -0.8646   31.4481 N.2     1  UNL1       -0.0302
     12 C           6.2874   -1.3183   32.6406 C.2     1  UNL1        0.3765
     13 N           7.2227   -2.4020   32.1926 N.2     1  UNL1       -0.0256
     14 C           7.0120   -2.6180   30.7232 C.2     1  UNL1        0.2907
     15 C           4.2472   -1.6236   24.5090 C.ar    1  UNL1        0.0000
     16 C           3.3651   -0.5242   23.9959 C.ar    1  UNL1        0.0000
     17 C           2.9403   -0.5131   22.5574 C.ar    1  UNL1        0.0000
     18 C           3.3975   -1.6015   21.6319 C.ar    1  UNL1        0.0000
     19 C           2.9726   -1.5904   20.1934 C.ar    1  UNL1        0.0000
     20 C           3.4298   -2.6787   19.2680 C.ar    1  UNL1        0.0000
     21 C           4.3119   -3.7781   19.7810 C.ar    1  UNL1        0.0000
     22 C           4.7367   -3.7892   21.2195 C.ar    1  UNL1        0.0000
     23 C           4.2795   -2.7009   22.1450 C.ar    1  UNL1        0.0000
     24 C           4.7044   -2.7120   23.5835 C.ar    1  UNL1        0.0000
     25 C           6.1627   -0.7825   34.0361 C.ar    1  UNL1        0.0989
     26 C           4.8548   -0.8822   34.7637 C.ar    1  UNL1        0.0085
     27 C           4.7301   -0.3463   36.1591 C.ar    1  UNL1        0.0003
     28 C           5.9134    0.2893   36.8269 C.ar    1  UNL1        0.0009
     29 C           7.2213    0.3890   36.0993 C.ar    1  UNL1        0.0116
     30 C           7.3459   -0.1469   34.7039 C.ar    1  UNL1        0.0651
     31 CL          8.6538   -0.0472   33.9762 Cl      1  UNL1       -0.0820
@<TRIPOS>BOND
     1     1     2    2
     2     2     3    1
     3     3     4    2
     4     4     5   ar
     5     5     6   ar
     6     6    15    1
     7    15    16   ar
     8    16    17   ar
     9    17    18   ar
    10    18    19   ar
    11    19    20   ar
    12    20    21   ar
    13    21    22   ar
    14    22    23   ar
    15    23    24   ar
    16     6     7   ar
    17     7     8   ar
    18     8     9   ar
    19     9    10    2
    20    10    11    1
    21    11    12    2
    22    12    25    1
    23    25    26   ar
    24    26    27   ar
    25    27    28   ar
    26    28    29   ar
    27    29    30   ar
    28    30    31    1
    29    12    13    1
    30    13    14    2
    31    14     2    1
    32     9     4   ar
    33    14    10    1
    34    24    15   ar
    35    30    25   ar
    36    23    18   ar
@<TRIPOS>MOLECULE
*****
 31 36 0 0 0
SMALL
GASTEIGER

@<TRIPOS>ATOM
      1 O           0.2109    3.1215   29.0677 O.2     1  UNL1       -0.2638
      2 C           1.1843    2.0745   28.6133 C.2     1  UNL1        0.3160
      3 N           1.2796    1.7196   27.1591 N.am    1  UNL1       -0.1720
      4 C           2.2530    0.6727   26.7047 C.ar    1  UNL1        0.0775
      5 C           2.3482    0.3178   25.2505 C.ar    1  UNL1        0.0167
      6 C           3.3216   -0.7292   24.7962 C.ar    1  UNL1        0.0013
      7 C           4.1998   -1.4212   25.7962 C.ar    1  UNL1        0.0002
      8 C           4.1045   -1.0663   27.2504 C.ar    1  UNL1        0.0051
      9 C           3.1311   -0.0194   27.7047 C.ar    1  UNL1        0.0623
     10 C           3.0358    0.3356   29.1590 C.2     1  UNL1        0.2419
     11 N           3.7665   -0.1731   30.3662 N.2     1  UNL1       -0.0302
     12 C           3.2447    0.5595   31.5667 C.2     1  UNL1        0.3765
     13 N           2.1915    1.5209   31.1013 N.2     1  UNL1       -0.0256
     14 C           2.0624    1.3825   29.6133 C.2     1  UNL1        0.2907
     15 C           3.4169   -1.0841   23.3419 C.ar    1  UNL1        0.0000
     16 C           2.6777   -0.2705   22.3213 C.ar    1  UNL1        0.0000
     17 C           2.7729   -0.6254   20.8670 C.ar    1  UNL1        0.0000
     18 C           3.6075   -1.7939   20.4333 C.ar    1  UNL1        0.0000
     19 C           3.7028   -2.1488   18.9790 C.ar    1  UNL1        0.0000
     20 C           4.5373   -3.3173   18.5453 C.ar    1  UNL1        0.0000
     21 C           5.2766   -4.1309   19.5659 C.ar    1  UNL1        0.0000
     22 C           5.1813   -3.7760   21.0201 C.ar    1  UNL1        0.0000
     23 C           4.3468   -2.6075   21.4538 C.ar    1  UNL1        0.0000
     24 C           4.2515   -2.2526   22.9082 C.ar    1  UNL1        0.0000
     25 C           3.6967    0.3649   32.9837 C.ar    1  UNL1        0.0989
     26 C           3.6467    1.5103   33.9509 C.ar    1  UNL1        0.0085
     27 C           4.0987    1.3156   35.3678 C.ar    1  UNL1        0.0003
     28 C           4.6007   -0.0245   35.8175 C.ar    1  UNL1        0.0009
     29 C           4.6506   -1.1699   34.8503 C.ar    1  UNL1        0.0116
     30 C           4.1986   -0.9752   33.4334 C.ar    1  UNL1        0.0651
     31 CL          4.2485   -2.1206   32.4661 Cl      1  UNL1       -0.0820
@<TRIPOS>BOND
     1     1     2    2
     2     2     3    1
     3     3     4    2
     4     4     5   ar
     5     5     6   ar
     6     6    15    1
     7    15    16   ar
     8    16    17   ar
     9    17    18   ar
    10    18    19   ar
    11    19    20   ar
    12    20    21   ar
    13    21    22   ar
    14    22    23   ar
    15    23    24   ar
    16     6     7   ar
    17     7     8   ar
    18     8     9   ar
    19     9    10    2
    20    10    11    1
    21    11    12    2
    22    12    25    1
    23    25    26   ar
    24    26    27   ar
    25    27    28   ar
    26    28    29   ar
    27    29    30   ar
    28    30    31    1
    29    12    13    1
    30    13    14    2
    31    14     2    1
    32     9     4   ar
    33    14    10    1
    34    24    15   ar
    35    30    25   ar
    36    23    18   ar
@<TRIPOS>MOLECULE
*****
 31 36 0 0 0
SMALL
GASTEIGER

@<TRIPOS>ATOM
      1 O          -0.7347    7.0202   27.8141 O.2     1  UNL1       -0.2638
      2 C          -0.5061    5.5378   27.8304 C.2     1  UNL1        0.3160
      3 N           0.3094    4.9167   28.9254 N.am    1  UNL1       -0.1720
      4 C           0.5380    3.4342   28.9417 C.ar    1  UNL1        0.0775
      5 C           1.3535    2.8131   30.0367 C.ar    1  UNL1        0.0167
      6 C           1.5820    1.3307   30.0529 C.ar    1  UNL1        0.0013
      7 C           0.9951    0.4695   28.9741 C.ar    1  UNL1        0.0002
      8 C           0.1796    1.0906   27.8791 C.ar    1  UNL1        0.0051
      9 C          -0.0490    2.5730   27.8629 C.ar    1  UNL1        0.0623
     10 C          -0.8645    3.1942   26.7678 C.2     1  UNL1        0.2419
     11 N          -1.5639    2.6043   25.5792 N.2     1  UNL1       -0.0302
     12 C          -2.2247    3.7221   24.8284 C.2     1  UNL1        0.3765
     13 N          -1.9337    5.0028   25.5529 N.2     1  UNL1       -0.0256
     14 C          -1.0930    4.6766   26.7516 C.2     1  UNL1        0.2907
     15 C           2.3975    0.7095   31.1480 C.ar    1  UNL1        0.0000
     16 C           3.0369   -0.6312   30.9386 C.ar    1  UNL1        0.0000
     17 C           3.8524   -1.2524   32.0336 C.ar    1  UNL1        0.0000
     18 C           4.0286   -0.5330   33.3380 C.ar    1  UNL1        0.0000
     19 C           4.8441   -1.1542   34.4330 C.ar    1  UNL1        0.0000
     20 C           5.0202   -0.4347   35.7373 C.ar    1  UNL1        0.0000
     21 C           4.3808    0.9059   35.9467 C.ar    1  UNL1        0.0000
     22 C           3.5653    1.5272   34.8517 C.ar    1  UNL1        0.0000
     23 C           3.3892    0.8077   33.5474 C.ar    1  UNL1        0.0000
     24 C           2.5737    1.4289   32.4523 C.ar    1  UNL1        0.0000
     25 C          -3.0345    3.5835   23.5733 C.ar    1  UNL1        0.0989
     26 C          -2.3490    3.5366   22.2399 C.ar    1  UNL1        0.0085
     27 C          -3.1588    3.3979   20.9849 C.ar    1  UNL1        0.0003
     28 C          -4.6539    3.3062   21.0633 C.ar    1  UNL1        0.0009
     29 C          -5.3393    3.3531   22.3966 C.ar    1  UNL1        0.0116
     30 C          -4.5296    3.4917   23.6517 C.ar    1  UNL1        0.0651
     31 CL         -5.2150    3.5386   24.9851 Cl      1  UNL1       -0.0820
@<TRIPOS>BOND
     1     1     2    2
     2     2     3    1
     3     3     4    2
     4     4     5   ar
     5     5     6   ar
     6     6    15    1
     7    15    16   ar
     8    16    17   ar
     9    17    18   ar
    10    18    19   ar
    11    19    20   ar
    12    20    21   ar
    13    21    22   ar
    14    22    23   ar
    15    23    24   ar
    16     6     7   ar
    17     7     8   ar
    18     8     9   ar
    19     9    10    2
    20    10    11    1
    21    11    12    2
    22    12    25    1
    23    25    26   ar
    24    26    27   ar
    25    27    28   ar
    26    28    29   ar
    27    29    30   ar
    28    30    31    1
    29    12    13    1
    30    13    14    2
    31    14     2    1
    32     9     4   ar
    33    14    10    1
    34    24    15   ar
    35    30    25   ar
    36    23    18   ar
@<TRIPOS>MOLECULE
*****
 31 36 0 0 0
SMALL
GASTEIGER

@<TRIPOS>ATOM
      1 O          -2.3059    5.1552   17.0462 O.2     1  UNL1       -0.2638
      2 C          -1.7229    4.2273   18.0706 C.2     1  UNL1        0.3160
      3 N          -0.4802    3.4484   17.7561 N.am    1  UNL1       -0.1720
      4 C           0.1028    2.5205   18.7804 C.ar    1  UNL1        0.0775
      5 C           1.3455    1.7416   18.4659 C.ar    1  UNL1        0.0167
      6 C           1.9284    0.8138   19.4902 C.ar    1  UNL1        0.0013
      7 C           1.2686    0.6648   20.8291 C.ar    1  UNL1        0.0002
      8 C           0.0259    1.4437   21.1436 C.ar    1  UNL1        0.0051
      9 C          -0.5570    2.3715   20.1192 C.ar    1  UNL1        0.0623
     10 C          -1.7998    3.1505   20.4337 C.2     1  UNL1        0.2419
     11 N          -2.6643    3.2096   21.6581 N.2     1  UNL1       -0.0302
     12 C          -3.7816    4.1740   21.3904 C.2     1  UNL1        0.3765
     13 N          -3.6075    4.7109   20.0007 N.2     1  UNL1       -0.0256
     14 C          -2.3827    4.0783   19.4094 C.2     1  UNL1        0.2907
     15 C           3.1712    0.0348   19.1758 C.ar    1  UNL1        0.0000
     16 C           3.5335   -0.2555   17.7494 C.ar    1  UNL1        0.0000
     17 C           4.7762   -1.0344   17.4349 C.ar    1  UNL1        0.0000
     18 C           5.6567   -1.5230   18.5468 C.ar    1  UNL1        0.0000
     19 C           6.8994   -2.3019   18.2323 C.ar    1  UNL1        0.0000
     20 C           7.7797   -2.7905   19.3441 C.ar    1  UNL1        0.0000
     21 C           7.4174   -2.5001   20.7705 C.ar    1  UNL1        0.0000
     22 C           6.1747   -1.7212   21.0850 C.ar    1  UNL1        0.0000
     23 C           5.2943   -1.2327   19.9731 C.ar    1  UNL1        0.0000
     24 C           4.0516   -0.4537   20.2876 C.ar    1  UNL1        0.0000
     25 C          -4.8800    4.5377   22.3450 C.ar    1  UNL1        0.0989
     26 C          -6.2563    3.9723   22.1553 C.ar    1  UNL1        0.0085
     27 C          -7.3547    4.3360   23.1098 C.ar    1  UNL1        0.0003
     28 C          -7.0768    5.2651   24.2541 C.ar    1  UNL1        0.0009
     29 C          -5.7005    5.8306   24.4439 C.ar    1  UNL1        0.0116
     30 C          -4.6021    5.4669   23.4893 C.ar    1  UNL1        0.0651
     31 CL         -3.2257    6.0323   23.6791 Cl      1  UNL1       -0.0820
@<TRIPOS>BOND
     1     1     2    2
     2     2     3    1
     3     3     4    2
     4     4     5   ar
     5     5     6   ar
     6     6    15    1
     7    15    16   ar
     8    16    17   ar
     9    17    18   ar
    10    18    19   ar
    11    19    20   ar
    12    20    21   ar
    13    21    22   ar
    14    22    23   ar
    15    23    24   ar
    16     6     7   ar
    17     7     8   ar
    18     8     9   ar
    19     9    10    2
    20    10    11    1
    21    11    12    2
    22    12    25    1
    23    25    26   ar
    24    26    27   ar
    25    27    28   ar
    26    28    29   ar
    27    29    30   ar
    28    30    31    1
    29    12    13    1
    30    13    14    2
    31    14     2    1
    32     9     4   ar
    33    14    10    1
    34    24    15   ar
    35    30    25   ar
    36    23    18   ar
@<TRIPOS>MOLECULE
*****
 31 36 0 0 0
SMALL
GASTEIGER

@<TRIPOS>ATOM
      1 O           0.2418    1.6233   30.9986 O.2     1  UNL1       -0.2638
      2 C           1.4801    1.0107   30.4143 C.2     1  UNL1        0.3160
      3 N           1.5090    0.6117   28.9686 N.am    1  UNL1       -0.1720
      4 C           2.7473   -0.0009   28.3842 C.ar    1  UNL1        0.0775
      5 C           2.7763   -0.3999   26.9386 C.ar    1  UNL1        0.0167
      6 C           4.0145   -1.0124   26.3543 C.ar    1  UNL1        0.0013
      7 C           5.2239   -1.2259   27.2156 C.ar    1  UNL1        0.0002
      8 C           5.1950   -0.8269   28.6612 C.ar    1  UNL1        0.0051
      9 C           3.9567   -0.2144   29.2456 C.ar    1  UNL1        0.0623
     10 C           3.9277    0.1847   30.6913 C.2     1  UNL1        0.2419
     11 N           4.9586    0.0972   31.7774 N.2     1  UNL1       -0.0302
     12 C           4.3574    0.6557   33.0330 C.2     1  UNL1        0.3765
     13 N           2.9550    1.0883   32.7229 N.2     1  UNL1       -0.0256
     14 C           2.6895    0.7972   31.2756 C.2     1  UNL1        0.2907
     15 C           4.0435   -1.4114   24.9086 C.ar    1  UNL1        0.0000
     16 C           4.9894   -2.4788   24.4440 C.ar    1  UNL1        0.0000
     17 C           5.0184   -2.8779   22.9984 C.ar    1  UNL1        0.0000
     18 C           4.1014   -2.2095   22.0172 C.ar    1  UNL1        0.0000
     19 C           4.1304   -2.6086   20.5716 C.ar    1  UNL1        0.0000
     20 C           3.2135   -1.9402   19.5906 C.ar    1  UNL1        0.0000
     21 C           2.2675   -0.8728   20.0552 C.ar    1  UNL1        0.0000
     22 C           2.2385   -0.4738   21.5008 C.ar    1  UNL1        0.0000
     23 C           3.1555   -1.1421   22.4818 C.ar    1  UNL1        0.0000
     24 C           3.1265   -0.7431   23.9275 C.ar    1  UNL1        0.0000
     25 C           5.0389    0.7628   34.3650 C.ar    1  UNL1        0.0989
     26 C           4.7984   -0.2795   35.4165 C.ar    1  UNL1        0.0085
     27 C           5.4800   -0.1724   36.7484 C.ar    1  UNL1        0.0003
     28 C           6.4020    0.9771   37.0288 C.ar    1  UNL1        0.0009
     29 C           6.6425    2.0194   35.9773 C.ar    1  UNL1        0.0116
     30 C           5.9610    1.9123   34.6454 C.ar    1  UNL1        0.0651
     31 CL          6.2014    2.9546   33.5938 Cl      1  UNL1       -0.0820
@<TRIPOS>BOND
     1     1     2    2
     2     2     3    1
     3     3     4    2
     4     4     5   ar
     5     5     6   ar
     6     6    15    1
     7    15    16   ar
     8    16    17   ar
     9    17    18   ar
    10    18    19   ar
    11    19    20   ar
    12    20    21   ar
    13    21    22   ar
    14    22    23   ar
    15    23    24   ar
    16     6     7   ar
    17     7     8   ar
    18     8     9   ar
    19     9    10    2
    20    10    11    1
    21    11    12    2
    22    12    25    1
    23    25    26   ar
    24    26    27   ar
    25    27    28   ar
    26    28    29   ar
    27    29    30   ar
    28    30    31    1
    29    12    13    1
    30    13    14    2
    31    14     2    1
    32     9     4   ar
    33    14    10    1
    34    24    15   ar
    35    30    25   ar
    36    23    18   ar
@<TRIPOS>MOLECULE
*****
 31 36 0 0 0
SMALL
GASTEIGER

@<TRIPOS>ATOM
      1 O           0.3166    2.3028   17.8570 O.2     1  UNL1       -0.2638
      2 C           0.3807    2.0352   19.3316 C.2     1  UNL1        0.3160
      3 N          -0.4063    2.8865   20.2833 N.am    1  UNL1       -0.1720
      4 C          -0.3421    2.6189   21.7579 C.ar    1  UNL1        0.0775
      5 C          -1.1291    3.4703   22.7096 C.ar    1  UNL1        0.0167
      6 C          -1.0650    3.2026   24.1841 C.ar    1  UNL1        0.0013
      7 C          -0.2138    2.0836   24.7069 C.ar    1  UNL1        0.0002
      8 C           0.5731    1.2322   23.7552 C.ar    1  UNL1        0.0051
      9 C           0.5090    1.4999   22.2807 C.ar    1  UNL1        0.0623
     10 C           1.2960    0.6485   21.3289 C.2     1  UNL1        0.2419
     11 N           2.2153   -0.5161   21.5491 N.2     1  UNL1       -0.0302
     12 C           2.7193   -0.9683   20.2106 C.2     1  UNL1        0.3765
     13 N           2.1116   -0.0831   19.1633 N.2     1  UNL1       -0.0256
     14 C           1.2319    0.9161   19.8544 C.2     1  UNL1        0.2907
     15 C          -1.8520    4.0540   25.1358 C.ar    1  UNL1        0.0000
     16 C          -1.1481    4.8108   26.2230 C.ar    1  UNL1        0.0000
     17 C          -1.9350    5.6621   27.1747 C.ar    1  UNL1        0.0000
     18 C          -3.4260    5.7568   27.0394 C.ar    1  UNL1        0.0000
     19 C          -4.2129    6.6082   27.9911 C.ar    1  UNL1        0.0000
     20 C          -5.7037    6.7028   27.8557 C.ar    1  UNL1        0.0000
     21 C          -6.4076    5.9460   26.7686 C.ar    1  UNL1        0.0000
     22 C          -5.6207    5.0947   25.8168 C.ar    1  UNL1        0.0000
     23 C          -4.1299    5.0000   25.9522 C.ar    1  UNL1        0.0000
     24 C          -3.3428    4.1486   25.0004 C.ar    1  UNL1        0.0000
     25 C           3.6652   -2.1060   19.9630 C.ar    1  UNL1        0.0989
     26 C           3.1610   -3.3821   19.3570 C.ar    1  UNL1        0.0085
     27 C           4.1068   -4.5196   19.1094 C.ar    1  UNL1        0.0003
     28 C           5.5568   -4.3811   19.4679 C.ar    1  UNL1        0.0009
     29 C           6.0609   -3.1050   20.0739 C.ar    1  UNL1        0.0116
     30 C           5.1151   -1.9674   20.3215 C.ar    1  UNL1        0.0651
     31 CL          5.6192   -0.6912   20.9276 Cl      1  UNL1       -0.0820
@<TRIPOS>BOND
     1     1     2    2
     2     2     3    1
     3     3     4    2
     4     4     5   ar
     5     5     6   ar
     6     6    15    1
     7    15    16   ar
     8    16    17   ar
     9    17    18   ar
    10    18    19   ar
    11    19    20   ar
    12    20    21   ar
    13    21    22   ar
    14    22    23   ar
    15    23    24   ar
    16     6     7   ar
    17     7     8   ar
    18     8     9   ar
    19     9    10    2
    20    10    11    1
    21    11    12    2
    22    12    25    1
    23    25    26   ar
    24    26    27   ar
    25    27    28   ar
    26    28    29   ar
    27    29    30   ar
    28    30    31    1
    29    12    13    1
    30    13    14    2
    31    14     2    1
    32     9     4   ar
    33    14    10    1
    34    24    15   ar
    35    30    25   ar
    36    23    18   ar
@<TRIPOS>MOLECULE
*****
 31 36 0 0 0
SMALL
GASTEIGER

@<TRIPOS>ATOM
      1 O           9.3779    1.2065   35.6550 O.2     1  UNL1       -0.2638
      2 C           8.3671    0.3884   34.9073 C.2     1  UNL1        0.3160
      3 N           8.8184   -0.7345   34.0211 N.am    1  UNL1       -0.1720
      4 C           7.8076   -1.5526   33.2734 C.ar    1  UNL1        0.0775
      5 C           8.2589   -2.6755   32.3872 C.ar    1  UNL1        0.0167
      6 C           7.2481   -3.4935   31.6395 C.ar    1  UNL1        0.0013
      7 C           5.7859   -3.1886   31.7780 C.ar    1  UNL1        0.0002
      8 C           5.3346   -2.0657   32.6641 C.ar    1  UNL1        0.0051
      9 C           6.3454   -1.2477   33.4118 C.ar    1  UNL1        0.0623
     10 C           5.8941   -0.1247   34.2981 C.2     1  UNL1        0.2419
     11 N           4.5311    0.4065   34.6296 N.2     1  UNL1       -0.0302
     12 C           4.6995    1.5528   35.5822 C.2     1  UNL1        0.3765
     13 N           6.1666    1.7301   35.8394 N.2     1  UNL1       -0.0256
     14 C           6.9049    0.6933   35.0457 C.2     1  UNL1        0.2907
     15 C           7.6994   -4.6165   30.7533 C.ar    1  UNL1        0.0000
     16 C           8.8047   -5.5267   31.2002 C.ar    1  UNL1        0.0000
     17 C           9.2560   -6.6497   30.3141 C.ar    1  UNL1        0.0000
     18 C           8.6020   -6.8624   28.9809 C.ar    1  UNL1        0.0000
     19 C           9.0534   -7.9853   28.0948 C.ar    1  UNL1        0.0000
     20 C           8.3994   -8.1980   26.7617 C.ar    1  UNL1        0.0000
     21 C           7.2941   -7.2877   26.3148 C.ar    1  UNL1        0.0000
     22 C           6.8428   -6.1647   27.2010 C.ar    1  UNL1        0.0000
     23 C           7.4967   -5.9521   28.5340 C.ar    1  UNL1        0.0000
     24 C           7.0454   -4.8291   29.4202 C.ar    1  UNL1        0.0000
     25 C           3.5947    2.3772   36.1738 C.ar    1  UNL1        0.0989
     26 C           2.9882    3.4974   35.3819 C.ar    1  UNL1        0.0085
     27 C           1.8834    4.3217   35.9735 C.ar    1  UNL1        0.0003
     28 C           1.3852    4.0258   37.3570 C.ar    1  UNL1        0.0009
     29 C           1.9918    2.9056   38.1490 C.ar    1  UNL1        0.0116
     30 C           3.0965    2.0813   37.5574 C.ar    1  UNL1        0.0651
     31 CL          3.7031    0.9611   38.3494 Cl      1  UNL1       -0.0820
@<TRIPOS>BOND
     1     1     2    2
     2     2     3    1
     3     3     4    2
     4     4     5   ar
     5     5     6   ar
     6     6    15    1
     7    15    16   ar
     8    16    17   ar
     9    17    18   ar
    10    18    19   ar
    11    19    20   ar
    12    20    21   ar
    13    21    22   ar
    14    22    23   ar
    15    23    24   ar
    16     6     7   ar
    17     7     8   ar
    18     8     9   ar
    19     9    10    2
    20    10    11    1
    21    11    12    2
    22    12    25    1
    23    25    26   ar
    24    26    27   ar
    25    27    28   ar
    26    28    29   ar
    27    29    30   ar
    28    30    31    1
    29    12    13    1
    30    13    14    2
    31    14     2    1
    32     9     4   ar
    33    14    10    1
    34    24    15   ar
    35    30    25   ar
    36    23    18   ar
