@<TRIPOS>MOLECULE
*****
 33 37 0 0 0
SMALL
GASTEIGER

@<TRIPOS>ATOM
      1 N          -7.8839  -19.6253   21.4039 N.3     1  UNL1       -0.2679
      2 C          -8.6256  -19.2190   22.6427 C.3     1  UNL1        0.0978
      3 C          -9.5555  -20.1875   23.3117 C.3     1  UNL1        0.0224
      4 C         -10.2973  -19.7812   24.5506 C.3     1  UNL1        0.0065
      5 C         -10.1092  -18.4065   25.1204 C.3     1  UNL1        0.0277
      6 C          -9.1793  -17.4380   24.4515 C.ar    1  UNL1       -0.0073
      7 C          -8.9912  -16.0633   25.0213 C.ar    1  UNL1       -0.0015
      8 C          -8.0614  -15.0949   24.3524 C.ar    1  UNL1        0.0203
      9 C          -7.3196  -15.5011   23.1136 C.ar    1  UNL1        0.0985
     10 N          -7.5077  -16.8758   22.5437 N.ar    1  UNL1       -0.2471
     11 C          -8.4376  -17.8443   23.2127 C.ar    1  UNL1        0.0695
     12 C          -6.5467  -20.2958   21.5163 C.3     1  UNL1        0.0886
     13 C          -0.6681  -16.9703   20.2387 C.ar    1  UNL1       -0.0003
     14 C          -1.0626  -17.7550   19.0227 C.ar    1  UNL1       -0.0003
     15 C          -2.3172  -18.5771   19.0350 C.ar    1  UNL1       -0.0045
     16 C          -3.1774  -18.6144   20.2633 C.ar    1  UNL1       -0.0234
     17 C          -2.7829  -17.8297   21.4793 C.ar    1  UNL1       -0.0103
     18 C          -1.5282  -17.0077   21.4669 C.ar    1  UNL1       -0.0032
     19 C          -3.6430  -17.8671   22.7077 C.3     1  UNL1        0.0953
     20 N          -4.8976  -18.6891   22.7200 N.3     1  UNL1       -0.2934
     21 C          -5.2921  -19.4738   21.5039 C.3     1  UNL1        0.0748
     22 C          -4.4320  -19.4365   20.2757 C.3     1  UNL1        0.0432
     23 H          -5.6667  -18.0496   22.9200 H       1  UNL1        0.1236
     24 C          -8.4792  -19.3610   20.0527 C.3     1  UNL1        0.0738
     25 C          -9.8439  -19.8863   19.7186 C.3     1  UNL1        0.0347
     26 C         -10.9880  -18.9349   19.5292 C.3     1  UNL1        0.0736
     27 N         -11.2777  -17.8936   20.5694 N.3     1  UNL1       -0.2703
     28 C         -12.2576  -18.1828   21.6676 C.3     1  UNL1        0.0894
     29 C         -12.5472  -17.1416   22.7077 C.3     1  UNL1        0.0862
     30 N         -11.8569  -15.8111   22.6495 N.3     1  UNL1       -0.2951
     31 C         -10.8770  -15.5219   21.5513 C.3     1  UNL1        0.0862
     32 C         -10.5874  -16.5631   20.5112 C.3     1  UNL1        0.0894
     33 H         -11.3533  -15.7020   23.5298 H       1  UNL1        0.1233
@<TRIPOS>BOND
     1    13    14   ar
     2    14    15   ar
     3    15    16   ar
     4    16    17   ar
     5    17    18   ar
     6    17    19    1
     7    19    20    1
     8    20    21    1
     9    21    12    1
    10    12     1    1
    11     1    24    1
    12    24    25    1
    13    25    26    1
    14    26    27    1
    15    27    28    1
    16    28    29    1
    17    29    30    1
    18    30    31    1
    19    31    32    1
    20     2     1    1
    21     2     3    1
    22     3     4    1
    23     4     5    1
    24     5     6    1
    25     6     7   ar
    26     7     8   ar
    27     8     9   ar
    28     9    10   ar
    29    10    11   ar
    30    21    22    1
    31    18    13   ar
    32    32    27    1
    33    11     2    1
    34    22    16    1
    35    11     6   ar
    36    20    23    1
    37    30    33    1
@<TRIPOS>MOLECULE
*****
 33 37 0 0 0
SMALL
GASTEIGER

@<TRIPOS>ATOM
      1 N          -7.4620  -19.6473   20.9450 N.3     1  UNL1       -0.2679
      2 C          -7.9369  -18.5529   21.8542 C.3     1  UNL1        0.0978
      3 C          -7.5783  -17.1261   21.5615 C.3     1  UNL1        0.0224
      4 C          -8.0533  -16.0317   22.4708 C.3     1  UNL1        0.0065
      5 C          -8.8867  -16.3641   23.6727 C.3     1  UNL1        0.0277
      6 C          -9.2453  -17.7909   23.9655 C.ar    1  UNL1       -0.0073
      7 C         -10.0788  -18.1233   25.1675 C.ar    1  UNL1       -0.0015
      8 C         -10.4374  -19.5500   25.4602 C.ar    1  UNL1        0.0203
      9 C          -9.9625  -20.6444   24.5510 C.ar    1  UNL1        0.0985
     10 N          -9.1290  -20.3120   23.3490 N.ar    1  UNL1       -0.2471
     11 C          -8.7704  -18.8852   23.0563 C.ar    1  UNL1        0.0695
     12 C          -6.1850  -20.3734   21.2487 C.3     1  UNL1        0.0886
     13 C          -0.2467  -17.1200   20.0646 C.ar    1  UNL1       -0.0003
     14 C          -0.8099  -17.6036   18.7613 C.ar    1  UNL1       -0.0003
     15 C          -2.1103  -18.3511   18.7374 C.ar    1  UNL1       -0.0045
     16 C          -2.8473  -18.6148   20.0169 C.ar    1  UNL1       -0.0234
     17 C          -2.2841  -18.1312   21.3203 C.ar    1  UNL1       -0.0103
     18 C          -0.9837  -17.3838   21.3441 C.ar    1  UNL1       -0.0032
     19 C          -3.0211  -18.3949   22.5998 C.3     1  UNL1        0.0953
     20 N          -4.3214  -19.1423   22.5760 N.3     1  UNL1       -0.2934
     21 C          -4.8847  -19.6260   21.2725 C.3     1  UNL1        0.0748
     22 C          -4.1476  -19.3622   19.9930 C.3     1  UNL1        0.0432
     23 H          -5.0222  -18.5272   22.9894 H       1  UNL1        0.1236
     24 C          -8.2640  -20.0156   19.7321 C.3     1  UNL1        0.0738
     25 C          -9.4462  -19.1829   19.3334 C.3     1  UNL1        0.0347
     26 C         -10.7823  -19.4232   19.9715 C.3     1  UNL1        0.0736
     27 N         -11.3933  -18.3727   20.8508 N.3     1  UNL1       -0.2703
     28 C         -12.2359  -18.7746   22.0249 C.3     1  UNL1        0.0894
     29 C         -12.8469  -17.7241   22.9041 C.3     1  UNL1        0.0862
     30 N         -12.6154  -16.2717   22.6092 N.3     1  UNL1       -0.2951
     31 C         -11.7728  -15.8698   21.4351 C.3     1  UNL1        0.0862
     32 C         -11.1618  -16.9203   20.5559 C.3     1  UNL1        0.0894
     33 H         -12.1771  -15.8693   23.4377 H       1  UNL1        0.1233
@<TRIPOS>BOND
     1    13    14   ar
     2    14    15   ar
     3    15    16   ar
     4    16    17   ar
     5    17    18   ar
     6    17    19    1
     7    19    20    1
     8    20    21    1
     9    21    12    1
    10    12     1    1
    11     1    24    1
    12    24    25    1
    13    25    26    1
    14    26    27    1
    15    27    28    1
    16    28    29    1
    17    29    30    1
    18    30    31    1
    19    31    32    1
    20     2     1    1
    21     2     3    1
    22     3     4    1
    23     4     5    1
    24     5     6    1
    25     6     7   ar
    26     7     8   ar
    27     8     9   ar
    28     9    10   ar
    29    10    11   ar
    30    21    22    1
    31    18    13   ar
    32    32    27    1
    33    11     2    1
    34    22    16    1
    35    11     6   ar
    36    20    23    1
    37    30    33    1
@<TRIPOS>MOLECULE
*****
 33 37 0 0 0
SMALL
GASTEIGER

@<TRIPOS>ATOM
      1 N          -7.4035  -19.2785   22.1560 N.3     1  UNL1       -0.2679
      2 C          -6.2663  -19.8009   21.3291 C.3     1  UNL1        0.0978
      3 C          -6.5384  -20.7177   20.1735 C.3     1  UNL1        0.0224
      4 C          -5.4011  -21.2401   19.3466 C.3     1  UNL1        0.0065
      5 C          -3.9917  -20.8456   19.6753 C.3     1  UNL1        0.0277
      6 C          -3.7196  -19.9288   20.8309 C.ar    1  UNL1       -0.0073
      7 C          -2.3103  -19.5343   21.1595 C.ar    1  UNL1       -0.0015
      8 C          -2.0381  -18.6175   22.3151 C.ar    1  UNL1        0.0203
      9 C          -3.1754  -18.0951   23.1420 C.ar    1  UNL1        0.0985
     10 N          -4.5847  -18.4896   22.8133 N.ar    1  UNL1       -0.2471
     11 C          -4.8568  -19.4064   21.6577 C.ar    1  UNL1        0.0695
     12 C          -7.7217  -17.8126   22.1528 C.3     1  UNL1        0.0886
     13 C          -7.0462  -14.2513   27.9933 C.ar    1  UNL1       -0.0003
     14 C          -8.3617  -14.9718   28.0069 C.ar    1  UNL1       -0.0003
     15 C          -8.7599  -15.8281   26.8415 C.ar    1  UNL1       -0.0045
     16 C          -7.8426  -15.9640   25.6625 C.ar    1  UNL1       -0.0234
     17 C          -6.5271  -15.2435   25.6489 C.ar    1  UNL1       -0.0103
     18 C          -6.1289  -14.3871   26.8143 C.ar    1  UNL1       -0.0032
     19 C          -5.6097  -15.3793   24.4699 C.3     1  UNL1        0.0953
     20 N          -6.0079  -16.2357   23.3045 N.3     1  UNL1       -0.2934
     21 C          -7.3235  -16.9562   23.3182 C.3     1  UNL1        0.0748
     22 C          -8.2408  -16.8204   24.4972 C.3     1  UNL1        0.0432
     23 H          -5.2839  -16.9466   23.2005 H       1  UNL1        0.1236
     24 C          -8.2226  -20.2220   22.9860 C.3     1  UNL1        0.0738
     25 C          -9.6117  -19.8406   23.4041 C.3     1  UNL1        0.0347
     26 C         -10.7451  -19.9485   22.4275 C.3     1  UNL1        0.0736
     27 N         -11.2305  -18.7274   21.7039 N.3     1  UNL1       -0.2703
     28 C         -10.8648  -18.5134   20.2650 C.3     1  UNL1        0.0894
     29 C         -11.3502  -17.2923   19.5415 C.3     1  UNL1        0.0862
     30 N         -12.2012  -16.2854   20.2569 N.3     1  UNL1       -0.2951
     31 C         -12.5669  -16.4994   21.6958 C.3     1  UNL1        0.0862
     32 C         -12.0815  -17.7204   22.4193 C.3     1  UNL1        0.0894
     33 H         -13.0765  -16.2176   19.7376 H       1  UNL1        0.1233
@<TRIPOS>BOND
     1    13    14   ar
     2    14    15   ar
     3    15    16   ar
     4    16    17   ar
     5    17    18   ar
     6    17    19    1
     7    19    20    1
     8    20    21    1
     9    21    12    1
    10    12     1    1
    11     1    24    1
    12    24    25    1
    13    25    26    1
    14    26    27    1
    15    27    28    1
    16    28    29    1
    17    29    30    1
    18    30    31    1
    19    31    32    1
    20     2     1    1
    21     2     3    1
    22     3     4    1
    23     4     5    1
    24     5     6    1
    25     6     7   ar
    26     7     8   ar
    27     8     9   ar
    28     9    10   ar
    29    10    11   ar
    30    21    22    1
    31    18    13   ar
    32    32    27    1
    33    11     2    1
    34    22    16    1
    35    11     6   ar
    36    20    23    1
    37    30    33    1
