@<TRIPOS>MOLECULE
*****
 23 25 0 0 0
SMALL
GASTEIGER

@<TRIPOS>ATOM
      1 N          -7.2271  -18.5808   22.4998 N.3     1  UNL1       -0.2700
      2 C          -5.9034  -19.0257   21.9519 C.3     1  UNL1        0.0628
      3 C          -5.8513  -19.8974   20.7324 C.3     1  UNL1        0.0481
      4 C          -4.5278  -20.3422   20.1845 C.3     1  UNL1        0.1435
      5 O          -3.2563  -19.9153   20.8561 O.3     1  UNL1       -0.3537
      6 C          -3.3084  -19.0436   22.0756 C.3     1  UNL1        0.1435
      7 C          -4.6320  -18.5987   22.6235 C.3     1  UNL1        0.0481
      8 C          -7.4304  -17.1494   22.8997 C.3     1  UNL1        0.0748
      9 C          -7.1499  -16.5632   24.2516 C.3     1  UNL1        0.0344
     10 C          -7.4961  -15.1045   24.2052 C.3     1  UNL1        0.0700
     11 N          -7.9906  -14.7891   22.8246 N.3     1  UNL1       -0.2963
     12 C          -7.9500  -16.0529   22.0178 C.3     1  UNL1        0.0847
     13 H          -7.3911  -14.0846   22.3948 H       1  UNL1        0.1233
     14 C          -8.3473  -19.5673   22.6479 C.3     1  UNL1        0.0989
     15 C         -11.9723  -18.0879   21.9993 C.ar    1  UNL1        0.1344
     16 C         -12.5417  -18.1145   23.3868 C.ar    1  UNL1        0.0366
     17 C         -11.7131  -18.6254   24.5279 C.ar    1  UNL1        0.0028
     18 C         -10.3149  -19.1096   24.2816 C.ar    1  UNL1       -0.0030
     19 C          -9.7455  -19.0830   22.8942 C.ar    1  UNL1       -0.0072
     20 C         -10.5742  -18.5721   21.7530 C.ar    1  UNL1        0.0095
     21 C         -10.0047  -18.5455   20.3656 C.3     1  UNL1        0.0339
     22 C         -12.6083  -16.1754   20.3598 C.3     1  UNL1        0.2525
     23 O         -12.8010  -17.5770   20.8581 O.3     1  UNL1       -0.4718
@<TRIPOS>BOND
     1    22    23    1
     2    23    15    1
     3    15    16   ar
     4    16    17   ar
     5    17    18   ar
     6    18    19   ar
     7    19    14    1
     8    14     1    1
     9     1     2    1
    10     2     3    1
    11     3     4    1
    12     4     5    1
    13     5     6    1
    14     6     7    1
    15     8     1    1
    16     8     9    1
    17     9    10    1
    18    10    11    1
    19    11    12    1
    20    19    20   ar
    21    20    21    1
    22    20    15   ar
    23     7     2    1
    24    12     8    1
    25    11    13    1
@<TRIPOS>MOLECULE
*****
 23 25 0 0 0
SMALL
GASTEIGER

@<TRIPOS>ATOM
      1 N          -7.6066  -18.4265   22.2802 N.3     1  UNL1       -0.2700
      2 C          -6.2467  -18.9099   21.8712 C.3     1  UNL1        0.0628
      3 C          -5.0293  -18.4356   22.6080 C.3     1  UNL1        0.0481
      4 C          -3.6695  -18.9190   22.1990 C.3     1  UNL1        0.1435
      5 O          -3.5272  -19.8767   21.0534 O.3     1  UNL1       -0.3537
      6 C          -4.7446  -20.3510   20.3166 C.3     1  UNL1        0.1435
      7 C          -6.1044  -19.8676   20.7255 C.3     1  UNL1        0.0481
      8 C          -7.7644  -17.0723   22.9056 C.3     1  UNL1        0.0748
      9 C          -7.9179  -16.7903   24.3708 C.3     1  UNL1        0.0344
     10 C          -8.0448  -15.3060   24.5465 C.3     1  UNL1        0.0700
     11 N          -7.9697  -14.6706   23.1898 N.3     1  UNL1       -0.2963
     12 C          -7.7964  -15.7623   22.1757 C.3     1  UNL1        0.0847
     13 H          -7.1754  -14.0320   23.1501 H       1  UNL1        0.1233
     14 C          -8.8086  -19.2973   22.0636 C.3     1  UNL1        0.0989
     15 C         -12.3397  -18.3262   23.5927 C.ar    1  UNL1        0.1344
     16 C         -12.9428  -17.5628   22.4510 C.ar    1  UNL1        0.0366
     17 C         -12.1678  -17.3776   21.1801 C.ar    1  UNL1        0.0028
     18 C         -10.7898  -17.9558   21.0510 C.ar    1  UNL1       -0.0030
     19 C         -10.1867  -18.7191   22.1928 C.ar    1  UNL1       -0.0072
     20 C         -10.9617  -18.9043   23.4636 C.ar    1  UNL1        0.0095
     21 C         -10.3586  -19.6677   24.6053 C.3     1  UNL1        0.0339
     22 C         -14.6115  -18.4152   24.8500 C.3     1  UNL1        0.2525
     23 O         -13.1147  -18.5114   24.8636 O.3     1  UNL1       -0.4718
@<TRIPOS>BOND
     1    22    23    1
     2    23    15    1
     3    15    16   ar
     4    16    17   ar
     5    17    18   ar
     6    18    19   ar
     7    19    14    1
     8    14     1    1
     9     1     2    1
    10     2     3    1
    11     3     4    1
    12     4     5    1
    13     5     6    1
    14     6     7    1
    15     8     1    1
    16     8     9    1
    17     9    10    1
    18    10    11    1
    19    11    12    1
    20    19    20   ar
    21    20    21    1
    22    20    15   ar
    23     7     2    1
    24    12     8    1
    25    11    13    1
@<TRIPOS>MOLECULE
*****
 23 25 0 0 0
SMALL
GASTEIGER

@<TRIPOS>ATOM
      1 N          -8.1631  -17.7036   22.4979 N.3     1  UNL1       -0.2700
      2 C          -9.3156  -17.6640   21.5385 C.3     1  UNL1        0.0628
      3 C          -9.5736  -18.8275   20.6277 C.3     1  UNL1        0.0481
      4 C         -10.7260  -18.7877   19.6684 C.3     1  UNL1        0.1435
      5 O         -11.6204  -17.5845   19.6199 O.3     1  UNL1       -0.3537
      6 C         -11.3624  -16.4211   20.5307 C.3     1  UNL1        0.1435
      7 C         -10.2100  -16.4608   21.4900 C.3     1  UNL1        0.0481
      8 C          -7.9656  -16.5867   23.4795 C.3     1  UNL1        0.0748
      9 C          -8.4863  -16.5462   24.8856 C.3     1  UNL1        0.0344
     10 C          -8.0553  -15.2486   25.5024 C.3     1  UNL1        0.0700
     11 N          -7.2681  -14.4871   24.4775 N.3     1  UNL1       -0.2963
     12 C          -7.2127  -15.3141   23.2272 C.3     1  UNL1        0.0847
     13 H          -6.3233  -14.3176   24.8225 H       1  UNL1        0.1233
     14 C          -7.2083  -18.8602   22.4757 C.3     1  UNL1        0.0989
     15 C          -3.6904  -18.7214   20.6441 C.ar    1  UNL1        0.1344
     16 C          -2.8282  -18.1477   21.7292 C.ar    1  UNL1        0.0366
     17 C          -3.4260  -17.8116   23.0632 C.ar    1  UNL1        0.0028
     18 C          -4.8860  -18.0491   23.3120 C.ar    1  UNL1       -0.0030
     19 C          -5.7482  -18.6227   22.2268 C.ar    1  UNL1       -0.0072
     20 C          -5.1504  -18.9589   20.8929 C.ar    1  UNL1        0.0095
     21 C          -6.0125  -19.5325   19.8077 C.3     1  UNL1        0.0339
     22 C          -1.9555  -18.2413   18.7706 C.3     1  UNL1        0.2525
     23 O          -3.0924  -19.0575   19.3100 O.3     1  UNL1       -0.4718
@<TRIPOS>BOND
     1    22    23    1
     2    23    15    1
     3    15    16   ar
     4    16    17   ar
     5    17    18   ar
     6    18    19   ar
     7    19    14    1
     8    14     1    1
     9     1     2    1
    10     2     3    1
    11     3     4    1
    12     4     5    1
    13     5     6    1
    14     6     7    1
    15     8     1    1
    16     8     9    1
    17     9    10    1
    18    10    11    1
    19    11    12    1
    20    19    20   ar
    21    20    21    1
    22    20    15   ar
    23     7     2    1
    24    12     8    1
    25    11    13    1
@<TRIPOS>MOLECULE
*****
 23 25 0 0 0
SMALL
GASTEIGER

@<TRIPOS>ATOM
      1 N          -8.1806  -17.8058   22.5127 N.3     1  UNL1       -0.2700
      2 C          -9.2823  -17.8668   21.4964 C.3     1  UNL1        0.0628
      3 C         -10.2377  -16.7190   21.3561 C.3     1  UNL1        0.0481
      4 C         -11.3392  -16.7801   20.3399 C.3     1  UNL1        0.1435
      5 O         -11.4854  -17.9889   19.4639 O.3     1  UNL1       -0.3537
      6 C         -10.5300  -19.1368   19.6043 C.3     1  UNL1        0.1435
      7 C          -9.4285  -19.0757   20.6205 C.3     1  UNL1        0.0481
      8 C          -8.0400  -16.6008   23.3948 C.3     1  UNL1        0.0748
      9 C          -8.5089  -16.4882   24.8152 C.3     1  UNL1        0.0344
     10 C          -8.1644  -15.1146   25.3096 C.3     1  UNL1        0.0700
     11 N          -7.4825  -14.3782   24.1949 N.3     1  UNL1       -0.2963
     12 C          -7.4056  -15.2967   23.0115 C.3     1  UNL1        0.0847
     13 H          -6.5428  -14.1062   24.4836 H       1  UNL1        0.1233
     14 C          -7.2198  -18.9497   22.6468 C.3     1  UNL1        0.0989
     15 C          -3.4705  -18.3440   21.4952 C.ar    1  UNL1        0.1344
     16 C          -3.4666  -19.0384   20.1656 C.ar    1  UNL1        0.0366
     17 C          -4.7138  -19.7032   19.6631 C.ar    1  UNL1        0.0028
     18 C          -5.9648  -19.6736   20.4901 C.ar    1  UNL1       -0.0030
     19 C          -5.9687  -18.9793   21.8197 C.ar    1  UNL1       -0.0072
     20 C          -4.7215  -18.3145   22.3223 C.ar    1  UNL1        0.0095
     21 C          -4.7254  -17.6201   23.6519 C.3     1  UNL1        0.0339
     22 C          -1.9748  -16.2298   21.7023 C.3     1  UNL1        0.2525
     23 O          -2.2233  -17.6792   21.9978 O.3     1  UNL1       -0.4718
@<TRIPOS>BOND
     1    22    23    1
     2    23    15    1
     3    15    16   ar
     4    16    17   ar
     5    17    18   ar
     6    18    19   ar
     7    19    14    1
     8    14     1    1
     9     1     2    1
    10     2     3    1
    11     3     4    1
    12     4     5    1
    13     5     6    1
    14     6     7    1
    15     8     1    1
    16     8     9    1
    17     9    10    1
    18    10    11    1
    19    11    12    1
    20    19    20   ar
    21    20    21    1
    22    20    15   ar
    23     7     2    1
    24    12     8    1
    25    11    13    1
@<TRIPOS>MOLECULE
*****
 23 25 0 0 0
SMALL
GASTEIGER

@<TRIPOS>ATOM
      1 N          -8.2933  -16.5902   23.9230 N.3     1  UNL1       -0.2700
      2 C          -9.6598  -17.2050   23.8540 C.3     1  UNL1        0.0628
      3 C         -10.7432  -16.5378   23.0598 C.3     1  UNL1        0.0481
      4 C         -12.1096  -17.1527   22.9908 C.3     1  UNL1        0.1435
      5 O         -12.3926  -18.4348   23.7161 O.3     1  UNL1       -0.3537
      6 C         -11.3092  -19.1020   24.5104 C.3     1  UNL1        0.1435
      7 C          -9.9428  -18.4871   24.5794 C.3     1  UNL1        0.0481
      8 C          -7.7999  -16.0016   25.2115 C.3     1  UNL1        0.0748
      9 C          -8.4670  -16.1242   26.5494 C.3     1  UNL1        0.0344
     10 C          -7.6322  -15.3855   27.5531 C.3     1  UNL1        0.0700
     11 N          -6.4492  -14.8062   26.8355 N.3     1  UNL1       -0.2963
     12 C          -6.5529  -15.1870   25.3883 C.3     1  UNL1        0.0847
     13 H          -5.5869  -15.1809   27.2311 H       1  UNL1        0.1233
     14 C          -7.4203  -16.5639   22.7036 C.3     1  UNL1        0.0989
     15 C          -4.8952  -19.5208   21.9095 C.ar    1  UNL1        0.1344
     16 C          -5.7514  -20.4011   21.0481 C.ar    1  UNL1        0.0366
     17 C          -7.1639  -20.0023   20.7385 C.ar    1  UNL1        0.0028
     18 C          -7.7201  -18.7232   21.2903 C.ar    1  UNL1       -0.0030
     19 C          -6.8639  -17.8430   22.1518 C.ar    1  UNL1       -0.0072
     20 C          -5.4515  -18.2418   22.4614 C.ar    1  UNL1        0.0095
     21 C          -4.5953  -17.3615   23.3228 C.3     1  UNL1        0.0339
     22 C          -2.3896  -19.6353   21.2321 C.3     1  UNL1        0.2525
     23 O          -3.4827  -19.9197   22.2191 O.3     1  UNL1       -0.4718
@<TRIPOS>BOND
     1    22    23    1
     2    23    15    1
     3    15    16   ar
     4    16    17   ar
     5    17    18   ar
     6    18    19   ar
     7    19    14    1
     8    14     1    1
     9     1     2    1
    10     2     3    1
    11     3     4    1
    12     4     5    1
    13     5     6    1
    14     6     7    1
    15     8     1    1
    16     8     9    1
    17     9    10    1
    18    10    11    1
    19    11    12    1
    20    19    20   ar
    21    20    21    1
    22    20    15   ar
    23     7     2    1
    24    12     8    1
    25    11    13    1
@<TRIPOS>MOLECULE
*****
 23 25 0 0 0
SMALL
GASTEIGER

@<TRIPOS>ATOM
      1 N          -6.0801  -18.8236   22.2462 N.3     1  UNL1       -0.2700
      2 C          -6.1634  -17.4807   22.9096 C.3     1  UNL1        0.0628
      3 C          -4.9698  -16.9231   23.6266 C.3     1  UNL1        0.0481
      4 C          -5.0531  -15.5803   24.2899 C.3     1  UNL1        0.1435
      5 O          -6.3301  -14.7952   24.2361 O.3     1  UNL1       -0.3537
      6 C          -7.5238  -15.3528   23.5190 C.3     1  UNL1        0.1435
      7 C          -7.4404  -16.6956   22.8558 C.3     1  UNL1        0.0481
      8 C          -4.8601  -19.1958   21.4570 C.3     1  UNL1        0.0748
      9 C          -4.7167  -19.1175   19.9659 C.3     1  UNL1        0.0344
     10 C          -3.3372  -19.5850   19.6077 C.3     1  UNL1        0.0700
     11 N          -2.6279  -19.9523   20.8773 N.3     1  UNL1       -0.2963
     12 C          -3.5691  -19.7117   22.0203 C.3     1  UNL1        0.0847
     13 H          -1.7945  -19.3747   20.9878 H       1  UNL1        0.1233
     14 C          -7.2169  -19.7941   22.3722 C.3     1  UNL1        0.0989
     15 C         -11.0844  -18.9801   22.0119 C.ar    1  UNL1        0.1344
     16 C         -11.2067  -18.8382   20.5236 C.ar    1  UNL1        0.0366
     17 C          -9.9992  -19.0148   19.6516 C.ar    1  UNL1        0.0028
     18 C          -8.6693  -19.3335   20.2677 C.ar    1  UNL1       -0.0030
     19 C          -8.5469  -19.4754   21.7560 C.ar    1  UNL1       -0.0072
     20 C          -9.7545  -19.2988   22.6280 C.ar    1  UNL1        0.0095
     21 C          -9.6321  -19.4408   24.1163 C.3     1  UNL1        0.0339
     22 C         -12.9209  -17.4494   23.0288 C.3     1  UNL1        0.2525
     23 O         -12.2920  -18.8035   22.8839 O.3     1  UNL1       -0.4718
@<TRIPOS>BOND
     1    22    23    1
     2    23    15    1
     3    15    16   ar
     4    16    17   ar
     5    17    18   ar
     6    18    19   ar
     7    19    14    1
     8    14     1    1
     9     1     2    1
    10     2     3    1
    11     3     4    1
    12     4     5    1
    13     5     6    1
    14     6     7    1
    15     8     1    1
    16     8     9    1
    17     9    10    1
    18    10    11    1
    19    11    12    1
    20    19    20   ar
    21    20    21    1
    22    20    15   ar
    23     7     2    1
    24    12     8    1
    25    11    13    1
@<TRIPOS>MOLECULE
*****
 23 25 0 0 0
SMALL
GASTEIGER

@<TRIPOS>ATOM
      1 N          -6.5525  -18.1759   21.9785 N.3     1  UNL1       -0.2700
      2 C          -6.4665  -17.0198   22.9305 C.3     1  UNL1        0.0628
      3 C          -7.6786  -16.1783   23.1999 C.3     1  UNL1        0.0481
      4 C          -7.5926  -15.0224   24.1519 C.3     1  UNL1        0.1435
      5 O          -6.2944  -14.7079   24.8344 O.3     1  UNL1       -0.3537
      6 C          -5.0823  -15.5494   24.5650 C.3     1  UNL1        0.1435
      7 C          -5.1683  -16.7053   23.6131 C.3     1  UNL1        0.0481
      8 C          -5.3118  -18.9285   21.5987 C.3     1  UNL1        0.0748
      9 C          -4.9308  -19.3584   20.2131 C.3     1  UNL1        0.0344
     10 C          -3.6178  -20.0790   20.2958 C.3     1  UNL1        0.0700
     11 N          -3.1874  -20.0945   21.7327 N.3     1  UNL1       -0.2963
     12 C          -4.2343  -19.3835   22.5379 C.3     1  UNL1        0.0847
     13 H          -2.2915  -19.6168   21.8308 H       1  UNL1        0.1233
     14 C          -7.8791  -18.5792   21.4064 C.3     1  UNL1        0.0989
     15 C         -11.4766  -18.6818   23.0790 C.ar    1  UNL1        0.1344
     16 C         -11.2622  -19.7103   24.1496 C.ar    1  UNL1        0.0366
     17 C          -9.9202  -20.3618   24.3058 C.ar    1  UNL1        0.0028
     18 C          -8.7925  -19.9847   23.3915 C.ar    1  UNL1       -0.0030
     19 C          -9.0069  -18.9563   22.3208 C.ar    1  UNL1       -0.0072
     20 C         -10.3489  -18.3048   22.1646 C.ar    1  UNL1        0.0095
     21 C         -10.5633  -17.2763   21.0940 C.3     1  UNL1        0.0339
     22 C         -13.8034  -18.0609   24.0538 C.3     1  UNL1        0.2525
     23 O         -12.8187  -18.0303   22.9227 O.3     1  UNL1       -0.4718
@<TRIPOS>BOND
     1    22    23    1
     2    23    15    1
     3    15    16   ar
     4    16    17   ar
     5    17    18   ar
     6    18    19   ar
     7    19    14    1
     8    14     1    1
     9     1     2    1
    10     2     3    1
    11     3     4    1
    12     4     5    1
    13     5     6    1
    14     6     7    1
    15     8     1    1
    16     8     9    1
    17     9    10    1
    18    10    11    1
    19    11    12    1
    20    19    20   ar
    21    20    21    1
    22    20    15   ar
    23     7     2    1
    24    12     8    1
    25    11    13    1
@<TRIPOS>MOLECULE
*****
 23 25 0 0 0
SMALL
GASTEIGER

@<TRIPOS>ATOM
      1 N          -7.5904  -18.8881   21.9650 N.3     1  UNL1       -0.2700
      2 C          -8.0004  -17.7969   22.9092 C.3     1  UNL1        0.0628
      3 C          -7.5139  -16.3948   22.6916 C.3     1  UNL1        0.0481
      4 C          -7.9239  -15.3038   23.6357 C.3     1  UNL1        0.1435
      5 O          -8.8205  -15.6148   24.7974 O.3     1  UNL1       -0.3537
      6 C          -9.3071  -17.0169   25.0149 C.3     1  UNL1        0.1435
      7 C          -8.8970  -18.1080   24.0708 C.3     1  UNL1        0.0481
      8 C          -8.4536  -19.2221   20.7846 C.3     1  UNL1        0.0748
      9 C          -7.9796  -19.7809   19.4757 C.3     1  UNL1        0.0344
     10 C          -9.1754  -19.9601   18.5880 C.3     1  UNL1        0.0700
     11 N         -10.3884  -19.5122   19.3483 N.3     1  UNL1       -0.2963
     12 C          -9.9423  -19.0561   20.7058 C.3     1  UNL1        0.0847
     13 H         -11.0442  -20.2878   19.4419 H       1  UNL1        0.1233
     14 C          -6.3172  -19.6451   22.2013 C.3     1  UNL1        0.0989
     15 C          -2.7560  -18.5194   20.8596 C.ar    1  UNL1        0.1344
     16 C          -2.3556  -17.5303   21.9138 C.ar    1  UNL1        0.0366
     17 C          -3.2757  -17.2462   23.0639 C.ar    1  UNL1        0.0028
     18 C          -4.5962  -17.9511   23.1597 C.ar    1  UNL1       -0.0030
     19 C          -4.9966  -18.9402   22.1054 C.ar    1  UNL1       -0.0072
     20 C          -4.0765  -19.2243   20.9554 C.ar    1  UNL1        0.0095
     21 C          -4.4769  -20.2134   19.9012 C.3     1  UNL1        0.0339
     22 C          -1.7047  -17.8124   18.5914 C.3     1  UNL1        0.2525
     23 O          -1.8358  -18.8035   19.7095 O.3     1  UNL1       -0.4718
@<TRIPOS>BOND
     1    22    23    1
     2    23    15    1
     3    15    16   ar
     4    16    17   ar
     5    17    18   ar
     6    18    19   ar
     7    19    14    1
     8    14     1    1
     9     1     2    1
    10     2     3    1
    11     3     4    1
    12     4     5    1
    13     5     6    1
    14     6     7    1
    15     8     1    1
    16     8     9    1
    17     9    10    1
    18    10    11    1
    19    11    12    1
    20    19    20   ar
    21    20    21    1
    22    20    15   ar
    23     7     2    1
    24    12     8    1
    25    11    13    1
@<TRIPOS>MOLECULE
*****
 23 25 0 0 0
SMALL
GASTEIGER

@<TRIPOS>ATOM
      1 N          -7.4524  -18.2041   21.9347 N.3     1  UNL1       -0.2700
      2 C          -6.1999  -18.9447   21.5703 C.3     1  UNL1        0.0628
      3 C          -6.1940  -19.8748   20.3935 C.3     1  UNL1        0.0481
      4 C          -4.9415  -20.6153   20.0291 C.3     1  UNL1        0.1435
      5 O          -3.6949  -20.4258   20.8415 O.3     1  UNL1       -0.3537
      6 C          -3.7008  -19.4958   22.0183 C.3     1  UNL1        0.1435
      7 C          -4.9533  -18.7552   22.3827 C.3     1  UNL1        0.0481
      8 C          -8.7549  -18.9404   22.0414 C.3     1  UNL1        0.0748
      9 C          -9.1981  -19.7851   23.1990 C.3     1  UNL1        0.0344
     10 C         -10.5600  -20.3280   22.8822 C.3     1  UNL1        0.0700
     11 N         -10.9586  -19.8189   21.5287 N.3     1  UNL1       -0.2963
     12 C          -9.8430  -18.9613   21.0091 C.3     1  UNL1        0.0847
     13 H         -11.8131  -19.2670   21.6043 H       1  UNL1        0.1233
     14 C          -7.4024  -16.7273   22.1926 C.3     1  UNL1        0.0989
     15 C          -7.4098  -15.4956   25.9652 C.ar    1  UNL1        0.1344
     16 C          -5.9560  -15.1844   26.1646 C.ar    1  UNL1        0.0366
     17 C          -4.9844  -15.3876   25.0401 C.ar    1  UNL1        0.0028
     18 C          -5.4665  -15.9019   23.7161 C.ar    1  UNL1       -0.0030
     19 C          -6.9203  -16.2130   23.5166 C.ar    1  UNL1       -0.0072
     20 C          -7.8919  -16.0099   24.6412 C.ar    1  UNL1        0.0095
     21 C          -9.3457  -16.3210   24.4417 C.3     1  UNL1        0.0339
     22 C          -8.7524  -16.4431   27.9775 C.3     1  UNL1        0.2525
     23 O          -8.3814  -15.2924   27.0898 O.3     1  UNL1       -0.4718
@<TRIPOS>BOND
     1    22    23    1
     2    23    15    1
     3    15    16   ar
     4    16    17   ar
     5    17    18   ar
     6    18    19   ar
     7    19    14    1
     8    14     1    1
     9     1     2    1
    10     2     3    1
    11     3     4    1
    12     4     5    1
    13     5     6    1
    14     6     7    1
    15     8     1    1
    16     8     9    1
    17     9    10    1
    18    10    11    1
    19    11    12    1
    20    19    20   ar
    21    20    21    1
    22    20    15   ar
    23     7     2    1
    24    12     8    1
    25    11    13    1
