@<TRIPOS>MOLECULE
*****
 29 32 0 0 0
SMALL
GASTEIGER

@<TRIPOS>ATOM
      1 N           8.0845   -4.5696   25.8401 N.pl3   1  UNL1       -0.3017
      2 C           6.7505   -4.3169   25.2026 C.3     1  UNL1        0.1124
      3 C           6.6575   -4.0886   23.7230 C.3     1  UNL1        0.1152
      4 N           7.8986   -4.1130   22.8808 N.am    1  UNL1       -0.2713
      5 C           7.8056   -3.8846   21.4013 C.2     1  UNL1        0.2686
      6 O           9.0466   -3.9091   20.5592 O.2     1  UNL1       -0.2682
      7 C           9.2326   -4.3657   23.5183 C.3     1  UNL1        0.1152
      8 C           9.3256   -4.5940   24.9980 C.3     1  UNL1        0.1124
      9 C           7.9325   -6.1658   27.8844 C.ar    1  UNL1        0.1519
     10 C           8.0255   -6.3941   29.3639 C.ar    1  UNL1        0.0382
     11 C           8.3634   -5.2545   30.2789 C.ar    1  UNL1        0.0032
     12 C           8.6083   -3.8866   29.7142 C.ar    1  UNL1        0.0015
     13 C           8.5154   -3.6584   28.2347 C.ar    1  UNL1        0.0176
     14 C           8.1775   -4.7980   27.3197 C.ar    1  UNL1        0.0824
     15 C           8.6906   -8.1295   26.3614 C.3     1  UNL1        0.2525
     16 O           7.5946   -7.3055   26.9694 O.3     1  UNL1       -0.4702
     17 C           6.4715   -3.6319   20.7638 C.ar    1  UNL1        0.1557
     18 C           5.8340   -2.2903   20.5552 C.ar    1  UNL1        0.0442
     19 C           4.5092   -2.5056   19.8854 C.ar    1  UNL1        0.0796
     20 N           4.3280   -3.9804   19.6800 N.ar    1  UNL1       -0.2487
     21 C           3.1422   -4.6428   19.0435 C.3     1  UNL1        0.1537
     22 N           5.5407   -4.6764   20.2229 N.ar    1  UNL1       -0.1646
     23 C           3.5365   -1.4343   19.4904 C.ar    1  UNL1        0.0174
     24 C           2.2520   -1.2713   20.2477 C.ar    1  UNL1        0.0023
     25 C           1.2792   -0.2000   19.8527 C.ar    1  UNL1        0.0114
     26 C           1.5910    0.7084   18.7005 C.ar    1  UNL1        0.0577
     27 CL          0.6182    1.7797   18.3055 Cl      1  UNL1       -0.0822
     28 C           2.8756    0.5454   17.9432 C.ar    1  UNL1        0.0114
     29 C           3.8483   -0.5259   18.3382 C.ar    1  UNL1        0.0023
@<TRIPOS>BOND
     1    15    16    1
     2    16     9    1
     3     9    10   ar
     4    10    11   ar
     5    11    12   ar
     6    12    13   ar
     7    13    14   ar
     8    14     1    1
     9     1     2    1
    10     2     3    1
    11     3     4    1
    12     4     5   am
    13     5     6    2
    14     5    17    1
    15    17    18   ar
    16    18    19   ar
    17    19    23    1
    18    23    24   ar
    19    24    25   ar
    20    25    26   ar
    21    26    27    1
    22    26    28   ar
    23    28    29   ar
    24    19    20   ar
    25    20    21    1
    26    20    22   ar
    27     4     7    1
    28     7     8    1
    29    14     9   ar
    30     8     1    1
    31    22    17   ar
    32    29    23   ar
@<TRIPOS>MOLECULE
*****
 29 32 0 0 0
SMALL
GASTEIGER

@<TRIPOS>ATOM
      1 N           8.2572   -4.9567   25.7028 N.pl3   1  UNL1       -0.3017
      2 C           6.9075   -4.7369   25.0863 C.3     1  UNL1        0.1124
      3 C           6.7969   -4.3523   23.6407 C.3     1  UNL1        0.1152
      4 N           8.0361   -4.1874   22.8115 N.am    1  UNL1       -0.2713
      5 C           7.9255   -3.8027   21.3660 C.2     1  UNL1        0.2686
      6 O           9.1647   -3.6378   20.5369 O.2     1  UNL1       -0.2682
      7 C           9.3858   -4.4072   23.4281 C.3     1  UNL1        0.1152
      8 C           9.4963   -4.7919   24.8737 C.3     1  UNL1        0.1124
      9 C           8.1446   -4.3130   28.2174 C.ar    1  UNL1        0.1519
     10 C           8.2551   -4.6978   29.6630 C.ar    1  UNL1        0.0382
     11 C           8.5887   -6.1108   30.0396 C.ar    1  UNL1        0.0032
     12 C           8.8118   -7.1392   28.9707 C.ar    1  UNL1        0.0015
     13 C           8.7013   -6.7545   27.5251 C.ar    1  UNL1        0.0176
     14 C           8.3677   -5.3414   27.1485 C.ar    1  UNL1        0.0824
     15 C           6.4044   -2.3982   27.9820 C.3     1  UNL1        0.2525
     16 O           7.8109   -2.8999   27.8407 O.3     1  UNL1       -0.4702
     17 C           6.5759   -3.5829   20.7494 C.ar    1  UNL1        0.1557
     18 C           5.9130   -2.2556   20.5287 C.ar    1  UNL1        0.0442
     19 C           4.5795   -2.5042   19.8882 C.ar    1  UNL1        0.0796
     20 N           4.4183   -3.9852   19.7131 N.ar    1  UNL1       -0.2487
     21 C           3.2317   -4.6779   19.1115 C.3     1  UNL1        0.1537
     22 N           5.6521   -4.6518   20.2454 N.ar    1  UNL1       -0.1646
     23 C           3.5824   -1.4558   19.4923 C.ar    1  UNL1        0.0174
     24 C           2.3417   -1.2538   20.3108 C.ar    1  UNL1        0.0023
     25 C           1.3446   -0.2055   19.9150 C.ar    1  UNL1        0.0114
     26 C           1.5882    0.6408   18.7007 C.ar    1  UNL1        0.0577
     27 CL          0.5910    1.6892   18.3049 Cl      1  UNL1       -0.0822
     28 C           2.8289    0.4388   17.8823 C.ar    1  UNL1        0.0114
     29 C           3.8260   -0.6095   18.2781 C.ar    1  UNL1        0.0023
@<TRIPOS>BOND
     1    15    16    1
     2    16     9    1
     3     9    10   ar
     4    10    11   ar
     5    11    12   ar
     6    12    13   ar
     7    13    14   ar
     8    14     1    1
     9     1     2    1
    10     2     3    1
    11     3     4    1
    12     4     5   am
    13     5     6    2
    14     5    17    1
    15    17    18   ar
    16    18    19   ar
    17    19    23    1
    18    23    24   ar
    19    24    25   ar
    20    25    26   ar
    21    26    27    1
    22    26    28   ar
    23    28    29   ar
    24    19    20   ar
    25    20    21    1
    26    20    22   ar
    27     4     7    1
    28     7     8    1
    29    14     9   ar
    30     8     1    1
    31    22    17   ar
    32    29    23   ar
@<TRIPOS>MOLECULE
*****
 29 32 0 0 0
SMALL
GASTEIGER

@<TRIPOS>ATOM
      1 N           2.8918    0.1729   18.8819 N.pl3   1  UNL1       -0.3017
      2 C           1.3951    0.1649   18.9811 C.3     1  UNL1        0.1124
      3 C           0.6292    1.4497   18.8684 C.3     1  UNL1        0.1152
      4 N           1.3599    2.7424   18.6565 N.am    1  UNL1       -0.2713
      5 C           0.5940    4.0272   18.5438 C.2     1  UNL1        0.2686
      6 O           1.3247    5.3198   18.3319 O.2     1  UNL1       -0.2682
      7 C           2.8566    2.7504   18.5573 C.3     1  UNL1        0.1152
      8 C           3.6225    1.4655   18.6700 C.3     1  UNL1        0.1124
      9 C           4.6883   -1.4638   17.9631 C.ar    1  UNL1        0.1519
     10 C           5.4541   -2.7485   18.0759 C.ar    1  UNL1        0.0382
     11 C           5.1894   -3.6815   19.2202 C.ar    1  UNL1        0.0032
     12 C           4.1589   -3.3297   20.2518 C.ar    1  UNL1        0.0015
     13 C           3.3930   -2.0450   20.1390 C.ar    1  UNL1        0.0176
     14 C           3.6577   -1.1120   18.9947 C.ar    1  UNL1        0.0824
     15 C           6.2379    0.2409   16.7620 C.3     1  UNL1        0.2525
     16 O           4.9529   -0.5308   16.8188 O.3     1  UNL1       -0.4702
     17 C          -0.9027    4.0192   18.6430 C.ar    1  UNL1        0.1557
     18 C          -1.7032    4.1302   19.9067 C.ar    1  UNL1        0.0442
     19 C          -3.1569    4.0785   19.5406 C.ar    1  UNL1        0.0796
     20 N          -3.2549    3.9356   18.0506 N.ar    1  UNL1       -0.2487
     21 C          -4.5233    3.8451   17.2551 C.3     1  UNL1        0.1537
     22 N          -1.8617    3.8989   17.4959 N.ar    1  UNL1       -0.1646
     23 C          -4.3102    4.1561   20.4966 C.ar    1  UNL1        0.0174
     24 C          -4.3391    3.2746   21.7099 C.ar    1  UNL1        0.0023
     25 C          -5.4923    3.3522   22.6660 C.ar    1  UNL1        0.0114
     26 C          -6.6165    4.3112   22.4087 C.ar    1  UNL1        0.0577
     27 CL         -7.7698    4.3888   23.3649 Cl      1  UNL1       -0.0822
     28 C          -6.5876    5.1927   21.1954 C.ar    1  UNL1        0.0114
     29 C          -5.4345    5.1152   20.2394 C.ar    1  UNL1        0.0023
@<TRIPOS>BOND
     1    15    16    1
     2    16     9    1
     3     9    10   ar
     4    10    11   ar
     5    11    12   ar
     6    12    13   ar
     7    13    14   ar
     8    14     1    1
     9     1     2    1
    10     2     3    1
    11     3     4    1
    12     4     5   am
    13     5     6    2
    14     5    17    1
    15    17    18   ar
    16    18    19   ar
    17    19    23    1
    18    23    24   ar
    19    24    25   ar
    20    25    26   ar
    21    26    27    1
    22    26    28   ar
    23    28    29   ar
    24    19    20   ar
    25    20    21    1
    26    20    22   ar
    27     4     7    1
    28     7     8    1
    29    14     9   ar
    30     8     1    1
    31    22    17   ar
    32    29    23   ar
@<TRIPOS>MOLECULE
*****
 29 32 0 0 0
SMALL
GASTEIGER

@<TRIPOS>ATOM
      1 N          -3.8366    4.3322   21.2283 N.pl3   1  UNL1       -0.3017
      2 C          -2.5855    3.6035   21.6202 C.3     1  UNL1        0.1124
      3 C          -1.5221    3.3349   20.5969 C.3     1  UNL1        0.1152
      4 N          -1.7099    3.7951   19.1816 N.am    1  UNL1       -0.2713
      5 C          -0.6466    3.5266   18.1583 C.2     1  UNL1        0.2686
      6 O          -0.8344    3.9867   16.7431 O.2     1  UNL1       -0.2682
      7 C          -2.9610    4.5239   18.7897 C.3     1  UNL1        0.1152
      8 C          -4.0244    4.7924   19.8130 C.3     1  UNL1        0.1124
      9 C          -4.6058    5.4900   23.4232 C.ar    1  UNL1        0.1519
     10 C          -5.6691    5.7585   24.4465 C.ar    1  UNL1        0.0382
     11 C          -7.0266    5.1378   24.2982 C.ar    1  UNL1        0.0032
     12 C          -7.3207    4.2486   23.1266 C.ar    1  UNL1        0.0015
     13 C          -6.2574    3.9801   22.1033 C.ar    1  UNL1        0.0176
     14 C          -4.8999    4.6008   22.2516 C.ar    1  UNL1        0.0824
     15 C          -2.3750    5.7360   24.7321 C.3     1  UNL1        0.2525
     16 O          -3.2483    6.1107   23.5716 O.3     1  UNL1       -0.4702
     17 C           0.6046    2.7978   18.5503 C.ar    1  UNL1        0.1557
     18 C           0.8840    1.3414   18.3247 C.ar    1  UNL1        0.0442
     19 C           2.2481    1.0410   18.8716 C.ar    1  UNL1        0.0796
     20 N           2.8117    2.3117   19.4352 N.ar    1  UNL1       -0.2487
     21 C           4.1551    2.4691   20.0835 C.3     1  UNL1        0.1537
     22 N           1.7959    3.3975   19.2366 N.ar    1  UNL1       -0.1646
     23 C           2.9289   -0.2955   18.8575 C.ar    1  UNL1        0.0174
     24 C           3.9327   -0.6145   17.7895 C.ar    1  UNL1        0.0023
     25 C           4.6136   -1.9509   17.7752 C.ar    1  UNL1        0.0114
     26 C           4.2907   -2.9684   18.8290 C.ar    1  UNL1        0.0577
     27 CL          4.9716   -4.3049   18.8148 Cl      1  UNL1       -0.0822
     28 C           3.2869   -2.6494   19.8970 C.ar    1  UNL1        0.0114
     29 C           2.6060   -1.3130   19.9112 C.ar    1  UNL1        0.0023
@<TRIPOS>BOND
     1    15    16    1
     2    16     9    1
     3     9    10   ar
     4    10    11   ar
     5    11    12   ar
     6    12    13   ar
     7    13    14   ar
     8    14     1    1
     9     1     2    1
    10     2     3    1
    11     3     4    1
    12     4     5   am
    13     5     6    2
    14     5    17    1
    15    17    18   ar
    16    18    19   ar
    17    19    23    1
    18    23    24   ar
    19    24    25   ar
    20    25    26   ar
    21    26    27    1
    22    26    28   ar
    23    28    29   ar
    24    19    20   ar
    25    20    21    1
    26    20    22   ar
    27     4     7    1
    28     7     8    1
    29    14     9   ar
    30     8     1    1
    31    22    17   ar
    32    29    23   ar
@<TRIPOS>MOLECULE
*****
 29 32 0 0 0
SMALL
GASTEIGER

@<TRIPOS>ATOM
      1 N           2.9689    0.1037   18.9773 N.pl3   1  UNL1       -0.3017
      2 C           1.4727    0.1125   19.0844 C.3     1  UNL1        0.1124
      3 C           0.7144    1.3920   18.8901 C.3     1  UNL1        0.1152
      4 N           1.4522    2.6628   18.5887 N.am    1  UNL1       -0.2713
      5 C           0.6939    3.9423   18.3943 C.2     1  UNL1        0.2686
      6 O           1.4317    5.2129   18.0929 O.2     1  UNL1       -0.2682
      7 C           2.9484    2.6540   18.4816 C.3     1  UNL1        0.1152
      8 C           3.7067    1.3744   18.6759 C.3     1  UNL1        0.1124
      9 C           3.7299   -1.8500   20.5116 C.ar    1  UNL1        0.1519
     10 C           4.4881   -3.1295   20.7059 C.ar    1  UNL1        0.0382
     11 C           5.2438   -3.7349   19.5603 C.ar    1  UNL1        0.0032
     12 C           5.2411   -3.0608   18.2203 C.ar    1  UNL1        0.0015
     13 C           4.4828   -1.7813   18.0260 C.ar    1  UNL1        0.0176
     14 C           3.7272   -1.1759   19.1717 C.ar    1  UNL1        0.0824
     15 C           3.5542   -1.2794   23.0402 C.3     1  UNL1        0.2525
     16 O           2.9742   -1.2446   21.6573 O.3     1  UNL1       -0.4702
     17 C          -0.8022    3.9510   18.5014 C.ar    1  UNL1        0.1557
     18 C          -1.5948    4.0625   19.7701 C.ar    1  UNL1        0.0442
     19 C          -3.0509    4.0303   19.4114 C.ar    1  UNL1        0.0796
     20 N          -3.1583    3.8989   17.9210 N.ar    1  UNL1       -0.2487
     21 C          -4.4319    3.8288   17.1316 C.3     1  UNL1        0.1537
     22 N          -1.7686    3.8499   17.3587 N.ar    1  UNL1       -0.1646
     23 C          -4.1981    4.1146   20.3741 C.ar    1  UNL1        0.0174
     24 C          -4.2306    3.2257   21.5818 C.ar    1  UNL1        0.0023
     25 C          -5.3777    3.3099   22.5445 C.ar    1  UNL1        0.0114
     26 C          -6.4925    4.2832   22.2994 C.ar    1  UNL1        0.0577
     27 CL         -7.6398    4.3675   23.2622 Cl      1  UNL1       -0.0822
     28 C          -6.4600    5.1721   21.0917 C.ar    1  UNL1        0.0114
     29 C          -5.3129    5.0879   20.1290 C.ar    1  UNL1        0.0023
@<TRIPOS>BOND
     1    15    16    1
     2    16     9    1
     3     9    10   ar
     4    10    11   ar
     5    11    12   ar
     6    12    13   ar
     7    13    14   ar
     8    14     1    1
     9     1     2    1
    10     2     3    1
    11     3     4    1
    12     4     5   am
    13     5     6    2
    14     5    17    1
    15    17    18   ar
    16    18    19   ar
    17    19    23    1
    18    23    24   ar
    19    24    25   ar
    20    25    26   ar
    21    26    27    1
    22    26    28   ar
    23    28    29   ar
    24    19    20   ar
    25    20    21    1
    26    20    22   ar
    27     4     7    1
    28     7     8    1
    29    14     9   ar
    30     8     1    1
    31    22    17   ar
    32    29    23   ar
@<TRIPOS>MOLECULE
*****
 29 32 0 0 0
SMALL
GASTEIGER

@<TRIPOS>ATOM
      1 N          -2.4647    3.8822   22.6132 N.pl3   1  UNL1       -0.3017
      2 C          -1.1624    3.1410   22.5464 C.3     1  UNL1        0.1124
      3 C          -0.4713    2.9561   21.2280 C.3     1  UNL1        0.1152
      4 N          -1.0827    3.5125   19.9762 N.am    1  UNL1       -0.2713
      5 C          -0.3917    3.3276   18.6578 C.2     1  UNL1        0.2686
      6 O          -1.0030    3.8840   17.4062 O.2     1  UNL1       -0.2682
      7 C          -2.3851    4.2537   20.0430 C.3     1  UNL1        0.1152
      8 C          -3.0761    4.4385   21.3615 C.3     1  UNL1        0.1124
      9 C          -4.6230    3.7814   24.0560 C.ar    1  UNL1        0.1519
     10 C          -5.3139    3.9662   25.3745 C.ar    1  UNL1        0.0382
     11 C          -4.5376    4.4367   26.5686 C.ar    1  UNL1        0.0032
     12 C          -3.0704    4.7223   26.4443 C.ar    1  UNL1        0.0015
     13 C          -2.3794    4.5375   25.1258 C.ar    1  UNL1        0.0176
     14 C          -3.1557    4.0670   23.9317 C.ar    1  UNL1        0.0824
     15 C          -6.6132    4.0677   22.4107 C.3     1  UNL1        0.2525
     16 O          -5.3993    3.3109   22.8619 O.3     1  UNL1       -0.4702
     17 C           0.9107    2.5864   18.5910 C.ar    1  UNL1        0.1557
     18 C           1.0910    1.1052   18.7441 C.ar    1  UNL1        0.0442
     19 C           2.5532    0.7996   18.6071 C.ar    1  UNL1        0.0796
     20 N           3.2765    2.0920   18.3694 N.ar    1  UNL1       -0.2487
     21 C           4.7553    2.2520   18.1757 C.3     1  UNL1        0.1537
     22 N           2.2614    3.1963   18.3595 N.ar    1  UNL1       -0.1646
     23 C           3.1816   -0.5597   18.6928 C.ar    1  UNL1        0.0174
     24 C           4.1414   -1.0104   17.6319 C.ar    1  UNL1        0.0023
     25 C           4.7698   -2.3697   17.7175 C.ar    1  UNL1        0.0114
     26 C           4.4385   -3.2782   18.8642 C.ar    1  UNL1        0.0577
     27 CL          5.0670   -4.6376   18.9498 Cl      1  UNL1       -0.0822
     28 C           3.4787   -2.8275   19.9251 C.ar    1  UNL1        0.0114
     29 C           2.8503   -1.4682   19.8395 C.ar    1  UNL1        0.0023
@<TRIPOS>BOND
     1    15    16    1
     2    16     9    1
     3     9    10   ar
     4    10    11   ar
     5    11    12   ar
     6    12    13   ar
     7    13    14   ar
     8    14     1    1
     9     1     2    1
    10     2     3    1
    11     3     4    1
    12     4     5   am
    13     5     6    2
    14     5    17    1
    15    17    18   ar
    16    18    19   ar
    17    19    23    1
    18    23    24   ar
    19    24    25   ar
    20    25    26   ar
    21    26    27    1
    22    26    28   ar
    23    28    29   ar
    24    19    20   ar
    25    20    21    1
    26    20    22   ar
    27     4     7    1
    28     7     8    1
    29    14     9   ar
    30     8     1    1
    31    22    17   ar
    32    29    23   ar
@<TRIPOS>MOLECULE
*****
 29 32 0 0 0
SMALL
GASTEIGER

@<TRIPOS>ATOM
      1 N           6.5171   -3.1795   31.2840 N.pl3   1  UNL1       -0.3017
      2 C           6.5222   -2.5878   29.9056 C.3     1  UNL1        0.1124
      3 C           6.9809   -3.4102   28.7381 C.3     1  UNL1        0.1152
      4 N           7.4346   -4.8244   28.9489 N.am    1  UNL1       -0.2713
      5 C           7.8933   -5.6468   27.7814 C.2     1  UNL1        0.2686
      6 O           8.3469   -7.0609   27.9922 O.2     1  UNL1       -0.2682
      7 C           7.4295   -5.4161   30.3272 C.3     1  UNL1        0.1152
      8 C           6.9707   -4.5936   31.4948 C.3     1  UNL1        0.1124
      9 C           6.9973   -1.3813   33.0967 C.ar    1  UNL1        0.1519
     10 C           6.5385   -0.5589   34.2642 C.ar    1  UNL1        0.0382
     11 C           5.1408   -0.7122   34.7865 C.ar    1  UNL1        0.0032
     12 C           4.2018   -1.6879   34.1414 C.ar    1  UNL1        0.0015
     13 C           4.6606   -2.5103   32.9739 C.ar    1  UNL1        0.0176
     14 C           6.0583   -2.3570   32.4516 C.ar    1  UNL1        0.0824
     15 C           9.4821   -2.1394   33.0619 C.3     1  UNL1        0.2525
     16 O           8.3950   -1.2280   32.5744 O.3     1  UNL1       -0.4702
     17 C           7.8984   -5.0551   26.4030 C.ar    1  UNL1        0.1557
     18 C           6.6928   -4.8057   25.5461 C.ar    1  UNL1        0.0442
     19 C           7.1593   -4.2054   24.2530 C.ar    1  UNL1        0.0796
     20 N           8.6532   -4.0838   24.3108 N.ar    1  UNL1       -0.2487
     21 C           9.5355   -3.5336   23.2296 C.3     1  UNL1        0.1537
     22 N           9.1100   -4.6089   25.6395 N.ar    1  UNL1       -0.1646
     23 C           6.2852   -3.7982   23.1040 C.ar    1  UNL1        0.0174
     24 C           6.6852   -4.1406   21.6994 C.ar    1  UNL1        0.0023
     25 C           5.8113   -3.7334   20.5504 C.ar    1  UNL1        0.0114
     26 C           4.5373   -2.9839   20.8059 C.ar    1  UNL1        0.0577
     27 CL          3.6633   -2.5767   19.6568 Cl      1  UNL1       -0.0822
     28 C           4.1374   -2.6416   22.2105 C.ar    1  UNL1        0.0114
     29 C           5.0113   -3.0487   23.3595 C.ar    1  UNL1        0.0023
@<TRIPOS>BOND
     1    15    16    1
     2    16     9    1
     3     9    10   ar
     4    10    11   ar
     5    11    12   ar
     6    12    13   ar
     7    13    14   ar
     8    14     1    1
     9     1     2    1
    10     2     3    1
    11     3     4    1
    12     4     5   am
    13     5     6    2
    14     5    17    1
    15    17    18   ar
    16    18    19   ar
    17    19    23    1
    18    23    24   ar
    19    24    25   ar
    20    25    26   ar
    21    26    27    1
    22    26    28   ar
    23    28    29   ar
    24    19    20   ar
    25    20    21    1
    26    20    22   ar
    27     4     7    1
    28     7     8    1
    29    14     9   ar
    30     8     1    1
    31    22    17   ar
    32    29    23   ar
@<TRIPOS>MOLECULE
*****
 29 32 0 0 0
SMALL
GASTEIGER

@<TRIPOS>ATOM
      1 N           6.3823   -2.3485   31.6619 N.pl3   1  UNL1       -0.3017
      2 C           6.5352   -1.7831   30.2809 C.3     1  UNL1        0.1124
      3 C           6.9053   -2.6825   29.1390 C.3     1  UNL1        0.1152
      4 N           7.1225   -4.1474   29.3779 N.am    1  UNL1       -0.2713
      5 C           7.4926   -5.0467   28.2360 C.2     1  UNL1        0.2686
      6 O           7.7098   -6.5115   28.4749 O.2     1  UNL1       -0.2682
      7 C           6.9696   -4.7128   30.7588 C.3     1  UNL1        0.1152
      8 C           6.5995   -3.8133   31.9008 C.3     1  UNL1        0.1124
      9 C           4.5763   -1.0821   33.0346 C.ar    1  UNL1        0.1519
     10 C           4.2062   -0.1827   34.1765 C.ar    1  UNL1        0.0382
     11 C           5.2722    0.3498   35.0877 C.ar    1  UNL1        0.0032
     12 C           6.7081   -0.0171   34.8570 C.ar    1  UNL1        0.0015
     13 C           7.0782   -0.9166   33.7150 C.ar    1  UNL1        0.0176
     14 C           6.0122   -1.4490   32.8039 C.ar    1  UNL1        0.0824
     15 C           2.9645   -0.7528   31.0237 C.3     1  UNL1        0.2525
     16 O           3.5103   -1.6146   32.1234 O.3     1  UNL1       -0.4702
     17 C           7.6455   -4.4813   26.8550 C.ar    1  UNL1        0.1557
     18 C           6.7024   -4.6901   25.7074 C.ar    1  UNL1        0.0442
     19 C           7.2423   -3.9457   24.5224 C.ar    1  UNL1        0.0796
     20 N           8.5191   -3.2768   24.9376 N.ar    1  UNL1       -0.2487
     21 C           9.3933   -2.4262   24.0645 C.3     1  UNL1        0.1537
     22 N           8.7683   -3.6079   26.3793 N.ar    1  UNL1       -0.1646
     23 C           6.6155   -3.8814   23.1612 C.ar    1  UNL1        0.0174
     24 C           7.4477   -4.1365   21.9395 C.ar    1  UNL1        0.0023
     25 C           6.8209   -4.0722   20.5783 C.ar    1  UNL1        0.0114
     26 C           5.3620   -3.7529   20.4387 C.ar    1  UNL1        0.0577
     27 CL          4.7352   -3.6886   19.0774 Cl      1  UNL1       -0.0822
     28 C           4.5298   -3.4978   21.6604 C.ar    1  UNL1        0.0114
     29 C           5.1565   -3.5621   23.0216 C.ar    1  UNL1        0.0023
@<TRIPOS>BOND
     1    15    16    1
     2    16     9    1
     3     9    10   ar
     4    10    11   ar
     5    11    12   ar
     6    12    13   ar
     7    13    14   ar
     8    14     1    1
     9     1     2    1
    10     2     3    1
    11     3     4    1
    12     4     5   am
    13     5     6    2
    14     5    17    1
    15    17    18   ar
    16    18    19   ar
    17    19    23    1
    18    23    24   ar
    19    24    25   ar
    20    25    26   ar
    21    26    27    1
    22    26    28   ar
    23    28    29   ar
    24    19    20   ar
    25    20    21    1
    26    20    22   ar
    27     4     7    1
    28     7     8    1
    29    14     9   ar
    30     8     1    1
    31    22    17   ar
    32    29    23   ar
@<TRIPOS>MOLECULE
*****
 29 32 0 0 0
SMALL
GASTEIGER

@<TRIPOS>ATOM
      1 N           4.0593    1.4716   36.0111 N.pl3   1  UNL1       -0.3017
      2 C           3.4308    1.8396   34.6998 C.3     1  UNL1        0.1124
      3 C           3.4970    0.8872   33.5429 C.3     1  UNL1        0.1152
      4 N           4.1916   -0.4334   33.6973 N.am    1  UNL1       -0.2713
      5 C           4.2577   -1.3858   32.5404 C.2     1  UNL1        0.2686
      6 O           4.9523   -2.7063   32.6948 O.2     1  UNL1       -0.2682
      7 C           4.8200   -0.8014   35.0086 C.3     1  UNL1        0.1152
      8 C           4.7539    0.1511   36.1655 C.3     1  UNL1        0.1124
      9 C           2.8658    2.3305   38.1530 C.ar    1  UNL1        0.1519
     10 C           2.7997    3.2830   39.3099 C.ar    1  UNL1        0.0382
     11 C           3.8610    4.3290   39.4817 C.ar    1  UNL1        0.0032
     12 C           4.9884    4.4226   38.4968 C.ar    1  UNL1        0.0015
     13 C           5.0545    3.4701   37.3399 C.ar    1  UNL1        0.0176
     14 C           3.9932    2.4241   37.1680 C.ar    1  UNL1        0.0824
     15 C           1.2440    0.5806   39.1812 C.3     1  UNL1        0.2525
     16 O           1.8046    1.2845   37.9812 O.3     1  UNL1       -0.4702
     17 C           3.6292   -1.0178   31.2290 C.ar    1  UNL1        0.1557
     18 C           4.3537   -0.8054   29.9329 C.ar    1  UNL1        0.0442
     19 C           3.3381   -0.4539   28.8864 C.ar    1  UNL1        0.0796
     20 N           1.9860   -0.4490   29.5358 N.ar    1  UNL1       -0.2487
     21 C           0.6828   -0.1484   28.8566 C.3     1  UNL1        0.1537
     22 N           2.1659   -0.7975   30.9836 N.ar    1  UNL1       -0.1646
     23 C           3.6245   -0.1590   27.4438 C.ar    1  UNL1        0.0174
     24 C           3.7631   -1.2841   26.4615 C.ar    1  UNL1        0.0023
     25 C           4.0495   -0.9893   25.0190 C.ar    1  UNL1        0.0114
     26 C           4.1971    0.4307   24.5587 C.ar    1  UNL1        0.0577
     27 CL          4.4835    0.7255   23.1160 Cl      1  UNL1       -0.0822
     28 C           4.0585    1.5558   25.5410 C.ar    1  UNL1        0.0114
     29 C           3.7722    1.2610   26.9835 C.ar    1  UNL1        0.0023
@<TRIPOS>BOND
     1    15    16    1
     2    16     9    1
     3     9    10   ar
     4    10    11   ar
     5    11    12   ar
     6    12    13   ar
     7    13    14   ar
     8    14     1    1
     9     1     2    1
    10     2     3    1
    11     3     4    1
    12     4     5   am
    13     5     6    2
    14     5    17    1
    15    17    18   ar
    16    18    19   ar
    17    19    23    1
    18    23    24   ar
    19    24    25   ar
    20    25    26   ar
    21    26    27    1
    22    26    28   ar
    23    28    29   ar
    24    19    20   ar
    25    20    21    1
    26    20    22   ar
    27     4     7    1
    28     7     8    1
    29    14     9   ar
    30     8     1    1
    31    22    17   ar
    32    29    23   ar
