@<TRIPOS>MOLECULE
*****
 31 35 0 0 0
SMALL
GASTEIGER

@<TRIPOS>ATOM
      1 O           4.5088   -0.5578   16.3264 O.2     1  UNL1       -0.2911
      2 C           3.8286   -0.7018   17.6556 C.2     1  UNL1        0.1795
      3 C           2.7086    0.2233   18.0291 C.3     1  UNL1        0.1092
      4 C           2.0284    0.0793   19.3583 C.3     1  UNL1        0.1436
      5 C           1.3483   -0.0648   20.6874 C.3     1  UNL1        0.0620
      6 C           0.2283    0.8603   21.0609 C.3     1  UNL1        0.0985
      7 N          -0.2116    1.9296   20.1053 N.am    1  UNL1       -0.2640
      8 C          -1.3317    2.8548   20.4789 C.2     1  UNL1        0.3039
      9 O          -1.7716    3.9240   19.5233 O.2     1  UNL1       -0.2526
     10 N          -2.0118    2.7107   21.8080 N.am    1  UNL1       -0.2904
     11 C           0.4685    2.0737   18.7762 C.3     1  UNL1        0.0985
     12 C           1.5885    1.1485   18.4027 C.3     1  UNL1        0.0620
     13 O           2.4683   -0.9900   20.3139 O.3     1  UNL1       -0.4819
     14 C           3.5884   -1.9152   19.9403 C.ar    1  UNL1        0.1409
     15 C           4.0283   -2.9844   20.8959 C.ar    1  UNL1        0.0370
     16 C           5.1483   -3.9096   20.5224 C.ar    1  UNL1        0.0031
     17 C           5.8285   -3.7655   19.1932 C.ar    1  UNL1        0.0003
     18 C           5.3886   -2.6963   18.2376 C.ar    1  UNL1        0.0059
     19 C           4.2685   -1.7711   18.6112 C.ar    1  UNL1        0.0687
     20 H          -1.7231    2.0089   22.4352 H       1  UNL1        0.1509
     21 C          -3.1319    3.6359   22.1816 C.3     1  UNL1        0.0737
     22 C          -4.4951    3.2346   21.7015 C.3     1  UNL1        0.0243
     23 C          -5.8038    3.9384   21.9071 C.3     1  UNL1        0.0277
     24 C          -6.0723    5.2172   22.6436 C.ar    1  UNL1       -0.0261
     25 C          -7.5292    5.5730   22.6107 C.ar    1  UNL1       -0.0046
     26 C          -8.0123    6.8196   23.2907 C.ar    1  UNL1       -0.0003
     27 C          -7.0386    7.7105   24.0035 C.ar    1  UNL1       -0.0003
     28 C          -5.5818    7.3548   24.0364 C.ar    1  UNL1       -0.0046
     29 C          -5.0986    6.1081   23.3565 C.ar    1  UNL1       -0.0261
     30 C          -3.6158    5.9403   23.5088 C.3     1  UNL1        0.0277
     31 C          -2.7406    4.8400   22.9860 C.3     1  UNL1        0.0243
@<TRIPOS>BOND
     1     1     2    2
     2     2     3    1
     3     3     4    1
     4     4     5    1
     5     5     6    1
     6     6     7    1
     7     7     8   am
     8     8     9    2
     9     8    10   am
    10    10    21    1
    11    21    22    1
    12    22    23    1
    13    23    24    1
    14    24    25   ar
    15    25    26   ar
    16    26    27   ar
    17    27    28   ar
    18    28    29   ar
    19    29    30    1
    20    30    31    1
    21     7    11    1
    22    11    12    1
    23     4    13    1
    24    13    14    1
    25    14    15   ar
    26    15    16   ar
    27    16    17   ar
    28    17    18   ar
    29    18    19   ar
    30    19     2    1
    31    12     4    1
    32    19    14   ar
    33    31    21    1
    34    29    24   ar
    35    10    20    1
@<TRIPOS>MOLECULE
*****
 31 35 0 0 0
SMALL
GASTEIGER

@<TRIPOS>ATOM
      1 O          -5.1551    5.9292   27.9756 O.2     1  UNL1       -0.2911
      2 C          -5.2079    5.5903   26.5152 C.2     1  UNL1        0.1795
      3 C          -4.0407    4.9136   25.8597 C.3     1  UNL1        0.1092
      4 C          -4.0934    4.5747   24.3994 C.3     1  UNL1        0.1436
      5 C          -4.1462    4.2358   22.9392 C.3     1  UNL1        0.0620
      6 C          -2.9790    3.5592   22.2837 C.3     1  UNL1        0.0985
      7 N          -1.7590    3.2214   23.0884 N.am    1  UNL1       -0.2640
      8 C          -0.5917    2.5448   22.4328 C.2     1  UNL1        0.3039
      9 O           0.6283    2.2070   23.2375 O.2     1  UNL1       -0.2526
     10 N          -0.6445    2.2059   20.9726 N.am    1  UNL1       -0.2904
     11 C          -1.7062    3.5603   24.5486 C.3     1  UNL1        0.0985
     12 C          -2.8734    4.2370   25.2041 C.3     1  UNL1        0.0620
     13 O          -5.3134    4.9125   23.5947 O.3     1  UNL1       -0.4819
     14 C          -6.4806    5.5891   24.2503 C.ar    1  UNL1        0.1409
     15 C          -7.7006    5.9269   23.4456 C.ar    1  UNL1        0.0370
     16 C          -8.8678    6.6035   24.1011 C.ar    1  UNL1        0.0031
     17 C          -8.8151    6.9424   25.5614 C.ar    1  UNL1        0.0003
     18 C          -7.5951    6.6047   26.3661 C.ar    1  UNL1        0.0059
     19 C          -6.4278    5.9280   25.7105 C.ar    1  UNL1        0.0687
     20 H          -1.4452    2.4276   20.4444 H       1  UNL1        0.1509
     21 C           0.5227    1.5292   20.3170 C.3     1  UNL1        0.0737
     22 C           0.6247    0.0490   20.5372 C.3     1  UNL1        0.0243
     23 C           1.6628   -0.9037   20.0226 C.3     1  UNL1        0.0277
     24 C           2.8552   -0.6115   19.1609 C.ar    1  UNL1       -0.0261
     25 C           3.6416   -1.8561   18.8732 C.ar    1  UNL1       -0.0046
     26 C           4.8769   -1.7835   18.0254 C.ar    1  UNL1       -0.0003
     27 C           5.3258   -0.4664   17.4653 C.ar    1  UNL1       -0.0003
     28 C           4.5394    0.7781   17.7530 C.ar    1  UNL1       -0.0046
     29 C           3.3041    0.7055   18.6008 C.ar    1  UNL1       -0.0261
     30 C           2.6715    2.0558   18.7641 C.3     1  UNL1        0.0277
     31 C           1.4336    2.4223   19.5279 C.3     1  UNL1        0.0243
@<TRIPOS>BOND
     1     1     2    2
     2     2     3    1
     3     3     4    1
     4     4     5    1
     5     5     6    1
     6     6     7    1
     7     7     8   am
     8     8     9    2
     9     8    10   am
    10    10    21    1
    11    21    22    1
    12    22    23    1
    13    23    24    1
    14    24    25   ar
    15    25    26   ar
    16    26    27   ar
    17    27    28   ar
    18    28    29   ar
    19    29    30    1
    20    30    31    1
    21     7    11    1
    22    11    12    1
    23     4    13    1
    24    13    14    1
    25    14    15   ar
    26    15    16   ar
    27    16    17   ar
    28    17    18   ar
    29    18    19   ar
    30    19     2    1
    31    12     4    1
    32    19    14   ar
    33    31    21    1
    34    29    24   ar
    35    10    20    1
@<TRIPOS>MOLECULE
*****
 31 35 0 0 0
SMALL
GASTEIGER

@<TRIPOS>ATOM
      1 O           1.7191    0.3765   21.1416 O.2     1  UNL1       -0.2911
      2 C           2.6170   -0.5117   21.9510 C.2     1  UNL1        0.1795
      3 C           2.8210   -0.2407   23.4121 C.3     1  UNL1        0.1092
      4 C           3.7188   -1.1290   24.2214 C.3     1  UNL1        0.1436
      5 C           4.6166   -2.0172   25.0307 C.3     1  UNL1        0.0620
      6 C           4.8206   -1.7462   26.4918 C.3     1  UNL1        0.0985
      7 N           4.1268   -0.5870   27.1437 N.am    1  UNL1       -0.2640
      8 C           4.3309   -0.3160   28.6049 C.2     1  UNL1        0.3039
      9 O           3.6371    0.8432   29.2567 O.2     1  UNL1       -0.2526
     10 N           5.2287   -1.2042   29.4141 N.am    1  UNL1       -0.2904
     11 C           3.2290    0.3012   26.3344 C.3     1  UNL1        0.0985
     12 C           3.0250    0.0302   24.8733 C.3     1  UNL1        0.0620
     13 O           4.4126   -2.2882   23.5696 O.3     1  UNL1       -0.4819
     14 C           4.2086   -2.5592   22.1084 C.ar    1  UNL1        0.1409
     15 C           4.9023   -3.7184   21.4566 C.ar    1  UNL1        0.0370
     16 C           4.6983   -3.9894   19.9955 C.ar    1  UNL1        0.0031
     17 C           3.8005   -3.1011   19.1861 C.ar    1  UNL1        0.0003
     18 C           3.1067   -1.9419   19.8379 C.ar    1  UNL1        0.0059
     19 C           3.3108   -1.6710   21.2991 C.ar    1  UNL1        0.0687
     20 H           5.6840   -1.9651   28.9863 H       1  UNL1        0.1509
     21 C           5.4327   -0.9333   30.8753 C.3     1  UNL1        0.0737
     22 C           4.2587   -1.2264   31.7617 C.3     1  UNL1        0.0243
     23 C           4.1459   -1.0636   33.2487 C.3     1  UNL1        0.0277
     24 C           5.1791   -0.5676   34.2163 C.ar    1  UNL1       -0.0261
     25 C           4.6552   -0.5608   35.6218 C.ar    1  UNL1       -0.0046
     26 C           5.5326   -0.0982   36.7470 C.ar    1  UNL1       -0.0003
     27 C           6.9338    0.3575   36.4668 C.ar    1  UNL1       -0.0003
     28 C           7.4578    0.3508   35.0613 C.ar    1  UNL1       -0.0046
     29 C           6.5804   -0.1118   33.9360 C.ar    1  UNL1       -0.0261
     30 C           7.2946   -0.0394   32.6189 C.3     1  UNL1        0.0277
     31 C           6.7838   -0.4050   31.2568 C.3     1  UNL1        0.0243
@<TRIPOS>BOND
     1     1     2    2
     2     2     3    1
     3     3     4    1
     4     4     5    1
     5     5     6    1
     6     6     7    1
     7     7     8   am
     8     8     9    2
     9     8    10   am
    10    10    21    1
    11    21    22    1
    12    22    23    1
    13    23    24    1
    14    24    25   ar
    15    25    26   ar
    16    26    27   ar
    17    27    28   ar
    18    28    29   ar
    19    29    30    1
    20    30    31    1
    21     7    11    1
    22    11    12    1
    23     4    13    1
    24    13    14    1
    25    14    15   ar
    26    15    16   ar
    27    16    17   ar
    28    17    18   ar
    29    18    19   ar
    30    19     2    1
    31    12     4    1
    32    19    14   ar
    33    31    21    1
    34    29    24   ar
    35    10    20    1
@<TRIPOS>MOLECULE
*****
 31 35 0 0 0
SMALL
GASTEIGER

@<TRIPOS>ATOM
      1 O           6.7803   -4.6632   21.7096 O.2     1  UNL1       -0.2911
      2 C           5.8887   -3.6690   22.3928 C.2     1  UNL1        0.1795
      3 C           6.0635   -3.3858   23.8554 C.3     1  UNL1        0.1092
      4 C           5.1719   -2.3916   24.5387 C.3     1  UNL1        0.1436
      5 C           4.2803   -1.3975   25.2218 C.3     1  UNL1        0.0620
      6 C           4.4551   -1.1143   26.6844 C.3     1  UNL1        0.0985
      7 N           5.5215   -1.8252   27.4638 N.am    1  UNL1       -0.2640
      8 C           5.6962   -1.5419   28.9265 C.2     1  UNL1        0.3039
      9 O           6.7626   -2.2528   29.7059 O.2     1  UNL1       -0.2526
     10 N           4.8046   -0.5478   29.6097 N.am    1  UNL1       -0.2904
     11 C           6.4130   -2.8193   26.7807 C.3     1  UNL1        0.0985
     12 C           6.2382   -3.1025   25.3181 C.3     1  UNL1        0.0620
     13 O           4.1055   -1.6807   23.7593 O.3     1  UNL1       -0.4819
     14 C           3.9307   -1.9640   22.2966 C.ar    1  UNL1        0.1409
     15 C           2.8644   -1.2531   21.5172 C.ar    1  UNL1        0.0370
     16 C           2.6896   -1.5363   20.0546 C.ar    1  UNL1        0.0031
     17 C           3.5812   -2.5305   19.3714 C.ar    1  UNL1        0.0003
     18 C           4.6475   -3.2414   20.1508 C.ar    1  UNL1        0.0059
     19 C           4.8223   -2.9581   21.6134 C.ar    1  UNL1        0.0687
     20 H           4.1048   -0.0812   29.0981 H       1  UNL1        0.1509
     21 C           4.9794   -0.2645   31.0723 C.3     1  UNL1        0.0737
     22 C           5.8532    0.9074   31.4084 C.3     1  UNL1        0.0243
     23 C           6.2206    1.4426   32.7607 C.3     1  UNL1        0.0277
     24 C           5.8050    0.9381   34.1107 C.ar    1  UNL1       -0.0261
     25 C           6.3992    1.7656   35.2118 C.ar    1  UNL1       -0.0046
     26 C           6.1077    1.4287   36.6440 C.ar    1  UNL1       -0.0003
     27 C           5.2220    0.2644   36.9753 C.ar    1  UNL1       -0.0003
     28 C           4.6278   -0.5631   35.8743 C.ar    1  UNL1       -0.0046
     29 C           4.9193   -0.2262   34.4420 C.ar    1  UNL1       -0.0261
     30 C           4.2305   -1.1737   33.5050 C.3     1  UNL1        0.0277
     31 C           4.2572   -1.1907   32.0054 C.3     1  UNL1        0.0243
@<TRIPOS>BOND
     1     1     2    2
     2     2     3    1
     3     3     4    1
     4     4     5    1
     5     5     6    1
     6     6     7    1
     7     7     8   am
     8     8     9    2
     9     8    10   am
    10    10    21    1
    11    21    22    1
    12    22    23    1
    13    23    24    1
    14    24    25   ar
    15    25    26   ar
    16    26    27   ar
    17    27    28   ar
    18    28    29   ar
    19    29    30    1
    20    30    31    1
    21     7    11    1
    22    11    12    1
    23     4    13    1
    24    13    14    1
    25    14    15   ar
    26    15    16   ar
    27    16    17   ar
    28    17    18   ar
    29    18    19   ar
    30    19     2    1
    31    12     4    1
    32    19    14   ar
    33    31    21    1
    34    29    24   ar
    35    10    20    1
@<TRIPOS>MOLECULE
*****
 31 35 0 0 0
SMALL
GASTEIGER

@<TRIPOS>ATOM
      1 O           8.2033    2.2500   37.9199 O.2     1  UNL1       -0.2911
      2 C           7.1326    1.5057   37.1784 C.2     1  UNL1        0.1795
      3 C           7.4865    0.6859   35.9732 C.3     1  UNL1        0.1092
      4 C           6.4158   -0.0584   35.2317 C.3     1  UNL1        0.1436
      5 C           5.3451   -0.8027   34.4903 C.3     1  UNL1        0.0620
      6 C           5.6989   -1.6225   33.2851 C.3     1  UNL1        0.0985
      7 N           7.1234   -1.6981   32.8212 N.am    1  UNL1       -0.2640
      8 C           7.4772   -2.5180   31.6159 C.2     1  UNL1        0.3039
      9 O           8.9016   -2.5936   31.1521 O.2     1  UNL1       -0.2526
     10 N           6.4065   -3.2622   30.8745 N.am    1  UNL1       -0.2904
     11 C           8.1940   -0.9539   33.5626 C.3     1  UNL1        0.0985
     12 C           7.8402   -0.1340   34.7679 C.3     1  UNL1        0.0620
     13 O           4.9913    0.0172   35.6955 O.3     1  UNL1       -0.4819
     14 C           4.6375    0.8371   36.9008 C.ar    1  UNL1        0.1409
     15 C           3.2130    0.9127   37.3646 C.ar    1  UNL1        0.0370
     16 C           2.8592    1.7325   38.5699 C.ar    1  UNL1        0.0031
     17 C           3.9299    2.4768   39.3114 C.ar    1  UNL1        0.0003
     18 C           5.3544    2.4012   38.8475 C.ar    1  UNL1        0.0059
     19 C           5.7082    1.5813   37.6422 C.ar    1  UNL1        0.0687
     20 H           5.4716   -3.2126   31.1789 H       1  UNL1        0.1509
     21 C           6.7603   -4.0821   29.6692 C.3     1  UNL1        0.0737
     22 C           7.2790   -5.4613   29.9497 C.3     1  UNL1        0.0243
     23 C           7.7141   -6.5134   28.9730 C.3     1  UNL1        0.0277
     24 C           7.7379   -6.4461   27.4747 C.ar    1  UNL1       -0.0261
     25 C           8.2470   -7.7241   26.8768 C.ar    1  UNL1       -0.0046
     26 C           8.3507   -7.8661   25.3871 C.ar    1  UNL1       -0.0003
     27 C           7.9453   -6.7301   24.4955 C.ar    1  UNL1       -0.0003
     28 C           7.4362   -5.4521   25.0934 C.ar    1  UNL1       -0.0046
     29 C           7.3325   -5.3101   26.5830 C.ar    1  UNL1       -0.0261
     30 C           6.8031   -3.9608   26.9694 C.3     1  UNL1        0.0277
     31 C           6.5485   -3.4144   28.3429 C.3     1  UNL1        0.0243
@<TRIPOS>BOND
     1     1     2    2
     2     2     3    1
     3     3     4    1
     4     4     5    1
     5     5     6    1
     6     6     7    1
     7     7     8   am
     8     8     9    2
     9     8    10   am
    10    10    21    1
    11    21    22    1
    12    22    23    1
    13    23    24    1
    14    24    25   ar
    15    25    26   ar
    16    26    27   ar
    17    27    28   ar
    18    28    29   ar
    19    29    30    1
    20    30    31    1
    21     7    11    1
    22    11    12    1
    23     4    13    1
    24    13    14    1
    25    14    15   ar
    26    15    16   ar
    27    16    17   ar
    28    17    18   ar
    29    18    19   ar
    30    19     2    1
    31    12     4    1
    32    19    14   ar
    33    31    21    1
    34    29    24   ar
    35    10    20    1
@<TRIPOS>MOLECULE
*****
 31 35 0 0 0
SMALL
GASTEIGER

@<TRIPOS>ATOM
      1 O           4.8218   -2.4641   32.2705 O.2     1  UNL1       -0.2911
      2 C           4.0161   -1.1989   32.2870 C.2     1  UNL1        0.1795
      3 C           3.1756   -0.8295   31.1008 C.3     1  UNL1        0.1092
      4 C           2.3700    0.4357   31.1172 C.3     1  UNL1        0.1436
      5 C           1.5643    1.7009   31.1337 C.3     1  UNL1        0.0620
      6 C           0.7239    2.0703   29.9475 C.3     1  UNL1        0.0985
      7 N           0.6891    1.1746   28.7448 N.am    1  UNL1       -0.2640
      8 C          -0.1515    1.5440   27.5586 C.2     1  UNL1        0.3039
      9 O          -0.1863    0.6483   26.3559 O.2     1  UNL1       -0.2526
     10 N          -0.9571    2.8092   27.5750 N.am    1  UNL1       -0.2904
     11 C           1.4947   -0.0906   28.7283 C.3     1  UNL1        0.0985
     12 C           2.3351   -0.4600   29.9145 C.3     1  UNL1        0.0620
     13 O           2.4048    1.3315   32.3199 O.3     1  UNL1       -0.4819
     14 C           3.2453    0.9620   33.5061 C.ar    1  UNL1        0.1409
     15 C           3.2801    1.8577   34.7088 C.ar    1  UNL1        0.0370
     16 C           4.1206    1.4883   35.8950 C.ar    1  UNL1        0.0031
     17 C           4.9263    0.2231   35.8786 C.ar    1  UNL1        0.0003
     18 C           4.8914   -0.6727   34.6759 C.ar    1  UNL1        0.0059
     19 C           4.0509   -0.3032   33.4897 C.ar    1  UNL1        0.0687
     20 H          -0.9342    3.3971   28.3644 H       1  UNL1        0.1509
     21 C          -1.7976    3.1787   26.3888 C.3     1  UNL1        0.0737
     22 C          -3.2352    3.4908   26.6817 C.3     1  UNL1        0.0243
     23 C          -4.3196    3.8885   25.7245 C.3     1  UNL1        0.0277
     24 C          -4.2342    4.0723   24.2383 C.ar    1  UNL1       -0.0261
     25 C          -5.5575    4.4765   23.6592 C.ar    1  UNL1       -0.0046
     26 C          -5.6899    4.7122   22.1837 C.ar    1  UNL1       -0.0003
     27 C          -4.4990    4.5437   21.2875 C.ar    1  UNL1       -0.0003
     28 C          -3.1757    4.1395   21.8667 C.ar    1  UNL1       -0.0046
     29 C          -3.0432    3.9038   23.3421 C.ar    1  UNL1       -0.0261
     30 C          -1.6436    3.5098   23.7107 C.3     1  UNL1        0.0277
     31 C          -1.0893    3.1871   25.0666 C.3     1  UNL1        0.0243
@<TRIPOS>BOND
     1     1     2    2
     2     2     3    1
     3     3     4    1
     4     4     5    1
     5     5     6    1
     6     6     7    1
     7     7     8   am
     8     8     9    2
     9     8    10   am
    10    10    21    1
    11    21    22    1
    12    22    23    1
    13    23    24    1
    14    24    25   ar
    15    25    26   ar
    16    26    27   ar
    17    27    28   ar
    18    28    29   ar
    19    29    30    1
    20    30    31    1
    21     7    11    1
    22    11    12    1
    23     4    13    1
    24    13    14    1
    25    14    15   ar
    26    15    16   ar
    27    16    17   ar
    28    17    18   ar
    29    18    19   ar
    30    19     2    1
    31    12     4    1
    32    19    14   ar
    33    31    21    1
    34    29    24   ar
    35    10    20    1
@<TRIPOS>MOLECULE
*****
 31 35 0 0 0
SMALL
GASTEIGER

@<TRIPOS>ATOM
      1 O           9.4706    0.5415   33.6496 O.2     1  UNL1       -0.2911
      2 C           8.1605    0.0565   33.1029 C.2     1  UNL1        0.1795
      3 C           8.0065   -0.1883   31.6311 C.3     1  UNL1        0.1092
      4 C           6.6965   -0.6732   31.0845 C.3     1  UNL1        0.1436
      5 C           5.3865   -1.1581   30.5379 C.3     1  UNL1        0.0620
      6 C           5.2325   -1.4029   29.0661 C.3     1  UNL1        0.0985
      7 N           6.3885   -1.1628   28.1408 N.am    1  UNL1       -0.2640
      8 C           6.2344   -1.4076   26.6689 C.2     1  UNL1        0.3039
      9 O           7.3904   -1.1675   25.7437 O.2     1  UNL1       -0.2526
     10 N           4.9245   -1.8925   26.1224 N.am    1  UNL1       -0.2904
     11 C           7.6985   -0.6779   28.6874 C.3     1  UNL1        0.0985
     12 C           7.8525   -0.4331   30.1592 C.3     1  UNL1        0.0620
     13 O           5.5406   -0.9133   32.0097 O.3     1  UNL1       -0.4819
     14 C           5.6946   -0.6685   33.4816 C.ar    1  UNL1        0.1409
     15 C           4.5387   -0.9086   34.4069 C.ar    1  UNL1        0.0370
     16 C           4.6927   -0.6638   35.8787 C.ar    1  UNL1        0.0031
     17 C           6.0027   -0.1789   36.4253 C.ar    1  UNL1        0.0003
     18 C           7.1587    0.0612   35.5001 C.ar    1  UNL1        0.0059
     19 C           7.0046   -0.1836   34.0282 C.ar    1  UNL1        0.0687
     20 H           4.1658   -2.0501   26.7296 H       1  UNL1        0.1509
     21 C           4.7704   -2.1373   24.6505 C.3     1  UNL1        0.0737
     22 C           5.5868   -3.2635   24.0891 C.3     1  UNL1        0.0243
     23 C           5.6547   -3.7540   22.6731 C.3     1  UNL1        0.0277
     24 C           4.9230   -3.2396   21.4690 C.ar    1  UNL1       -0.0261
     25 C           5.2798   -4.0176   20.2372 C.ar    1  UNL1       -0.0046
     26 C           4.6562   -3.6636   18.9197 C.ar    1  UNL1       -0.0003
     27 C           3.6758   -2.5316   18.8341 C.ar    1  UNL1       -0.0003
     28 C           3.3191   -1.7535   20.0659 C.ar    1  UNL1       -0.0046
     29 C           3.9427   -2.1076   21.3834 C.ar    1  UNL1       -0.0261
     30 C           3.4518   -1.2103   22.4807 C.3     1  UNL1        0.0277
     31 C           3.8203   -1.2236   23.9347 C.3     1  UNL1        0.0243
@<TRIPOS>BOND
     1     1     2    2
     2     2     3    1
     3     3     4    1
     4     4     5    1
     5     5     6    1
     6     6     7    1
     7     7     8   am
     8     8     9    2
     9     8    10   am
    10    10    21    1
    11    21    22    1
    12    22    23    1
    13    23    24    1
    14    24    25   ar
    15    25    26   ar
    16    26    27   ar
    17    27    28   ar
    18    28    29   ar
    19    29    30    1
    20    30    31    1
    21     7    11    1
    22    11    12    1
    23     4    13    1
    24    13    14    1
    25    14    15   ar
    26    15    16   ar
    27    16    17   ar
    28    17    18   ar
    29    18    19   ar
    30    19     2    1
    31    12     4    1
    32    19    14   ar
    33    31    21    1
    34    29    24   ar
    35    10    20    1
@<TRIPOS>MOLECULE
*****
 31 35 0 0 0
SMALL
GASTEIGER

@<TRIPOS>ATOM
      1 O           4.1137   -0.4504   36.1943 O.2     1  UNL1       -0.2911
      2 C           5.1091   -0.4634   35.0722 C.2     1  UNL1        0.1795
      3 C           4.6406   -0.6185   33.6557 C.3     1  UNL1        0.1092
      4 C           5.6360   -0.6315   32.5336 C.3     1  UNL1        0.1436
      5 C           6.6314   -0.6446   31.4116 C.3     1  UNL1        0.0620
      6 C           6.1629   -0.7996   29.9952 C.3     1  UNL1        0.0985
      7 N           4.6989   -0.9416   29.7007 N.am    1  UNL1       -0.2640
      8 C           4.2304   -1.0967   28.2842 C.2     1  UNL1        0.3039
      9 O           2.7665   -1.2387   27.9897 O.2     1  UNL1       -0.2526
     10 N           5.2258   -1.1097   27.1622 N.am    1  UNL1       -0.2904
     11 C           3.7035   -0.9286   30.8227 C.3     1  UNL1        0.0985
     12 C           4.1721   -0.7735   32.2392 C.3     1  UNL1        0.0620
     13 O           7.0999   -0.4895   32.8281 O.3     1  UNL1       -0.4819
     14 C           7.5685   -0.3344   34.2446 C.ar    1  UNL1        0.1409
     15 C           9.0324   -0.1924   34.5391 C.ar    1  UNL1        0.0370
     16 C           9.5009   -0.0373   35.9555 C.ar    1  UNL1        0.0031
     17 C           8.5055   -0.0243   37.0776 C.ar    1  UNL1        0.0003
     18 C           7.0416   -0.1663   36.7832 C.ar    1  UNL1        0.0059
     19 C           6.5731   -0.3214   35.3666 C.ar    1  UNL1        0.0687
     20 H           6.1866   -1.0165   27.3554 H       1  UNL1        0.1509
     21 C           4.7573   -1.2648   25.7456 C.3     1  UNL1        0.0737
     22 C           3.7276   -0.2745   25.2886 C.3     1  UNL1        0.0243
     23 C           3.0668   -0.1645   23.9465 C.3     1  UNL1        0.0277
     24 C           3.2724   -1.0176   22.7300 C.ar    1  UNL1       -0.0261
     25 C           2.4080   -0.5650   21.5907 C.ar    1  UNL1       -0.0046
     26 C           2.4610   -1.2862   20.2766 C.ar    1  UNL1       -0.0003
     27 C           3.3782   -2.4601   20.1017 C.ar    1  UNL1       -0.0003
     28 C           4.2426   -2.9127   21.2410 C.ar    1  UNL1       -0.0046
     29 C           4.1897   -2.1915   22.5552 C.ar    1  UNL1       -0.0261
     30 C           5.1279   -2.8022   23.5536 C.3     1  UNL1        0.0277
     31 C           5.3805   -2.3897   24.9735 C.3     1  UNL1        0.0243
@<TRIPOS>BOND
     1     1     2    2
     2     2     3    1
     3     3     4    1
     4     4     5    1
     5     5     6    1
     6     6     7    1
     7     7     8   am
     8     8     9    2
     9     8    10   am
    10    10    21    1
    11    21    22    1
    12    22    23    1
    13    23    24    1
    14    24    25   ar
    15    25    26   ar
    16    26    27   ar
    17    27    28   ar
    18    28    29   ar
    19    29    30    1
    20    30    31    1
    21     7    11    1
    22    11    12    1
    23     4    13    1
    24    13    14    1
    25    14    15   ar
    26    15    16   ar
    27    16    17   ar
    28    17    18   ar
    29    18    19   ar
    30    19     2    1
    31    12     4    1
    32    19    14   ar
    33    31    21    1
    34    29    24   ar
    35    10    20    1
@<TRIPOS>MOLECULE
*****
 31 35 0 0 0
SMALL
GASTEIGER

@<TRIPOS>ATOM
      1 O           4.3715   -2.7595   20.8946 O.2     1  UNL1       -0.2911
      2 C           3.7154   -1.8075   21.8503 C.2     1  UNL1        0.1795
      3 C           4.1517   -1.7652   23.2848 C.3     1  UNL1        0.1092
      4 C           3.4956   -0.8132   24.2405 C.3     1  UNL1        0.1436
      5 C           2.8396    0.1388   25.1962 C.3     1  UNL1        0.0620
      6 C           3.2759    0.1812   26.6306 C.3     1  UNL1        0.0985
      7 N           4.3682   -0.7284   27.1095 N.am    1  UNL1       -0.2640
      8 C           4.8045   -0.6861   28.5441 C.2     1  UNL1        0.3039
      9 O           5.8969   -1.5957   29.0229 O.2     1  UNL1       -0.2526
     10 N           4.1485    0.2659   29.4997 N.am    1  UNL1       -0.2904
     11 C           5.0243   -1.6804   26.1539 C.3     1  UNL1        0.0985
     12 C           4.5880   -1.7228   24.7194 C.3     1  UNL1        0.0620
     13 O           2.4033    0.0965   23.7617 O.3     1  UNL1       -0.4819
     14 C           1.9670    0.0541   22.3271 C.ar    1  UNL1        0.1409
     15 C           0.8746    0.9637   21.8482 C.ar    1  UNL1        0.0370
     16 C           0.4383    0.9213   20.4138 C.ar    1  UNL1        0.0031
     17 C           1.0944   -0.0307   19.4580 C.ar    1  UNL1        0.0003
     18 C           2.1867   -0.9403   19.9369 C.ar    1  UNL1        0.0059
     19 C           2.6230   -0.8979   21.3715 C.ar    1  UNL1        0.0687
     20 H           3.4315    0.8629   29.1854 H       1  UNL1        0.1509
     21 C           4.5848    0.3083   30.9343 C.3     1  UNL1        0.0737
     22 C           3.7902   -0.5409   31.8815 C.3     1  UNL1        0.0243
     23 C           3.9726   -0.7138   33.3604 C.3     1  UNL1        0.0277
     24 C           4.9946   -0.0802   34.2571 C.ar    1  UNL1       -0.0261
     25 C           4.8264   -0.5250   35.6797 C.ar    1  UNL1       -0.0046
     26 C           5.7502   -0.0068   36.7417 C.ar    1  UNL1       -0.0003
     27 C           6.8423    0.9562   36.3811 C.ar    1  UNL1       -0.0003
     28 C           7.0104    1.4009   34.9585 C.ar    1  UNL1       -0.0046
     29 C           6.0866    0.8827   33.8965 C.ar    1  UNL1       -0.0261
     30 C           6.4264    1.4500   32.5500 C.3     1  UNL1        0.0277
     31 C           5.7580    1.1944   31.2318 C.3     1  UNL1        0.0243
@<TRIPOS>BOND
     1     1     2    2
     2     2     3    1
     3     3     4    1
     4     4     5    1
     5     5     6    1
     6     6     7    1
     7     7     8   am
     8     8     9    2
     9     8    10   am
    10    10    21    1
    11    21    22    1
    12    22    23    1
    13    23    24    1
    14    24    25   ar
    15    25    26   ar
    16    26    27   ar
    17    27    28   ar
    18    28    29   ar
    19    29    30    1
    20    30    31    1
    21     7    11    1
    22    11    12    1
    23     4    13    1
    24    13    14    1
    25    14    15   ar
    26    15    16   ar
    27    16    17   ar
    28    17    18   ar
    29    18    19   ar
    30    19     2    1
    31    12     4    1
    32    19    14   ar
    33    31    21    1
    34    29    24   ar
    35    10    20    1
