@<TRIPOS>MOLECULE
*****
 33 37 0 0 0
SMALL
GASTEIGER

@<TRIPOS>ATOM
      1 C           0.0557    2.0676   22.3490 C.3     1  UNL1        0.2027
      2 C          -0.0075    2.2838   23.8320 C.ar    1  UNL1        0.0163
      3 C          -0.0796    1.3257   24.9838 C.ar    1  UNL1        0.0104
      4 C          -0.1331    1.8457   26.3897 C.ar    1  UNL1        0.0583
      5 CL         -0.2052    0.8875   27.5416 Cl      1  UNL1       -0.0822
      6 C          -0.1145    3.3239   26.6438 C.ar    1  UNL1        0.0224
      7 C          -0.0425    4.2821   25.4920 C.ar    1  UNL1        0.0544
      8 CL         -0.0239    5.7603   25.7462 Cl      1  UNL1       -0.0826
      9 C           0.0111    3.7620   24.0861 C.ar    1  UNL1       -0.0106
     10 C           0.0858    4.4594   22.7602 C.3     1  UNL1        0.0470
     11 C           0.1134    3.4122   21.6866 C.3     1  UNL1        0.1066
     12 N           0.1859    3.6651   20.2098 N.3     1  UNL1       -0.2682
     13 C           1.3517    4.2543   19.4724 C.3     1  UNL1        0.0748
     14 C           0.9916    4.3266   18.0180 C.3     1  UNL1        0.0480
     15 C          -0.3967    3.7821   17.8566 C.3     1  UNL1        0.1278
     16 O          -1.1541    3.6667   16.5670 O.3     1  UNL1       -0.3830
     17 C          -0.8947    3.3733   19.2112 C.3     1  UNL1        0.1018
     18 H          -2.0281    3.2827   16.7386 H       1  UNL1        0.2104
     19 O           0.0604    0.7399   21.6510 O.3     1  UNL1       -0.4711
     20 C           3.6734   -0.5541   19.3012 C.ar    1  UNL1        0.0686
     21 C           2.4629   -0.0294   18.5873 C.ar    1  UNL1        0.0209
     22 C           1.2586    0.4020   19.3707 C.ar    1  UNL1        0.0407
     23 C           1.2647    0.3086   20.8678 C.ar    1  UNL1        0.1662
     24 C           2.4752   -0.2161   21.5815 C.ar    1  UNL1        0.1753
     25 F           2.4814   -0.3095   23.0786 F       1  UNL1       -0.2009
     26 C           3.6795   -0.6474   20.7982 C.ar    1  UNL1        0.0503
     27 C           5.8039    1.4217   17.8157 C.3     1  UNL1        0.0742
     28 C           5.8570   -0.0773   17.8350 C.ar    1  UNL1        0.1473
     29 N           6.8987   -0.9312   17.1750 N.ar    1  UNL1       -0.1333
     30 N           6.5632   -2.3671   17.4498 N.ar    1  UNL1       -0.1333
     31 C           5.3142   -2.4006   18.2798 C.ar    1  UNL1        0.1473
     32 C           4.6229   -3.6330   18.7832 C.3     1  UNL1        0.0742
     33 N           4.8777   -0.9854   18.5178 N.ar    1  UNL1       -0.2806
@<TRIPOS>BOND
     1    27    28    1
     2    28    29   ar
     3    29    30   ar
     4    30    31   ar
     5    31    32    1
     6    31    33   ar
     7    33    20    1
     8    20    21   ar
     9    21    22   ar
    10    22    23   ar
    11    23    19    1
    12     1    19    1
    13     1     2    1
    14     2     3   ar
    15     3     4   ar
    16     4     5    1
    17     4     6   ar
    18     6     7   ar
    19     7     8    1
    20     7     9   ar
    21     9    10    1
    22    10    11    1
    23    11    12    1
    24    12    13    1
    25    13    14    1
    26    14    15    1
    27    15    16    1
    28    15    17    1
    29    23    24   ar
    30    24    25    1
    31    24    26   ar
    32    33    28   ar
    33    26    20   ar
    34    11     1    1
    35    17    12    1
    36     9     2   ar
    37    16    18    1
@<TRIPOS>MOLECULE
*****
 33 37 0 0 0
SMALL
GASTEIGER

@<TRIPOS>ATOM
      1 C           7.1881   -2.9663   23.5962 C.3     1  UNL1        0.2027
      2 C           7.1582   -3.9590   24.7203 C.ar    1  UNL1        0.0163
      3 C           6.7157   -3.8444   26.1489 C.ar    1  UNL1        0.0104
      4 C           6.8046   -5.0333   27.0592 C.ar    1  UNL1        0.0583
      5 CL          6.3621   -4.9188   28.4879 Cl      1  UNL1       -0.0822
      6 C           7.3360   -6.3367   26.5409 C.ar    1  UNL1        0.0224
      7 C           7.7785   -6.4513   25.1123 C.ar    1  UNL1        0.0544
      8 CL          8.3099   -7.7547   24.5939 Cl      1  UNL1       -0.0826
      9 C           7.6896   -5.2624   24.2020 C.ar    1  UNL1       -0.0106
     10 C           8.0479   -5.0753   22.7575 C.3     1  UNL1        0.0470
     11 C           7.7380   -3.6562   22.3830 C.3     1  UNL1        0.1066
     12 N           7.9422   -3.0359   21.0326 N.3     1  UNL1       -0.2682
     13 C           9.1827   -2.3360   20.5623 C.3     1  UNL1        0.0748
     14 C           8.9488   -1.8742   19.1544 C.3     1  UNL1        0.0480
     15 C           7.5638   -2.2887   18.7547 C.3     1  UNL1        0.1278
     16 O           6.9148   -2.0306   17.4272 O.3     1  UNL1       -0.3830
     17 C           6.9417   -3.0067   19.9155 C.3     1  UNL1        0.1018
     18 H           6.0186   -2.4016   17.4278 H       1  UNL1        0.2104
     19 O           6.7458   -1.5350   23.6719 O.3     1  UNL1       -0.4711
     20 C           3.3712   -0.0822   21.0736 C.ar    1  UNL1        0.0686
     21 C           4.6207    0.7368   21.2076 C.ar    1  UNL1        0.0209
     22 C           5.7455    0.2525   22.0737 C.ar    1  UNL1        0.0407
     23 C           5.6209   -1.0508   22.8058 C.ar    1  UNL1        0.1662
     24 C           4.3714   -1.8698   22.6717 C.ar    1  UNL1        0.1753
     25 F           4.2467   -3.1730   23.4038 F       1  UNL1       -0.2009
     26 C           3.2466   -1.3854   21.8056 C.ar    1  UNL1        0.0503
     27 C           3.2622   -0.2220   17.8151 C.3     1  UNL1        0.0742
     28 C           2.1962    0.3379   18.7097 C.ar    1  UNL1        0.1473
     29 N           0.8930    0.9318   18.2636 N.ar    1  UNL1       -0.1333
     30 N           0.1377    1.3630   19.4857 N.ar    1  UNL1       -0.1333
     31 C           0.9741    1.0357   20.6871 C.ar    1  UNL1        0.1473
     32 C           0.6033    1.2962   22.1170 C.3     1  UNL1        0.0742
     33 N           2.2463    0.4021   20.2075 N.ar    1  UNL1       -0.2806
@<TRIPOS>BOND
     1    27    28    1
     2    28    29   ar
     3    29    30   ar
     4    30    31   ar
     5    31    32    1
     6    31    33   ar
     7    33    20    1
     8    20    21   ar
     9    21    22   ar
    10    22    23   ar
    11    23    19    1
    12     1    19    1
    13     1     2    1
    14     2     3   ar
    15     3     4   ar
    16     4     5    1
    17     4     6   ar
    18     6     7   ar
    19     7     8    1
    20     7     9   ar
    21     9    10    1
    22    10    11    1
    23    11    12    1
    24    12    13    1
    25    13    14    1
    26    14    15    1
    27    15    16    1
    28    15    17    1
    29    23    24   ar
    30    24    25    1
    31    24    26   ar
    32    33    28   ar
    33    26    20   ar
    34    11     1    1
    35    17    12    1
    36     9     2   ar
    37    16    18    1
@<TRIPOS>MOLECULE
*****
 33 37 0 0 0
SMALL
GASTEIGER

@<TRIPOS>ATOM
      1 C           7.2351   -2.9819   23.5616 C.3     1  UNL1        0.2027
      2 C           7.1876   -3.9528   24.7041 C.ar    1  UNL1        0.0163
      3 C           6.7414   -3.8054   26.1285 C.ar    1  UNL1        0.0104
      4 C           6.8109   -4.9780   27.0613 C.ar    1  UNL1        0.0583
      5 CL          6.3647   -4.8307   28.4859 Cl      1  UNL1       -0.0822
      6 C           7.3266   -6.2980   26.5696 C.ar    1  UNL1        0.0224
      7 C           7.7727   -6.4453   25.1452 C.ar    1  UNL1        0.0544
      8 CL          8.2884   -7.7653   24.6535 Cl      1  UNL1       -0.0826
      9 C           7.7033   -5.2727   24.2124 C.ar    1  UNL1       -0.0106
     10 C           8.0695   -5.1176   22.7661 C.3     1  UNL1        0.0470
     11 C           7.7801   -3.7018   22.3639 C.3     1  UNL1        0.1066
     12 N           7.9976   -3.1099   21.0029 N.3     1  UNL1       -0.2682
     13 C           9.2883   -2.5528   20.4797 C.3     1  UNL1        0.0748
     14 C           9.0510   -2.0697   19.0795 C.3     1  UNL1        0.0480
     15 C           7.6136   -2.3282   18.7374 C.3     1  UNL1        0.1278
     16 O           6.9447   -2.0012   17.4353 O.3     1  UNL1       -0.3830
     17 C           6.9626   -2.9710   19.9261 C.3     1  UNL1        0.1018
     18 H           6.0136   -2.2704   17.4736 H       1  UNL1        0.2104
     19 O           6.8119   -1.5436   23.6087 O.3     1  UNL1       -0.4711
     20 C           3.4039   -0.1155   21.0405 C.ar    1  UNL1        0.0686
     21 C           4.6643    0.6926   21.1314 C.ar    1  UNL1        0.0209
     22 C           5.8003    0.2166   21.9875 C.ar    1  UNL1        0.0407
     23 C           5.6759   -1.0676   22.7527 C.ar    1  UNL1        0.1662
     24 C           4.4155   -1.8757   22.6617 C.ar    1  UNL1        0.1753
     25 F           4.2910   -3.1599   23.4269 F       1  UNL1       -0.2009
     26 C           3.2795   -1.3997   21.8057 C.ar    1  UNL1        0.0503
     27 C           0.6464    1.2660   22.1070 C.3     1  UNL1        0.0742
     28 C           1.0004    0.9955   20.6745 C.ar    1  UNL1        0.1473
     29 N           0.1491    1.3126   19.4810 N.ar    1  UNL1       -0.1333
     30 N           0.8904    0.8736   18.2531 N.ar    1  UNL1       -0.1333
     31 C           2.1999    0.2852   18.6878 C.ar    1  UNL1        0.1473
     32 C           3.2560   -0.2795   17.7846 C.3     1  UNL1        0.0742
     33 N           2.2679    0.3605   20.1844 N.ar    1  UNL1       -0.2806
@<TRIPOS>BOND
     1    27    28    1
     2    28    29   ar
     3    29    30   ar
     4    30    31   ar
     5    31    32    1
     6    31    33   ar
     7    33    20    1
     8    20    21   ar
     9    21    22   ar
    10    22    23   ar
    11    23    19    1
    12     1    19    1
    13     1     2    1
    14     2     3   ar
    15     3     4   ar
    16     4     5    1
    17     4     6   ar
    18     6     7   ar
    19     7     8    1
    20     7     9   ar
    21     9    10    1
    22    10    11    1
    23    11    12    1
    24    12    13    1
    25    13    14    1
    26    14    15    1
    27    15    16    1
    28    15    17    1
    29    23    24   ar
    30    24    25    1
    31    24    26   ar
    32    33    28   ar
    33    26    20   ar
    34    11     1    1
    35    17    12    1
    36     9     2   ar
    37    16    18    1
@<TRIPOS>MOLECULE
*****
 33 37 0 0 0
SMALL
GASTEIGER

@<TRIPOS>ATOM
      1 C           3.2869    0.3654   21.1552 C.3     1  UNL1        0.2027
      2 C           3.8037   -1.0136   21.4406 C.ar    1  UNL1        0.0163
      3 C           4.5157   -1.5930   22.6269 C.ar    1  UNL1        0.0104
      4 C           4.9187   -3.0378   22.6275 C.ar    1  UNL1        0.0583
      5 CL          5.6307   -3.6174   23.8138 Cl      1  UNL1       -0.0822
      6 C           4.6097   -3.9032   21.4419 C.ar    1  UNL1        0.0224
      7 C           3.8977   -3.3237   20.2557 C.ar    1  UNL1        0.0544
      8 CL          3.5887   -4.1891   19.0700 Cl      1  UNL1       -0.0826
      9 C           3.4947   -1.8789   20.2550 C.ar    1  UNL1       -0.0106
     10 C           2.7869   -1.0348   19.2369 C.3     1  UNL1        0.0470
     11 C           2.6585    0.3523   19.7933 C.3     1  UNL1        0.1066
     12 N           2.0147    1.5211   19.1080 N.3     1  UNL1       -0.2682
     13 C           2.6074    2.8907   18.9572 C.3     1  UNL1        0.0748
     14 C           1.6243    3.7415   18.2092 C.3     1  UNL1        0.0480
     15 C           0.4239    2.8977   17.8977 C.3     1  UNL1        0.1278
     16 O          -0.8025    3.3472   17.1602 O.3     1  UNL1       -0.3830
     17 C           0.6652    1.5254   18.4532 C.3     1  UNL1        0.1018
     18 H          -1.4282    2.6090   17.0931 H       1  UNL1        0.2104
     19 O           3.3818    1.5495   22.0711 O.3     1  UNL1       -0.4711
     20 C           1.8130    1.2709   26.2795 C.ar    1  UNL1        0.0686
     21 C           3.2493    1.6292   26.0367 C.ar    1  UNL1        0.0209
     22 C           3.7722    1.7221   24.6339 C.ar    1  UNL1        0.0407
     23 C           2.8589    1.4567   23.4738 C.ar    1  UNL1        0.1662
     24 C           1.4227    1.0984   23.7167 C.ar    1  UNL1        0.1753
     25 F           0.5094    0.8330   22.5568 F       1  UNL1       -0.2009
     26 C           0.8998    1.0055   25.1196 C.ar    1  UNL1        0.0503
     27 C           2.8004   -0.8459   28.5584 C.3     1  UNL1        0.0742
     28 C           1.7439    0.2051   28.7299 C.ar    1  UNL1        0.1473
     29 N           0.9559    0.4676   29.9789 N.ar    1  UNL1       -0.1333
     30 N           0.0150    1.6028   29.7033 N.ar    1  UNL1       -0.1333
     31 C           0.2216    2.0419   28.2840 C.ar    1  UNL1        0.1473
     32 C          -0.5117    3.1503   27.5884 C.3     1  UNL1        0.0742
     33 N           1.2901    1.1781   27.6824 N.ar    1  UNL1       -0.2806
@<TRIPOS>BOND
     1    27    28    1
     2    28    29   ar
     3    29    30   ar
     4    30    31   ar
     5    31    32    1
     6    31    33   ar
     7    33    20    1
     8    20    21   ar
     9    21    22   ar
    10    22    23   ar
    11    23    19    1
    12     1    19    1
    13     1     2    1
    14     2     3   ar
    15     3     4   ar
    16     4     5    1
    17     4     6   ar
    18     6     7   ar
    19     7     8    1
    20     7     9   ar
    21     9    10    1
    22    10    11    1
    23    11    12    1
    24    12    13    1
    25    13    14    1
    26    14    15    1
    27    15    16    1
    28    15    17    1
    29    23    24   ar
    30    24    25    1
    31    24    26   ar
    32    33    28   ar
    33    26    20   ar
    34    11     1    1
    35    17    12    1
    36     9     2   ar
    37    16    18    1
@<TRIPOS>MOLECULE
*****
 33 37 0 0 0
SMALL
GASTEIGER

@<TRIPOS>ATOM
      1 C           3.2663    0.3212   21.2361 C.3     1  UNL1        0.2027
      2 C           3.8061   -1.0524   21.5041 C.ar    1  UNL1        0.0163
      3 C           4.5002   -1.6433   22.6953 C.ar    1  UNL1        0.0104
      4 C           4.9351   -3.0787   22.6742 C.ar    1  UNL1        0.0583
      5 CL          5.6292   -3.6697   23.8654 Cl      1  UNL1       -0.0822
      6 C           4.6759   -3.9232   21.4619 C.ar    1  UNL1        0.0224
      7 C           3.9818   -3.3323   20.2707 C.ar    1  UNL1        0.0544
      8 CL          3.7226   -4.1767   19.0584 Cl      1  UNL1       -0.0826
      9 C           3.5469   -1.8969   20.2918 C.ar    1  UNL1       -0.0106
     10 C           2.8469   -1.0452   19.2746 C.3     1  UNL1        0.0470
     11 C           2.6735    0.3257   19.8583 C.3     1  UNL1        0.1066
     12 N           2.0216    1.4956   19.1827 N.3     1  UNL1       -0.2682
     13 C           2.5866    2.8813   19.0797 C.3     1  UNL1        0.0748
     14 C           1.6045    3.7274   18.3248 C.3     1  UNL1        0.0480
     15 C           0.4326    2.8646   17.9613 C.3     1  UNL1        0.1278
     16 O          -0.7836    3.3038   17.2011 O.3     1  UNL1       -0.3830
     17 C           0.6904    1.4853   18.4915 C.3     1  UNL1        0.1018
     18 H          -1.3902    2.5537   17.1001 H       1  UNL1        0.2104
     19 O           3.3114    1.4859   22.1804 O.3     1  UNL1       -0.4711
     20 C          -0.4371    2.8307   24.2755 C.ar    1  UNL1        0.0686
     21 C           0.2051    3.7137   23.2469 C.ar    1  UNL1        0.0209
     22 C           1.4546    3.2654   22.5486 C.ar    1  UNL1        0.0407
     23 C           2.0620    1.9341   22.8787 C.ar    1  UNL1        0.1662
     24 C           1.4197    1.0512   23.9073 C.ar    1  UNL1        0.1753
     25 F           2.0269   -0.2801   24.2375 F       1  UNL1       -0.2009
     26 C           0.1702    1.4995   24.6056 C.ar    1  UNL1        0.0503
     27 C          -3.2804    3.5516   22.8453 C.3     1  UNL1        0.0742
     28 C          -2.9936    3.6104   24.3165 C.ar    1  UNL1        0.1473
     29 N          -3.9633    4.0108   25.3885 N.ar    1  UNL1       -0.1333
     30 N          -3.2557    3.9269   26.7085 N.ar    1  UNL1       -0.1333
     31 C          -1.8487    3.4746   26.4522 C.ar    1  UNL1        0.1473
     32 C          -0.7895    3.2563   27.4918 C.3     1  UNL1        0.0742
     33 N          -1.6867    3.2790   24.9738 N.ar    1  UNL1       -0.2806
@<TRIPOS>BOND
     1    27    28    1
     2    28    29   ar
     3    29    30   ar
     4    30    31   ar
     5    31    32    1
     6    31    33   ar
     7    33    20    1
     8    20    21   ar
     9    21    22   ar
    10    22    23   ar
    11    23    19    1
    12     1    19    1
    13     1     2    1
    14     2     3   ar
    15     3     4   ar
    16     4     5    1
    17     4     6   ar
    18     6     7   ar
    19     7     8    1
    20     7     9   ar
    21     9    10    1
    22    10    11    1
    23    11    12    1
    24    12    13    1
    25    13    14    1
    26    14    15    1
    27    15    16    1
    28    15    17    1
    29    23    24   ar
    30    24    25    1
    31    24    26   ar
    32    33    28   ar
    33    26    20   ar
    34    11     1    1
    35    17    12    1
    36     9     2   ar
    37    16    18    1
@<TRIPOS>MOLECULE
*****
 33 37 0 0 0
SMALL
GASTEIGER

@<TRIPOS>ATOM
      1 C          -8.6462  -18.2146   22.9536 C.3     1  UNL1        0.2027
      2 C          -9.4713  -18.3291   21.7061 C.ar    1  UNL1        0.0163
      3 C          -9.3591  -19.2233   20.5071 C.ar    1  UNL1        0.0104
      4 C         -10.3519  -19.1065   19.3888 C.ar    1  UNL1        0.0583
      5 CL        -10.2397  -20.0007   18.1897 Cl      1  UNL1       -0.0822
      6 C         -11.4570  -18.0954   19.4696 C.ar    1  UNL1        0.0224
      7 C         -11.5693  -17.2012   20.6686 C.ar    1  UNL1        0.0544
      8 CL        -12.6744  -16.1901   20.7494 Cl      1  UNL1       -0.0826
      9 C         -10.5764  -17.3180   21.7869 C.ar    1  UNL1       -0.0106
     10 C         -10.4343  -16.5787   23.0843 C.3     1  UNL1        0.0470
     11 C          -9.2414  -17.1328   23.8053 C.3     1  UNL1        0.1066
     12 N          -8.7330  -16.6839   25.1433 N.3     1  UNL1       -0.2682
     13 C          -9.0013  -17.3535   26.4584 C.3     1  UNL1        0.0748
     14 C          -8.3011  -16.5701   27.5289 C.3     1  UNL1        0.0480
     15 C          -7.6000  -15.4163   26.8754 C.3     1  UNL1        0.1278
     16 O          -6.7765  -14.3749   27.5736 O.3     1  UNL1       -0.3830
     17 C          -7.8669  -15.4866   25.4010 C.3     1  UNL1        0.1018
     18 H          -6.4354  -13.7422   26.9222 H       1  UNL1        0.2104
     19 O          -7.4381  -19.0375   23.2902 O.3     1  UNL1       -0.4711
     20 C          -3.6228  -18.4876   20.9683 C.ar    1  UNL1        0.0686
     21 C          -4.6005  -19.5509   20.5636 C.ar    1  UNL1        0.0209
     22 C          -5.8722  -19.7341   21.3376 C.ar    1  UNL1        0.0407
     23 C          -6.1664  -18.8542   22.5163 C.ar    1  UNL1        0.1662
     24 C          -5.1887  -17.7909   22.9209 C.ar    1  UNL1        0.1753
     25 F          -5.4828  -16.9109   24.0995 F       1  UNL1       -0.2009
     26 C          -3.9170  -17.6077   22.1469 C.ar    1  UNL1        0.0503
     27 C          -0.6328  -19.3353   21.9633 C.3     1  UNL1        0.0742
     28 C          -0.9767  -18.6940   20.6516 C.ar    1  UNL1        0.1473
     29 N          -0.0066  -18.3297   19.5670 N.ar    1  UNL1       -0.1333
     30 N          -0.7815  -17.7150   18.4394 N.ar    1  UNL1       -0.1333
     31 C          -2.2305  -17.6993   18.8270 C.ar    1  UNL1        0.1473
     32 C          -3.3605  -17.1712   17.9937 C.3     1  UNL1        0.0742
     33 N          -2.3511  -18.3044   20.1943 N.ar    1  UNL1       -0.2806
@<TRIPOS>BOND
     1    27    28    1
     2    28    29   ar
     3    29    30   ar
     4    30    31   ar
     5    31    32    1
     6    31    33   ar
     7    33    20    1
     8    20    21   ar
     9    21    22   ar
    10    22    23   ar
    11    23    19    1
    12     1    19    1
    13     1     2    1
    14     2     3   ar
    15     3     4   ar
    16     4     5    1
    17     4     6   ar
    18     6     7   ar
    19     7     8    1
    20     7     9   ar
    21     9    10    1
    22    10    11    1
    23    11    12    1
    24    12    13    1
    25    13    14    1
    26    14    15    1
    27    15    16    1
    28    15    17    1
    29    23    24   ar
    30    24    25    1
    31    24    26   ar
    32    33    28   ar
    33    26    20   ar
    34    11     1    1
    35    17    12    1
    36     9     2   ar
    37    16    18    1
@<TRIPOS>MOLECULE
*****
 33 37 0 0 0
SMALL
GASTEIGER

@<TRIPOS>ATOM
      1 C          -8.6328  -18.1907   22.9580 C.3     1  UNL1        0.2027
      2 C          -9.4563  -18.3052   21.7095 C.ar    1  UNL1        0.0163
      3 C          -9.3428  -19.1996   20.5108 C.ar    1  UNL1        0.0104
      4 C         -10.3343  -19.0827   19.3913 C.ar    1  UNL1        0.0583
      5 CL        -10.2208  -19.9772   18.1925 Cl      1  UNL1       -0.0822
      6 C         -11.4393  -18.0714   19.4706 C.ar    1  UNL1        0.0224
      7 C         -11.5528  -17.1770   20.6694 C.ar    1  UNL1        0.0544
      8 CL        -12.6578  -16.1657   20.7486 Cl      1  UNL1       -0.0826
      9 C         -10.5613  -17.2939   21.7888 C.ar    1  UNL1       -0.0106
     10 C         -10.4206  -16.5544   23.0863 C.3     1  UNL1        0.0470
     11 C          -9.2287  -17.1087   23.8089 C.3     1  UNL1        0.1066
     12 N          -8.7218  -16.6597   25.1474 N.3     1  UNL1       -0.2682
     13 C          -9.0065  -17.3189   26.4644 C.3     1  UNL1        0.0748
     14 C          -8.3019  -16.5394   27.5348 C.3     1  UNL1        0.0480
     15 C          -7.5816  -15.3984   26.8794 C.3     1  UNL1        0.1278
     16 O          -6.7482  -14.3646   27.5769 O.3     1  UNL1       -0.3830
     17 C          -7.8412  -15.4729   25.4039 C.3     1  UNL1        0.1018
     18 H          -6.3950  -13.7399   26.9244 H       1  UNL1        0.2104
     19 O          -7.4252  -19.0138   23.2962 O.3     1  UNL1       -0.4711
     20 C          -3.6105  -18.4733   20.9712 C.ar    1  UNL1        0.0686
     21 C          -4.5979  -19.5243   20.5584 C.ar    1  UNL1        0.0209
     22 C          -5.8695  -19.7045   21.3334 C.ar    1  UNL1        0.0407
     23 C          -6.1537  -18.8336   22.5213 C.ar    1  UNL1        0.1662
     24 C          -5.1662  -17.7826   22.9340 C.ar    1  UNL1        0.1753
     25 F          -5.4504  -16.9117   24.1218 F       1  UNL1       -0.2009
     26 C          -3.8947  -17.6025   22.1590 C.ar    1  UNL1        0.0503
     27 C          -3.3481  -17.1639   17.9937 C.3     1  UNL1        0.0742
     28 C          -2.2183  -17.6913   18.8276 C.ar    1  UNL1        0.1473
     29 N          -0.7696  -17.7094   18.4392 N.ar    1  UNL1       -0.1333
     30 N           0.0052  -18.3225   19.5679 N.ar    1  UNL1       -0.1333
     31 C          -0.9647  -18.6833   20.6537 C.ar    1  UNL1        0.1473
     32 C          -0.6208  -19.3221   21.9667 C.3     1  UNL1        0.0742
     33 N          -2.3389  -18.2932   20.1962 N.ar    1  UNL1       -0.2806
@<TRIPOS>BOND
     1    27    28    1
     2    28    29   ar
     3    29    30   ar
     4    30    31   ar
     5    31    32    1
     6    31    33   ar
     7    33    20    1
     8    20    21   ar
     9    21    22   ar
    10    22    23   ar
    11    23    19    1
    12     1    19    1
    13     1     2    1
    14     2     3   ar
    15     3     4   ar
    16     4     5    1
    17     4     6   ar
    18     6     7   ar
    19     7     8    1
    20     7     9   ar
    21     9    10    1
    22    10    11    1
    23    11    12    1
    24    12    13    1
    25    13    14    1
    26    14    15    1
    27    15    16    1
    28    15    17    1
    29    23    24   ar
    30    24    25    1
    31    24    26   ar
    32    33    28   ar
    33    26    20   ar
    34    11     1    1
    35    17    12    1
    36     9     2   ar
    37    16    18    1
@<TRIPOS>MOLECULE
*****
 33 37 0 0 0
SMALL
GASTEIGER

@<TRIPOS>ATOM
      1 C           3.5121   -0.8594   30.3352 C.3     1  UNL1        0.2027
      2 C           2.7161   -0.2489   29.2200 C.ar    1  UNL1        0.0163
      3 C           1.2640    0.1079   29.1018 C.ar    1  UNL1        0.0104
      4 C           0.7427    0.7195   27.8353 C.ar    1  UNL1        0.0583
      5 CL         -0.7095    1.0763   27.7170 Cl      1  UNL1       -0.0822
      6 C           1.6735    0.9744   26.6870 C.ar    1  UNL1        0.0224
      7 C           3.1257    0.6177   26.8052 C.ar    1  UNL1        0.0544
      8 CL          4.0565    0.8726   25.6569 Cl      1  UNL1       -0.0826
      9 C           3.6469    0.0060   28.0717 C.ar    1  UNL1       -0.0106
     10 C           5.0182   -0.4470   28.4773 C.3     1  UNL1        0.0470
     11 C           4.9349   -0.9818   29.8762 C.3     1  UNL1        0.1066
     12 N           6.0743   -1.5410   30.6757 N.3     1  UNL1       -0.2682
     13 C           7.0628   -0.7465   31.4767 C.3     1  UNL1        0.0748
     14 C           8.0247   -1.7073   32.1106 C.3     1  UNL1        0.0480
     15 C           7.6306   -3.0955   31.7014 C.3     1  UNL1        0.1278
     16 O           8.3207   -4.3639   32.1077 O.3     1  UNL1       -0.3830
     17 C           6.4251   -2.9927   30.8146 C.3     1  UNL1        0.1018
     18 H           7.8667   -5.1216   31.7069 H       1  UNL1        0.2104
     19 O           2.9789   -1.2746   31.6744 O.3     1  UNL1       -0.4711
     20 C           4.6503    0.5586   35.4288 C.ar    1  UNL1        0.0686
     21 C           3.8745    1.4039   34.4625 C.ar    1  UNL1        0.0209
     22 C           3.3174    0.7928   33.2110 C.ar    1  UNL1        0.0407
     23 C           3.5360   -0.6636   32.9258 C.ar    1  UNL1        0.1662
     24 C           4.3118   -1.5088   33.8921 C.ar    1  UNL1        0.1753
     25 F           4.5305   -2.9651   33.6070 F       1  UNL1       -0.2009
     26 C           4.8689   -0.8977   35.1436 C.ar    1  UNL1        0.0503
     27 C           7.7577    1.4249   35.9214 C.3     1  UNL1        0.0742
     28 C           6.6357    1.5679   36.9067 C.ar    1  UNL1        0.1473
     29 N           6.7451    2.1342   38.2914 N.ar    1  UNL1       -0.1333
     30 N           5.3843    2.0860   38.9207 N.ar    1  UNL1       -0.1333
     31 C           4.4340    1.4899   37.9250 C.ar    1  UNL1        0.1473
     32 C           2.9676    1.2552   38.1367 C.3     1  UNL1        0.0742
     33 N           5.2074    1.1697   36.6802 N.ar    1  UNL1       -0.2806
@<TRIPOS>BOND
     1    27    28    1
     2    28    29   ar
     3    29    30   ar
     4    30    31   ar
     5    31    32    1
     6    31    33   ar
     7    33    20    1
     8    20    21   ar
     9    21    22   ar
    10    22    23   ar
    11    23    19    1
    12     1    19    1
    13     1     2    1
    14     2     3   ar
    15     3     4   ar
    16     4     5    1
    17     4     6   ar
    18     6     7   ar
    19     7     8    1
    20     7     9   ar
    21     9    10    1
    22    10    11    1
    23    11    12    1
    24    12    13    1
    25    13    14    1
    26    14    15    1
    27    15    16    1
    28    15    17    1
    29    23    24   ar
    30    24    25    1
    31    24    26   ar
    32    33    28   ar
    33    26    20   ar
    34    11     1    1
    35    17    12    1
    36     9     2   ar
    37    16    18    1
@<TRIPOS>MOLECULE
*****
 33 37 0 0 0
SMALL
GASTEIGER

@<TRIPOS>ATOM
      1 C           1.7004    1.5273   25.2896 C.3     1  UNL1        0.2027
      2 C           0.7202    2.1035   24.3113 C.ar    1  UNL1        0.0163
      3 C           0.7784    2.2903   22.8241 C.ar    1  UNL1        0.0104
      4 C          -0.3803    2.9095   22.1002 C.ar    1  UNL1        0.0583
      5 CL         -0.3221    3.0964   20.6129 Cl      1  UNL1       -0.0822
      6 C          -1.5971    3.3419   22.8634 C.ar    1  UNL1        0.0224
      7 C          -1.6552    3.1551   24.3505 C.ar    1  UNL1        0.0544
      8 CL         -2.8720    3.5874   25.1137 Cl      1  UNL1       -0.0826
      9 C          -0.4966    2.5359   25.0745 C.ar    1  UNL1       -0.0106
     10 C          -0.2684    2.2269   26.5244 C.3     1  UNL1        0.0470
     11 C           1.0895    1.6035   26.6574 C.3     1  UNL1        0.1066
     12 N           1.7248    1.1381   27.9340 N.3     1  UNL1       -0.2682
     13 C           2.8217    1.8389   28.6796 C.3     1  UNL1        0.0748
     14 C           3.1497    1.0241   29.8956 C.3     1  UNL1        0.0480
     15 C           2.2554   -0.1801   29.9016 C.3     1  UNL1        0.1278
     16 O           2.2438   -1.2645   30.9379 O.3     1  UNL1       -0.3830
     17 C           1.3748   -0.1097   28.6893 C.3     1  UNL1        0.1018
     18 H           1.5725   -1.9255   30.7068 H       1  UNL1        0.2104
     19 O           3.0540    0.9723   24.9582 O.3     1  UNL1       -0.4711
     20 C           3.9764   -0.3516   20.7575 C.ar    1  UNL1        0.0686
     21 C           3.1907   -1.2459   21.6702 C.ar    1  UNL1        0.0209
     22 C           2.8833   -0.8045   23.0704 C.ar    1  UNL1        0.0407
     23 C           3.3615    0.5310   23.5580 C.ar    1  UNL1        0.1662
     24 C           4.1471    1.4252   22.6453 C.ar    1  UNL1        0.1753
     25 F           4.6254    2.7608   23.1327 F       1  UNL1       -0.2009
     26 C           4.4546    0.9839   21.2450 C.ar    1  UNL1        0.0503
     27 C           6.4159   -2.3246   19.8603 C.3     1  UNL1        0.0742
     28 C           5.4052   -1.6998   18.9448 C.ar    1  UNL1        0.1473
     29 N           5.3383   -1.8722   17.4562 N.ar    1  UNL1       -0.1333
     30 N           4.1756   -1.0719   16.9487 N.ar    1  UNL1       -0.1333
     31 C           3.5239   -0.4048   18.1236 C.ar    1  UNL1        0.1473
     32 C           2.3231    0.4928   18.0736 C.3     1  UNL1        0.0742
     33 N           4.2839   -0.7929   19.3572 N.ar    1  UNL1       -0.2806
@<TRIPOS>BOND
     1    27    28    1
     2    28    29   ar
     3    29    30   ar
     4    30    31   ar
     5    31    32    1
     6    31    33   ar
     7    33    20    1
     8    20    21   ar
     9    21    22   ar
    10    22    23   ar
    11    23    19    1
    12     1    19    1
    13     1     2    1
    14     2     3   ar
    15     3     4   ar
    16     4     5    1
    17     4     6   ar
    18     6     7   ar
    19     7     8    1
    20     7     9   ar
    21     9    10    1
    22    10    11    1
    23    11    12    1
    24    12    13    1
    25    13    14    1
    26    14    15    1
    27    15    16    1
    28    15    17    1
    29    23    24   ar
    30    24    25    1
    31    24    26   ar
    32    33    28   ar
    33    26    20   ar
    34    11     1    1
    35    17    12    1
    36     9     2   ar
    37    16    18    1
