@<TRIPOS>MOLECULE
*****
 27 30 0 0 0
SMALL
GASTEIGER

@<TRIPOS>ATOM
      1 C         -13.4818   -4.6470   18.4728 C.ar    1  UNL1        0.2035
      2 N         -13.6910   -3.1849   18.2114 N.ar    1  UNL1       -0.2133
      3 C         -12.5343   -2.2340   18.3005 C.ar    1  UNL1        0.1065
      4 C         -11.1684   -2.7453   18.6510 C.ar    1  UNL1        0.0815
      5 C         -10.9591   -4.2075   18.9123 C.ar    1  UNL1        0.2646
      6 O          -9.5933   -4.7188   19.2628 O.2     1  UNL1       -0.2668
      7 N         -12.1159   -5.1583   18.8232 N.ar    1  UNL1       -0.2667
      8 C         -11.9067   -6.6205   19.0846 C.3     1  UNL1        0.1363
      9 C         -13.9037   -6.2669   15.9832 C.3     1  UNL1        0.0233
     10 C         -14.8495   -6.4078   17.1389 C.3     1  UNL1        0.0953
     11 C         -16.0062   -7.3586   17.0498 C.3     1  UNL1        0.1119
     12 N         -16.9519   -7.4995   18.2056 N.pl3   1  UNL1       -0.2898
     13 C         -16.7410   -6.6896   19.4504 C.3     1  UNL1        0.1137
     14 C         -15.5843   -5.7388   19.5394 C.3     1  UNL1        0.1150
     15 N         -14.6385   -5.5979   18.3837 N.pl3   1  UNL1       -0.2777
     16 C         -18.1087   -8.4504   18.1165 C.ar    1  UNL1        0.1318
     17 C         -18.3629   -9.2052   16.8454 C.ar    1  UNL1        0.0343
     18 C         -19.5195  -10.1560   16.7562 C.ar    1  UNL1        0.0045
     19 C         -20.4221  -10.3521   17.9382 C.ar    1  UNL1        0.0208
     20 C         -20.1679   -9.5973   19.2093 C.ar    1  UNL1        0.1003
     21 N         -19.0111   -8.6464   19.2984 N.ar    1  UNL1       -0.2292
     22 C         -12.7436   -0.7719   18.0391 C.ar    1  UNL1        0.1024
     23 C         -13.9988   -0.0982   18.5085 C.ar    1  UNL1        0.0414
     24 C         -14.2081    1.3640   18.2471 C.ar    1  UNL1        0.1023
     25 N         -13.1620    2.1524   17.5163 N.ar    1  UNL1       -0.2224
     26 C         -11.9067    1.4787   17.0468 C.ar    1  UNL1        0.1989
     27 N         -11.6975    0.0166   17.3082 N.ar    1  UNL1       -0.2224
@<TRIPOS>BOND
     1    10     9    1
     2    10    11    1
     3    11    12    1
     4    12    16    1
     5    16    17   ar
     6    17    18   ar
     7    18    19   ar
     8    19    20   ar
     9    20    21   ar
    10    12    13    1
    11    13    14    1
    12    14    15    1
    13    15     1    1
    14     1     2   ar
    15     2     3   ar
    16     3    22    1
    17    22    23   ar
    18    23    24   ar
    19    24    25   ar
    20    25    26   ar
    21    26    27   ar
    22     3     4   ar
    23     4     5   ar
    24     5     6    2
    25     5     7   ar
    26     7     8    1
    27    15    10    1
    28     7     1   ar
    29    21    16   ar
    30    27    22   ar
@<TRIPOS>MOLECULE
*****
 27 30 0 0 0
SMALL
GASTEIGER

@<TRIPOS>ATOM
      1 C          -2.0258    3.2623   26.3780 C.ar    1  UNL1        0.2035
      2 N          -3.3067    3.9296   26.7830 N.ar    1  UNL1       -0.2133
      3 C          -4.2283    4.4818   25.7362 C.ar    1  UNL1        0.1065
      4 C          -3.8690    4.3667   24.2844 C.ar    1  UNL1        0.0815
      5 C          -2.5881    3.6994   23.8794 C.ar    1  UNL1        0.2646
      6 O          -2.2287    3.5843   22.4277 O.2     1  UNL1       -0.2668
      7 N          -1.6665    3.1472   24.9263 N.ar    1  UNL1       -0.2667
      8 C          -0.3856    2.4799   24.5213 C.3     1  UNL1        0.1363
      9 C           0.0989    5.0077   27.5777 C.3     1  UNL1        0.0233
     10 C          -0.0419    3.5828   28.0247 C.3     1  UNL1        0.0953
     11 C           0.8796    3.0306   29.0715 C.3     1  UNL1        0.1119
     12 N           0.7388    1.6057   29.5185 N.pl3   1  UNL1       -0.2898
     13 C          -0.3235    0.7330   28.9187 C.3     1  UNL1        0.1137
     14 C          -1.2450    1.2852   27.8719 C.3     1  UNL1        0.1150
     15 N          -1.1042    2.7101   27.4249 N.pl3   1  UNL1       -0.2777
     16 C           1.6604    1.0535   30.5654 C.ar    1  UNL1        0.1318
     17 C           1.9605    1.8539   31.7979 C.ar    1  UNL1        0.0343
     18 C           2.8821    1.3018   32.8448 C.ar    1  UNL1        0.0045
     19 C           3.5035   -0.0508   32.6590 C.ar    1  UNL1        0.0208
     20 C           3.2033   -0.8512   31.4265 C.ar    1  UNL1        0.1003
     21 N           2.2817   -0.2990   30.3796 N.ar    1  UNL1       -0.2292
     22 C          -5.5092    5.1490   26.1412 C.ar    1  UNL1        0.1024
     23 C          -6.5681    5.4250   25.1153 C.ar    1  UNL1        0.0414
     24 C          -7.8490    6.0923   25.5202 C.ar    1  UNL1        0.1023
     25 N          -8.0710    6.4836   26.9511 N.ar    1  UNL1       -0.2224
     26 C          -7.0121    6.2076   27.9772 C.ar    1  UNL1        0.1989
     27 N          -5.7312    5.5403   27.5722 N.ar    1  UNL1       -0.2224
@<TRIPOS>BOND
     1    10     9    1
     2    10    11    1
     3    11    12    1
     4    12    16    1
     5    16    17   ar
     6    17    18   ar
     7    18    19   ar
     8    19    20   ar
     9    20    21   ar
    10    12    13    1
    11    13    14    1
    12    14    15    1
    13    15     1    1
    14     1     2   ar
    15     2     3   ar
    16     3    22    1
    17    22    23   ar
    18    23    24   ar
    19    24    25   ar
    20    25    26   ar
    21    26    27   ar
    22     3     4   ar
    23     4     5   ar
    24     5     6    2
    25     5     7   ar
    26     7     8    1
    27    15    10    1
    28     7     1   ar
    29    21    16   ar
    30    27    22   ar
@<TRIPOS>MOLECULE
*****
 27 30 0 0 0
SMALL
GASTEIGER

@<TRIPOS>ATOM
      1 C         -13.7275   -2.1330   18.2504 C.ar    1  UNL1        0.2035
      2 N         -14.5826   -0.9432   18.5717 N.ar    1  UNL1       -0.2133
      3 C         -14.0190    0.4412   18.4462 C.ar    1  UNL1        0.1065
      4 C         -12.6004    0.6359   17.9993 C.ar    1  UNL1        0.0815
      5 C         -11.7453   -0.5539   17.6780 C.ar    1  UNL1        0.2646
      6 O         -10.3268   -0.3594   17.2311 O.2     1  UNL1       -0.2668
      7 N         -12.3090   -1.9384   17.8036 N.ar    1  UNL1       -0.2667
      8 C         -11.4539   -3.1282   17.4822 C.3     1  UNL1        0.1363
      9 C         -13.7165   -3.5216   20.9097 C.3     1  UNL1        0.0233
     10 C         -14.2856   -4.2117   19.7056 C.3     1  UNL1        0.0953
     11 C         -14.8492   -5.5961   19.8311 C.3     1  UNL1        0.1119
     12 N         -15.4183   -6.2862   18.6270 N.pl3   1  UNL1       -0.2898
     13 C         -15.4239   -5.5919   17.2974 C.3     1  UNL1        0.1137
     14 C         -14.8603   -4.2076   17.1719 C.3     1  UNL1        0.1150
     15 N         -14.2911   -3.5174   18.3760 N.pl3   1  UNL1       -0.2777
     16 C         -15.9819   -7.6707   18.7526 C.ar    1  UNL1        0.1318
     17 C         -17.1678   -7.9203   19.6366 C.ar    1  UNL1        0.0343
     18 C         -17.7314   -9.3047   19.7622 C.ar    1  UNL1        0.0045
     19 C         -17.1092  -10.4395   19.0037 C.ar    1  UNL1        0.0208
     20 C         -15.9233  -10.1898   18.1197 C.ar    1  UNL1        0.1003
     21 N         -15.3597   -8.8054   17.9942 N.ar    1  UNL1       -0.2292
     22 C         -14.8741    1.6311   18.7675 C.ar    1  UNL1        0.1024
     23 C         -16.1395    1.4550   19.5534 C.ar    1  UNL1        0.0414
     24 C         -16.9945    2.6448   19.8747 C.ar    1  UNL1        0.1023
     25 N         -16.5842    4.0107   19.4101 N.ar    1  UNL1       -0.2224
     26 C         -15.3187    4.1868   18.6242 C.ar    1  UNL1        0.1989
     27 N         -14.4636    2.9970   18.3029 N.ar    1  UNL1       -0.2224
@<TRIPOS>BOND
     1    10     9    1
     2    10    11    1
     3    11    12    1
     4    12    16    1
     5    16    17   ar
     6    17    18   ar
     7    18    19   ar
     8    19    20   ar
     9    20    21   ar
    10    12    13    1
    11    13    14    1
    12    14    15    1
    13    15     1    1
    14     1     2   ar
    15     2     3   ar
    16     3    22    1
    17    22    23   ar
    18    23    24   ar
    19    24    25   ar
    20    25    26   ar
    21    26    27   ar
    22     3     4   ar
    23     4     5   ar
    24     5     6    2
    25     5     7   ar
    26     7     8    1
    27    15    10    1
    28     7     1   ar
    29    21    16   ar
    30    27    22   ar
@<TRIPOS>MOLECULE
*****
 27 30 0 0 0
SMALL
GASTEIGER

@<TRIPOS>ATOM
      1 C          -0.5330    2.3261   21.1744 C.ar    1  UNL1        0.2035
      2 N          -1.7151    2.6157   20.2976 N.ar    1  UNL1       -0.2133
      3 C          -2.8687    3.4111   20.8326 C.ar    1  UNL1        0.1065
      4 C          -2.8404    3.9170   22.2444 C.ar    1  UNL1        0.0815
      5 C          -1.6583    3.6275   23.1212 C.ar    1  UNL1        0.2646
      6 O          -1.6298    4.1334   24.5330 O.2     1  UNL1       -0.2668
      7 N          -0.5045    2.8320   22.5862 N.ar    1  UNL1       -0.2667
      8 C           0.6776    2.5424   23.4630 C.3     1  UNL1        0.1363
      9 C           1.8929    3.7327   20.1083 C.3     1  UNL1        0.0233
     10 C           1.8336    2.2339   20.1063 C.3     1  UNL1        0.0953
     11 C           2.9872    1.4384   19.5713 C.3     1  UNL1        0.1119
     12 N           2.9280   -0.0604   19.5693 N.pl3   1  UNL1       -0.2898
     13 C           1.7151   -0.7637   20.1023 C.3     1  UNL1        0.1137
     14 C           0.5615    0.0318   20.6373 C.3     1  UNL1        0.1150
     15 N           0.6207    1.5306   20.6393 N.pl3   1  UNL1       -0.2777
     16 C           4.0817   -0.8559   19.0342 C.ar    1  UNL1        0.1318
     17 C           4.0075   -2.3537   18.9984 C.ar    1  UNL1        0.0343
     18 C           5.1611   -3.1492   18.4634 C.ar    1  UNL1        0.0045
     19 C           6.3890   -2.4469   17.9641 C.ar    1  UNL1        0.0208
     20 C           6.4632   -0.9492   17.9999 C.ar    1  UNL1        0.1003
     21 N           5.3095   -0.1537   18.5349 N.ar    1  UNL1       -0.2292
     22 C          -4.0508    3.7007   19.9557 C.ar    1  UNL1        0.1024
     23 C          -5.4214    3.8080   20.5558 C.ar    1  UNL1        0.0414
     24 C          -6.6035    4.0975   19.6790 C.ar    1  UNL1        0.1023
     25 N          -6.4150    4.2798   18.2021 N.ar    1  UNL1       -0.2224
     26 C          -5.0445    4.1725   17.6020 C.ar    1  UNL1        0.1989
     27 N          -3.8624    3.8829   18.4788 N.ar    1  UNL1       -0.2224
@<TRIPOS>BOND
     1    10     9    1
     2    10    11    1
     3    11    12    1
     4    12    16    1
     5    16    17   ar
     6    17    18   ar
     7    18    19   ar
     8    19    20   ar
     9    20    21   ar
    10    12    13    1
    11    13    14    1
    12    14    15    1
    13    15     1    1
    14     1     2   ar
    15     2     3   ar
    16     3    22    1
    17    22    23   ar
    18    23    24   ar
    19    24    25   ar
    20    25    26   ar
    21    26    27   ar
    22     3     4   ar
    23     4     5   ar
    24     5     6    2
    25     5     7   ar
    26     7     8    1
    27    15    10    1
    28     7     1   ar
    29    21    16   ar
    30    27    22   ar
@<TRIPOS>MOLECULE
*****
 27 30 0 0 0
SMALL
GASTEIGER

@<TRIPOS>ATOM
      1 C           4.2774   -1.0753   20.1127 C.ar    1  UNL1        0.2035
      2 N           4.7392   -1.8025   21.3407 N.ar    1  UNL1       -0.2133
      3 C           5.9252   -2.7181   21.2686 C.ar    1  UNL1        0.1065
      4 C           6.6493   -2.9065   19.9685 C.ar    1  UNL1        0.0815
      5 C           6.1874   -2.1794   18.7405 C.ar    1  UNL1        0.2646
      6 O           6.9115   -2.3678   17.4404 O.2     1  UNL1       -0.2668
      7 N           5.0014   -1.2637   18.8127 N.ar    1  UNL1       -0.2667
      8 C           4.5395   -0.5366   17.5847 C.3     1  UNL1        0.1363
      9 C           4.6708    1.8492   20.6533 C.3     1  UNL1        0.0233
     10 C           3.2881    1.3025   20.4551 C.3     1  UNL1        0.0953
     11 C           2.1021    2.2180   20.5273 C.3     1  UNL1        0.1119
     12 N           0.7194    1.6713   20.3292 N.pl3   1  UNL1       -0.2898
     13 C           0.5227    0.2091   20.0589 C.3     1  UNL1        0.1137
     14 C           1.7087   -0.7064   19.9868 C.3     1  UNL1        0.1150
     15 N           3.0914   -0.1597   20.1849 N.pl3   1  UNL1       -0.2777
     16 C          -0.4666    2.5869   20.4013 C.ar    1  UNL1        0.1318
     17 C          -0.8520    3.4103   19.2082 C.ar    1  UNL1        0.0343
     18 C          -2.0380    4.3259   19.2804 C.ar    1  UNL1        0.0045
     19 C          -2.8385    4.4181   20.5456 C.ar    1  UNL1        0.0208
     20 C          -2.4530    3.5948   21.7387 C.ar    1  UNL1        0.1003
     21 N          -1.2670    2.6791   21.6665 N.ar    1  UNL1       -0.2292
     22 C           6.3870   -3.4453   22.4965 C.ar    1  UNL1        0.1024
     23 C           5.9656   -2.9672   23.8544 C.ar    1  UNL1        0.0414
     24 C           6.4274   -3.6943   25.0823 C.ar    1  UNL1        0.1023
     25 N           7.3108   -4.8996   24.9525 N.ar    1  UNL1       -0.2224
     26 C           7.7323   -5.3778   23.5946 C.ar    1  UNL1        0.1989
     27 N           7.2705   -4.6506   22.3666 N.ar    1  UNL1       -0.2224
@<TRIPOS>BOND
     1    10     9    1
     2    10    11    1
     3    11    12    1
     4    12    16    1
     5    16    17   ar
     6    17    18   ar
     7    18    19   ar
     8    19    20   ar
     9    20    21   ar
    10    12    13    1
    11    13    14    1
    12    14    15    1
    13    15     1    1
    14     1     2   ar
    15     2     3   ar
    16     3    22    1
    17    22    23   ar
    18    23    24   ar
    19    24    25   ar
    20    25    26   ar
    21    26    27   ar
    22     3     4   ar
    23     4     5   ar
    24     5     6    2
    25     5     7   ar
    26     7     8    1
    27    15    10    1
    28     7     1   ar
    29    21    16   ar
    30    27    22   ar
@<TRIPOS>MOLECULE
*****
 27 30 0 0 0
SMALL
GASTEIGER

@<TRIPOS>ATOM
      1 C          -0.4292    2.4742   20.1369 C.ar    1  UNL1        0.2035
      2 N          -1.7498    2.6171   20.8337 N.ar    1  UNL1       -0.2133
      3 C          -2.7378    3.6438   20.3651 C.ar    1  UNL1        0.1065
      4 C          -2.4052    4.5276   19.1996 C.ar    1  UNL1        0.0815
      5 C          -1.0846    4.3847   18.5028 C.ar    1  UNL1        0.2646
      6 O          -0.7520    5.2685   17.3374 O.2     1  UNL1       -0.2668
      7 N          -0.0966    3.3580   18.9715 N.ar    1  UNL1       -0.2667
      8 C           1.2241    3.2151   18.2747 C.3     1  UNL1        0.1363
      9 C           1.4156    3.0993   22.4187 C.3     1  UNL1        0.0233
     10 C           1.4812    1.7600   21.7465 C.3     1  UNL1        0.0953
     11 C           2.4692    0.7333   22.2151 C.3     1  UNL1        0.1119
     12 N           2.5349   -0.6061   21.5428 N.pl3   1  UNL1       -0.2898
     13 C           1.6126   -0.9187   20.4020 C.3     1  UNL1        0.1137
     14 C           0.6246    0.1081   19.9334 C.3     1  UNL1        0.1150
     15 N           0.5589    1.4474   20.6056 N.pl3   1  UNL1       -0.2777
     16 C           3.5229   -1.6328   22.0115 C.ar    1  UNL1        0.1318
     17 C           4.0290   -2.6760   21.0598 C.ar    1  UNL1        0.0343
     18 C           5.0170   -3.7027   21.5284 C.ar    1  UNL1        0.0045
     19 C           5.4990   -3.6863   22.9488 C.ar    1  UNL1        0.0208
     20 C           4.9930   -2.6432   23.9005 C.ar    1  UNL1        0.1003
     21 N           4.0049   -1.6164   23.4319 N.ar    1  UNL1       -0.2292
     22 C          -4.0584    3.7866   21.0619 C.ar    1  UNL1        0.1024
     23 C          -4.1713    3.4787   22.5256 C.ar    1  UNL1        0.0414
     24 C          -5.4920    3.6216   23.2224 C.ar    1  UNL1        0.1023
     25 N          -6.6997    4.0724   22.4555 N.ar    1  UNL1       -0.2224
     26 C          -6.5868    4.3804   20.9918 C.ar    1  UNL1        0.1989
     27 N          -5.2662    4.2375   20.2950 N.ar    1  UNL1       -0.2224
@<TRIPOS>BOND
     1    10     9    1
     2    10    11    1
     3    11    12    1
     4    12    16    1
     5    16    17   ar
     6    17    18   ar
     7    18    19   ar
     8    19    20   ar
     9    20    21   ar
    10    12    13    1
    11    13    14    1
    12    14    15    1
    13    15     1    1
    14     1     2   ar
    15     2     3   ar
    16     3    22    1
    17    22    23   ar
    18    23    24   ar
    19    24    25   ar
    20    25    26   ar
    21    26    27   ar
    22     3     4   ar
    23     4     5   ar
    24     5     6    2
    25     5     7   ar
    26     7     8    1
    27    15    10    1
    28     7     1   ar
    29    21    16   ar
    30    27    22   ar
@<TRIPOS>MOLECULE
*****
 27 30 0 0 0
SMALL
GASTEIGER

@<TRIPOS>ATOM
      1 C          -0.7459    2.7205   20.6659 C.ar    1  UNL1        0.2035
      2 N          -1.3989    2.7887   22.0146 N.ar    1  UNL1       -0.2133
      3 C          -2.5981    3.6651   22.2239 C.ar    1  UNL1        0.1065
      4 C          -3.1444    4.4734   21.0844 C.ar    1  UNL1        0.0815
      5 C          -2.4914    4.4052   19.7357 C.ar    1  UNL1        0.2646
      6 O          -3.0376    5.2135   18.5963 O.2     1  UNL1       -0.2668
      7 N          -1.2921    3.5288   19.5265 N.ar    1  UNL1       -0.2667
      8 C          -0.6391    3.4606   18.1778 C.3     1  UNL1        0.1363
      9 C           2.0131    3.8837   20.8526 C.3     1  UNL1        0.0233
     10 C           1.8328    2.4257   20.5500 C.3     1  UNL1        0.0953
     11 C           3.0319    1.5492   20.3408 C.3     1  UNL1        0.1119
     12 N           2.8516    0.0912   20.0383 N.pl3   1  UNL1       -0.2898
     13 C           1.4722   -0.4905   19.9449 C.3     1  UNL1        0.1137
     14 C           0.2730    0.3860   20.1541 C.3     1  UNL1        0.1150
     15 N           0.4533    1.8441   20.4567 N.pl3   1  UNL1       -0.2777
     16 C           4.0509   -0.7853   19.8290 C.ar    1  UNL1        0.1318
     17 C           3.8730   -2.2043   19.3764 C.ar    1  UNL1        0.0343
     18 C           5.0721   -3.0807   19.1671 C.ar    1  UNL1        0.0045
     19 C           6.4493   -2.5382   19.4106 C.ar    1  UNL1        0.0208
     20 C           6.6272   -1.1193   19.8633 C.ar    1  UNL1        0.1003
     21 N           5.4279   -0.2428   20.0725 N.ar    1  UNL1       -0.2292
     22 C          -3.2511    3.7332   23.5725 C.ar    1  UNL1        0.1024
     23 C          -2.4157    3.6476   24.8154 C.ar    1  UNL1        0.0414
     24 C          -3.0687    3.7157   26.1641 C.ar    1  UNL1        0.1023
     25 N          -4.5570    3.8695   26.2699 N.ar    1  UNL1       -0.2224
     26 C          -5.3924    3.9552   25.0270 C.ar    1  UNL1        0.1989
     27 N          -4.7395    3.8871   23.6783 N.ar    1  UNL1       -0.2224
@<TRIPOS>BOND
     1    10     9    1
     2    10    11    1
     3    11    12    1
     4    12    16    1
     5    16    17   ar
     6    17    18   ar
     7    18    19   ar
     8    19    20   ar
     9    20    21   ar
    10    12    13    1
    11    13    14    1
    12    14    15    1
    13    15     1    1
    14     1     2   ar
    15     2     3   ar
    16     3    22    1
    17    22    23   ar
    18    23    24   ar
    19    24    25   ar
    20    25    26   ar
    21    26    27   ar
    22     3     4   ar
    23     4     5   ar
    24     5     6    2
    25     5     7   ar
    26     7     8    1
    27    15    10    1
    28     7     1   ar
    29    21    16   ar
    30    27    22   ar
@<TRIPOS>MOLECULE
*****
 27 30 0 0 0
SMALL
GASTEIGER

@<TRIPOS>ATOM
      1 C           4.1794   -0.7064   30.9505 C.ar    1  UNL1        0.2035
      2 N           5.1451   -1.7788   30.5414 N.ar    1  UNL1       -0.2133
      3 C           6.0133   -2.4388   31.5712 C.ar    1  UNL1        0.1065
      4 C           5.9159   -2.0265   33.0101 C.ar    1  UNL1        0.0815
      5 C           4.9502   -0.9540   33.4193 C.ar    1  UNL1        0.2646
      6 O           4.8527   -0.5417   34.8581 O.2     1  UNL1       -0.2668
      7 N           4.0819   -0.2940   32.3894 N.ar    1  UNL1       -0.2667
      8 C           3.1162    0.7784   32.7985 C.3     1  UNL1        0.1363
      9 C           5.2372    1.6025   29.3535 C.3     1  UNL1        0.0233
     10 C           3.8400    1.1081   29.1222 C.3     1  UNL1        0.0953
     11 C           2.9717    1.7681   28.0924 C.3     1  UNL1        0.1119
     12 N           1.5746    1.2737   27.8611 N.pl3   1  UNL1       -0.2898
     13 C           1.0457    0.1193   28.6596 C.3     1  UNL1        0.1137
     14 C           1.9139   -0.5407   29.6894 C.3     1  UNL1        0.1150
     15 N           3.3111   -0.0463   29.9207 N.pl3   1  UNL1       -0.2777
     16 C           0.7063    1.9337   26.8312 C.ar    1  UNL1        0.1318
     17 C          -0.7436    2.1850   27.1223 C.ar    1  UNL1        0.0343
     18 C          -1.6118    2.8450   26.0925 C.ar    1  UNL1        0.0045
     19 C          -1.0302    3.2538   24.7716 C.ar    1  UNL1        0.0208
     20 C           0.4197    3.0026   24.4806 C.ar    1  UNL1        0.1003
     21 N           1.2879    2.3425   25.5104 N.ar    1  UNL1       -0.2292
     22 C           6.9790   -3.5112   31.1620 C.ar    1  UNL1        0.1024
     23 C           8.3263   -3.5963   31.8157 C.ar    1  UNL1        0.0414
     24 C           9.2920   -4.6687   31.4066 C.ar    1  UNL1        0.1023
     25 N           8.9104   -5.6560   30.3438 N.ar    1  UNL1       -0.2224
     26 C           7.5630   -5.5709   29.6901 C.ar    1  UNL1        0.1989
     27 N           6.5973   -4.4985   30.0992 N.ar    1  UNL1       -0.2224
@<TRIPOS>BOND
     1    10     9    1
     2    10    11    1
     3    11    12    1
     4    12    16    1
     5    16    17   ar
     6    17    18   ar
     7    18    19   ar
     8    19    20   ar
     9    20    21   ar
    10    12    13    1
    11    13    14    1
    12    14    15    1
    13    15     1    1
    14     1     2   ar
    15     2     3   ar
    16     3    22    1
    17    22    23   ar
    18    23    24   ar
    19    24    25   ar
    20    25    26   ar
    21    26    27   ar
    22     3     4   ar
    23     4     5   ar
    24     5     6    2
    25     5     7   ar
    26     7     8    1
    27    15    10    1
    28     7     1   ar
    29    21    16   ar
    30    27    22   ar
@<TRIPOS>MOLECULE
*****
 27 30 0 0 0
SMALL
GASTEIGER

@<TRIPOS>ATOM
      1 C           1.9995    0.9745   26.4033 C.ar    1  UNL1        0.2035
      2 N           2.5237    0.1420   25.2710 N.ar    1  UNL1       -0.2133
      3 C           2.0889    0.4298   23.8645 C.ar    1  UNL1        0.1065
      4 C           1.1298    1.5501   23.5904 C.ar    1  UNL1        0.0815
      5 C           0.6056    2.3826   24.7227 C.ar    1  UNL1        0.2646
      6 O          -0.3534    3.5029   24.4486 O.2     1  UNL1       -0.2668
      7 N           1.0405    2.0948   26.1292 N.ar    1  UNL1       -0.2667
      8 C           0.5163    2.9273   27.2615 C.3     1  UNL1        0.1363
      9 C           4.4181    2.3416   27.5352 C.3     1  UNL1        0.0233
     10 C           3.6436    1.3702   28.3757 C.3     1  UNL1        0.0953
     11 C           4.0784    1.0823   29.7821 C.3     1  UNL1        0.1119
     12 N           3.3039    0.1108   30.6226 N.pl3   1  UNL1       -0.2898
     13 C           2.0946   -0.5727   30.0567 C.3     1  UNL1        0.1137
     14 C           1.6599   -0.2849   28.6503 C.3     1  UNL1        0.1150
     15 N           2.4343    0.6866   27.8098 N.pl3   1  UNL1       -0.2777
     16 C           3.7388   -0.1770   32.0291 C.ar    1  UNL1        0.1318
     17 C           4.0349    0.9540   32.9689 C.ar    1  UNL1        0.0343
     18 C           4.4697    0.6662   34.3753 C.ar    1  UNL1        0.0045
     19 C           4.6085   -0.7527   34.8420 C.ar    1  UNL1        0.0208
     20 C           4.3124   -1.8836   33.9022 C.ar    1  UNL1        0.1003
     21 N           3.8775   -1.5958   32.4957 N.ar    1  UNL1       -0.2292
     22 C           2.6131   -0.4027   22.7322 C.ar    1  UNL1        0.1024
     23 C           3.6967   -1.4097   22.9807 C.ar    1  UNL1        0.0414
     24 C           4.2209   -2.2422   21.8483 C.ar    1  UNL1        0.1023
     25 N           3.6615   -2.0677   20.4676 N.ar    1  UNL1       -0.2224
     26 C           2.5779   -1.0607   20.2191 C.ar    1  UNL1        0.1989
     27 N           2.0536   -0.2282   21.3514 N.ar    1  UNL1       -0.2224
@<TRIPOS>BOND
     1    10     9    1
     2    10    11    1
     3    11    12    1
     4    12    16    1
     5    16    17   ar
     6    17    18   ar
     7    18    19   ar
     8    19    20   ar
     9    20    21   ar
    10    12    13    1
    11    13    14    1
    12    14    15    1
    13    15     1    1
    14     1     2   ar
    15     2     3   ar
    16     3    22    1
    17    22    23   ar
    18    23    24   ar
    19    24    25   ar
    20    25    26   ar
    21    26    27   ar
    22     3     4   ar
    23     4     5   ar
    24     5     6    2
    25     5     7   ar
    26     7     8    1
    27    15    10    1
    28     7     1   ar
    29    21    16   ar
    30    27    22   ar
