@<TRIPOS>MOLECULE
*****
 16 17 0 0 0
SMALL
GASTEIGER

@<TRIPOS>ATOM
      1 C          -9.8992  -18.5845   23.8869 C.ar    1  UNL1        0.1386
      2 C          -9.4127  -19.9204   23.4089 C.ar    1  UNL1        0.0370
      3 C          -8.1309  -20.0192   22.6361 C.ar    1  UNL1        0.0062
      4 C          -7.3355  -18.7821   22.3414 C.ar    1  UNL1        0.0374
      5 C          -7.8220  -17.4462   22.8194 C.ar    1  UNL1        0.0062
      6 C          -9.1038  -17.3473   23.5922 C.ar    1  UNL1        0.0370
      7 C          -6.0537  -18.8809   21.5686 C.ar    1  UNL1        0.1769
      8 C          -4.7272  -19.3204   22.1137 C.ar    1  UNL1        0.0642
      9 C          -3.7270  -19.2687   20.9971 C.ar    1  UNL1        0.1438
     10 N          -4.4354  -18.7973   19.7618 N.ar    1  UNL1       -0.0753
     11 O          -5.8734  -18.5576   20.1150 O.2     1  UNL1       -0.3533
     12 O         -11.1810  -18.4856   24.6597 O.3     1  UNL1       -0.4755
     13 C         -12.4898  -18.3940   23.9328 C.3     1  UNL1        0.2054
     14 C         -12.6990  -17.3304   22.8959 C.3     1  UNL1        0.0473
     15 C         -11.5177  -18.1802   20.7436 C.3     1  UNL1        0.0001
     16 C         -12.7546  -17.6998   21.4432 C.3     1  UNL1        0.0038
@<TRIPOS>BOND
     1    15    16    1
     2    16    14    1
     3    14    13    1
     4    13    12    1
     5    12     1    1
     6     1     2   ar
     7     2     3   ar
     8     3     4   ar
     9     4     7    1
    10     7     8   ar
    11     8     9   ar
    12     9    10   ar
    13    10    11   ar
    14     4     5   ar
    15     5     6   ar
    16     6     1   ar
    17    11     7   ar
@<TRIPOS>MOLECULE
*****
 16 17 0 0 0
SMALL
GASTEIGER

@<TRIPOS>ATOM
      1 C          -9.9912  -19.3279   20.9957 C.ar    1  UNL1        0.1386
      2 C          -9.1945  -19.4496   19.7306 C.ar    1  UNL1        0.0370
      3 C          -7.7031  -19.5968   19.7948 C.ar    1  UNL1        0.0062
      4 C          -7.0084  -19.6223   21.1240 C.ar    1  UNL1        0.0374
      5 C          -7.8052  -19.5005   22.3890 C.ar    1  UNL1        0.0062
      6 C          -9.2966  -19.3533   22.3249 C.ar    1  UNL1        0.0370
      7 C          -5.5171  -19.7695   21.1882 C.ar    1  UNL1        0.1769
      8 C          -4.6161  -19.1725   22.2283 C.ar    1  UNL1        0.0642
      9 C          -3.2070  -19.5736   21.9064 C.ar    1  UNL1        0.1438
     10 N          -3.2371  -20.4184   20.6673 N.ar    1  UNL1       -0.0753
     11 O          -4.6648  -20.5395   20.2234 O.2     1  UNL1       -0.3533
     12 O         -11.4826  -19.1806   20.9315 O.3     1  UNL1       -0.4755
     13 C         -12.1073  -17.8212   21.0388 C.3     1  UNL1        0.2054
     14 C         -12.4005  -17.2348   22.3879 C.3     1  UNL1        0.0473
     15 C         -13.9982  -18.1301   24.2307 C.3     1  UNL1        0.0001
     16 C         -12.6574  -18.1374   23.5582 C.3     1  UNL1        0.0038
@<TRIPOS>BOND
     1    15    16    1
     2    16    14    1
     3    14    13    1
     4    13    12    1
     5    12     1    1
     6     1     2   ar
     7     2     3   ar
     8     3     4   ar
     9     4     7    1
    10     7     8   ar
    11     8     9   ar
    12     9    10   ar
    13    10    11   ar
    14     4     5   ar
    15     5     6   ar
    16     6     1   ar
    17    11     7   ar
@<TRIPOS>MOLECULE
*****
 16 17 0 0 0
SMALL
GASTEIGER

@<TRIPOS>ATOM
      1 C          -5.9071  -19.8772   21.7850 C.ar    1  UNL1        0.1386
      2 C          -5.1252  -18.9360   22.6525 C.ar    1  UNL1        0.0370
      3 C          -3.7630  -18.4770   22.2236 C.ar    1  UNL1        0.0062
      4 C          -3.1829  -18.9593   20.9271 C.ar    1  UNL1        0.0374
      5 C          -3.9649  -19.9004   20.0596 C.ar    1  UNL1        0.0062
      6 C          -5.3270  -20.3594   20.4885 C.ar    1  UNL1        0.0370
      7 C          -1.8208  -18.5003   20.4982 C.ar    1  UNL1        0.1769
      8 C          -1.3463  -17.0784   20.4430 C.ar    1  UNL1        0.0642
      9 C           0.0738  -17.0820   19.9599 C.ar    1  UNL1        0.1438
     10 N           0.4770  -18.5061   19.7164 N.ar    1  UNL1       -0.0753
     11 O          -0.6939  -19.3827   20.0491 O.2     1  UNL1       -0.3533
     12 O          -7.2693  -20.3361   22.2139 O.3     1  UNL1       -0.4755
     13 C          -8.3782  -19.3400   22.3811 C.3     1  UNL1        0.2054
     14 C          -9.6338  -19.7296   23.1033 C.3     1  UNL1        0.0473
     15 C         -10.9475  -19.7671   20.8621 C.3     1  UNL1        0.0001
     16 C         -10.8669  -20.0839   22.3260 C.3     1  UNL1        0.0038
@<TRIPOS>BOND
     1    15    16    1
     2    16    14    1
     3    14    13    1
     4    13    12    1
     5    12     1    1
     6     1     2   ar
     7     2     3   ar
     8     3     4   ar
     9     4     7    1
    10     7     8   ar
    11     8     9   ar
    12     9    10   ar
    13    10    11   ar
    14     4     5   ar
    15     5     6   ar
    16     6     1   ar
    17    11     7   ar
@<TRIPOS>MOLECULE
*****
 16 17 0 0 0
SMALL
GASTEIGER

@<TRIPOS>ATOM
      1 C          -6.6407  -19.8970   21.9033 C.ar    1  UNL1        0.1386
      2 C          -6.0948  -20.6238   20.7102 C.ar    1  UNL1        0.0370
      3 C          -4.7396  -20.2712   20.1725 C.ar    1  UNL1        0.0062
      4 C          -3.9303  -19.1917   20.8280 C.ar    1  UNL1        0.0374
      5 C          -4.4762  -18.4648   22.0212 C.ar    1  UNL1        0.0062
      6 C          -5.8314  -18.8175   22.5588 C.ar    1  UNL1        0.0370
      7 C          -2.5751  -18.8390   20.2904 C.ar    1  UNL1        0.1769
      8 C          -2.2928  -17.8858   19.1672 C.ar    1  UNL1        0.0642
      9 C          -0.8075  -17.8353   18.9642 C.ar    1  UNL1        0.1438
     10 N          -0.1717  -18.7574   19.9620 N.ar    1  UNL1       -0.0753
     11 O          -1.2641  -19.3777   20.7816 O.2     1  UNL1       -0.3533
     12 O          -7.9959  -20.2496   22.4409 O.3     1  UNL1       -0.4755
     13 C          -9.0632  -19.1996   22.5320 C.3     1  UNL1        0.2054
     14 C         -10.4972  -19.5644   22.2859 C.3     1  UNL1        0.0473
     15 C         -10.3496  -19.1905   19.7191 C.3     1  UNL1        0.0001
     16 C         -10.9604  -19.8903   20.8969 C.3     1  UNL1        0.0038
@<TRIPOS>BOND
     1    15    16    1
     2    16    14    1
     3    14    13    1
     4    13    12    1
     5    12     1    1
     6     1     2   ar
     7     2     3   ar
     8     3     4   ar
     9     4     7    1
    10     7     8   ar
    11     8     9   ar
    12     9    10   ar
    13    10    11   ar
    14     4     5   ar
    15     5     6   ar
    16     6     1   ar
    17    11     7   ar
@<TRIPOS>MOLECULE
*****
 16 17 0 0 0
SMALL
GASTEIGER

@<TRIPOS>ATOM
      1 C          -9.8800  -19.4973   20.8770 C.ar    1  UNL1        0.1386
      2 C          -9.1548  -19.4375   22.1886 C.ar    1  UNL1        0.0370
      3 C          -7.6555  -19.4019   22.2157 C.ar    1  UNL1        0.0062
      4 C          -6.8814  -19.4261   20.9311 C.ar    1  UNL1        0.0374
      5 C          -7.6066  -19.4859   19.6195 C.ar    1  UNL1        0.0062
      6 C          -9.1060  -19.5215   19.5924 C.ar    1  UNL1        0.0370
      7 C          -5.3821  -19.3904   20.9582 C.ar    1  UNL1        0.1769
      8 C          -4.4646  -20.3686   20.2863 C.ar    1  UNL1        0.0642
      9 C          -3.0524  -19.9531   20.5747 C.ar    1  UNL1        0.1438
     10 N          -3.0971  -18.7181   21.4249 N.ar    1  UNL1       -0.0753
     11 O          -4.5369  -18.3704   21.6619 O.2     1  UNL1       -0.3533
     12 O         -11.3794  -19.5330   20.8499 O.3     1  UNL1       -0.4755
     13 C         -12.1630  -18.2666   21.0287 C.3     1  UNL1        0.2054
     14 C         -11.6245  -16.9703   20.4998 C.3     1  UNL1        0.0473
     15 C         -10.8892  -16.2970   22.8990 C.3     1  UNL1        0.0001
     16 C         -10.9863  -15.9861   21.4348 C.3     1  UNL1        0.0038
@<TRIPOS>BOND
     1    15    16    1
     2    16    14    1
     3    14    13    1
     4    13    12    1
     5    12     1    1
     6     1     2   ar
     7     2     3   ar
     8     3     4   ar
     9     4     7    1
    10     7     8   ar
    11     8     9   ar
    12     9    10   ar
    13    10    11   ar
    14     4     5   ar
    15     5     6   ar
    16     6     1   ar
    17    11     7   ar
@<TRIPOS>MOLECULE
*****
 16 17 0 0 0
SMALL
GASTEIGER

@<TRIPOS>ATOM
      1 C          -8.7411  -18.7197   22.9789 C.ar    1  UNL1        0.1386
      2 C          -7.8344  -17.5369   22.8091 C.ar    1  UNL1        0.0370
      3 C          -6.4217  -17.7354   22.3456 C.ar    1  UNL1        0.0062
      4 C          -5.9157  -19.1165   22.0518 C.ar    1  UNL1        0.0374
      5 C          -6.8224  -20.2993   22.2216 C.ar    1  UNL1        0.0062
      6 C          -8.2352  -20.1008   22.6851 C.ar    1  UNL1        0.0370
      7 C          -4.5030  -19.3149   21.5883 C.ar    1  UNL1        0.1769
      8 C          -3.9856  -19.0614   20.2034 C.ar    1  UNL1        0.0642
      9 C          -2.5224  -19.3915   20.1874 C.ar    1  UNL1        0.1438
     10 N          -2.1355  -19.8491   21.5625 N.ar    1  UNL1       -0.0753
     11 O          -3.3596  -19.8017   22.4283 O.2     1  UNL1       -0.3533
     12 O         -10.1538  -18.5213   23.4424 O.3     1  UNL1       -0.4755
     13 C         -11.2371  -18.2346   22.4453 C.3     1  UNL1        0.2054
     14 C         -10.9039  -18.1235   20.9870 C.3     1  UNL1        0.0473
     15 C          -9.6153  -19.6711   19.3455 C.3     1  UNL1        0.0001
     16 C         -10.8521  -19.3560   20.1335 C.3     1  UNL1        0.0038
@<TRIPOS>BOND
     1    15    16    1
     2    16    14    1
     3    14    13    1
     4    13    12    1
     5    12     1    1
     6     1     2   ar
     7     2     3   ar
     8     3     4   ar
     9     4     7    1
    10     7     8   ar
    11     8     9   ar
    12     9    10   ar
    13    10    11   ar
    14     4     5   ar
    15     5     6   ar
    16     6     1   ar
    17    11     7   ar
@<TRIPOS>MOLECULE
*****
 16 17 0 0 0
SMALL
GASTEIGER

@<TRIPOS>ATOM
      1 C         -12.8753   -5.3187   17.8657 C.ar    1  UNL1        0.1386
      2 C         -13.6640   -5.4199   19.1376 C.ar    1  UNL1        0.0370
      3 C         -14.5218   -6.6233   19.3945 C.ar    1  UNL1        0.0062
      4 C         -14.5909   -7.7255   18.3795 C.ar    1  UNL1        0.0374
      5 C         -13.8022   -7.6244   17.1076 C.ar    1  UNL1        0.0062
      6 C         -12.9444   -6.4209   16.8507 C.ar    1  UNL1        0.0370
      7 C         -15.4487   -8.9290   18.6363 C.ar    1  UNL1        0.1769
      8 C         -16.7165   -8.9532   19.4377 C.ar    1  UNL1        0.0642
      9 C         -17.2407  -10.3587   19.4336 C.ar    1  UNL1        0.1438
     10 N         -16.2968  -11.2030   18.6297 N.ar    1  UNL1       -0.0753
     11 O         -15.1893  -10.3194   18.1370 O.2     1  UNL1       -0.3533
     12 O         -12.0175   -4.1153   17.6088 O.3     1  UNL1       -0.4755
     13 C         -10.8659   -3.8070   18.5191 C.3     1  UNL1        0.2054
     14 C          -9.6268   -4.6511   18.4731 C.3     1  UNL1        0.0473
     15 C          -9.7841   -7.2369   18.6701 C.3     1  UNL1        0.0001
     16 C          -9.5379   -5.8986   19.3013 C.3     1  UNL1        0.0038
@<TRIPOS>BOND
     1    15    16    1
     2    16    14    1
     3    14    13    1
     4    13    12    1
     5    12     1    1
     6     1     2   ar
     7     2     3   ar
     8     3     4   ar
     9     4     7    1
    10     7     8   ar
    11     8     9   ar
    12     9    10   ar
    13    10    11   ar
    14     4     5   ar
    15     5     6   ar
    16     6     1   ar
    17    11     7   ar
@<TRIPOS>MOLECULE
*****
 16 17 0 0 0
SMALL
GASTEIGER

@<TRIPOS>ATOM
      1 C         -12.1254   -5.7906   17.7377 C.ar    1  UNL1        0.1386
      2 C         -12.3262   -6.9337   16.7876 C.ar    1  UNL1        0.0370
      3 C         -13.3495   -7.9883   17.0886 C.ar    1  UNL1        0.0062
      4 C         -14.1719   -7.8999   18.3399 C.ar    1  UNL1        0.0374
      5 C         -13.9711   -6.7567   19.2901 C.ar    1  UNL1        0.0062
      6 C         -12.9478   -5.7021   18.9890 C.ar    1  UNL1        0.0370
      7 C         -15.1952   -8.9545   18.6410 C.ar    1  UNL1        0.1769
      8 C         -16.3982   -8.7899   19.5218 C.ar    1  UNL1        0.0642
      9 C         -17.1416  -10.0926   19.5393 C.ar    1  UNL1        0.1438
     10 N         -16.3981  -11.0623   18.6693 N.ar    1  UNL1       -0.0753
     11 O         -15.1952  -10.3589   18.1142 O.2     1  UNL1       -0.3533
     12 O         -11.1021   -4.7359   17.4366 O.3     1  UNL1       -0.4755
     13 C         -10.5991   -3.8443   18.5329 C.3     1  UNL1        0.2054
     14 C         -10.9965   -2.3982   18.5653 C.3     1  UNL1        0.0473
     15 C         -13.5681   -2.0638   18.4063 C.3     1  UNL1        0.0001
     16 C         -12.2951   -1.9913   19.1964 C.3     1  UNL1        0.0038
@<TRIPOS>BOND
     1    15    16    1
     2    16    14    1
     3    14    13    1
     4    13    12    1
     5    12     1    1
     6     1     2   ar
     7     2     3   ar
     8     3     4   ar
     9     4     7    1
    10     7     8   ar
    11     8     9   ar
    12     9    10   ar
    13    10    11   ar
    14     4     5   ar
    15     5     6   ar
    16     6     1   ar
    17    11     7   ar
@<TRIPOS>MOLECULE
*****
 16 17 0 0 0
SMALL
GASTEIGER

@<TRIPOS>ATOM
      1 C         -13.3616   -4.8089   19.5535 C.ar    1  UNL1        0.1386
      2 C         -12.9823   -6.1906   19.1097 C.ar    1  UNL1        0.0370
      3 C         -14.0367   -7.2475   18.9641 C.ar    1  UNL1        0.0062
      4 C         -15.4705   -6.9226   19.2622 C.ar    1  UNL1        0.0374
      5 C         -15.8497   -5.5409   19.7060 C.ar    1  UNL1        0.0062
      6 C         -14.7953   -4.4841   19.8516 C.ar    1  UNL1        0.0370
      7 C         -16.5249   -7.9795   19.1165 C.ar    1  UNL1        0.1769
      8 C         -16.8645   -8.7183   17.8560 C.ar    1  UNL1        0.0642
      9 C         -17.9743   -9.6785   18.1662 C.ar    1  UNL1        0.1438
     10 N         -18.3206   -9.5332   19.6184 N.ar    1  UNL1       -0.0753
     11 O         -17.4248   -8.4832   20.2057 O.2     1  UNL1       -0.3533
     12 O         -12.3072   -3.7520   19.6992 O.3     1  UNL1       -0.4755
     13 C         -11.3478   -3.4900   18.5764 C.3     1  UNL1        0.2054
     14 C          -9.9879   -4.1229   18.5887 C.3     1  UNL1        0.0473
     15 C          -8.8828   -3.8984   16.2481 C.3     1  UNL1        0.0001
     16 C          -9.4443   -4.7567   17.3426 C.3     1  UNL1        0.0038
@<TRIPOS>BOND
     1    15    16    1
     2    16    14    1
     3    14    13    1
     4    13    12    1
     5    12     1    1
     6     1     2   ar
     7     2     3   ar
     8     3     4   ar
     9     4     7    1
    10     7     8   ar
    11     8     9   ar
    12     9    10   ar
    13    10    11   ar
    14     4     5   ar
    15     5     6   ar
    16     6     1   ar
    17    11     7   ar
