@<TRIPOS>MOLECULE
*****
 32 33 0 0 0
SMALL
GASTEIGER

@<TRIPOS>ATOM
      1 C          -8.1708  -16.3816   23.8475 C.2     1  UNL1        0.2270
      2 O          -7.5590  -16.5631   22.4900 O.2     1  UNL1       -0.2748
      3 N          -7.3321  -15.8859   24.9880 N.am    1  UNL1       -0.2794
      4 C          -7.8024  -15.6565   26.3938 C.3     1  UNL1        0.0935
      5 C          -6.6367  -15.1613   27.1976 C.3     1  UNL1        0.0233
      6 C          -5.4460  -15.0847   26.2885 C.3     1  UNL1        0.0233
      7 C          -5.8758  -15.5325   24.9229 C.3     1  UNL1        0.0949
      8 C          -9.6214  -16.6959   24.0645 C.3     1  UNL1        0.1010
      9 N          -9.7605  -18.5614   25.8674 N.3     1  UNL1       -0.3215
     10 C         -10.0362  -18.0779   24.4745 C.3     1  UNL1        0.0644
     11 H          -9.2888  -17.8270   26.3952 H       1  UNL1        0.1188
     12 H          -9.1646  -19.3884   25.8285 H       1  UNL1        0.1188
     13 C         -10.7268  -18.9762   23.4917 C.3     1  UNL1        0.0447
     14 C         -10.1551  -19.1648   22.1177 C.ar    1  UNL1        0.0090
     15 C          -8.7253  -19.5868   21.9518 C.ar    1  UNL1        0.0300
     16 C          -8.1536  -19.7754   20.5779 C.ar    1  UNL1        0.1672
     17 F          -6.7237  -20.1973   20.4119 F       1  UNL1       -0.2018
     18 C          -9.0118  -19.5420   19.3699 C.ar    1  UNL1        0.1696
     19 F          -8.4401  -19.7306   17.9960 F       1  UNL1       -0.2017
     20 C         -10.4416  -19.1201   19.5359 C.ar    1  UNL1        0.0612
     21 C         -11.0132  -18.9315   20.9098 C.ar    1  UNL1        0.1386
     22 F         -12.4431  -18.5095   21.0758 F       1  UNL1       -0.2044
     23 C          -5.0025  -15.6128   23.7060 C.3     1  UNL1        0.1091
     24 N          -4.4093  -16.9275   23.2938 N.am    1  UNL1       -0.3025
     25 C          -3.2076  -16.9599   22.3967 C.2     1  UNL1        0.2312
     26 O          -2.5990  -15.6774   21.9117 O.2     1  UNL1       -0.2748
     27 H          -4.8088  -17.7691   23.6121 H       1  UNL1        0.1495
     28 C          -2.6145  -18.2746   21.9846 C.3     1  UNL1        0.1880
     29 C          -3.2108  -19.0408   20.8413 C.3     1  UNL1        0.4063
     30 F          -3.8072  -19.8071   19.6980 F       1  UNL1       -0.1695
     31 F          -3.9262  -19.9327   21.8121 F       1  UNL1       -0.1695
     32 F          -2.4954  -18.1489   19.8703 F       1  UNL1       -0.1695
@<TRIPOS>BOND
     1    10     9    1
     2    10     8    1
     3     8     1    1
     4     1     2    2
     5     1     3   am
     6     3     4    1
     7     4     5    1
     8     5     6    1
     9     6     7    1
    10     7    23    1
    11    23    24    1
    12    24    25   am
    13    25    26    2
    14    25    28    1
    15    28    29    1
    16    29    30    1
    17    29    31    1
    18    29    32    1
    19    10    13    1
    20    13    14    1
    21    14    15   ar
    22    15    16   ar
    23    16    17    1
    24    16    18   ar
    25    18    19    1
    26    18    20   ar
    27    20    21   ar
    28    21    22    1
    29     7     3    1
    30    21    14   ar
    31     9    11    1
    32     9    12    1
    33    24    27    1
@<TRIPOS>MOLECULE
*****
 32 33 0 0 0
SMALL
GASTEIGER

@<TRIPOS>ATOM
      1 C          -8.0323  -18.6886   22.2179 C.2     1  UNL1        0.2270
      2 O          -7.7981  -17.3056   21.6865 O.2     1  UNL1       -0.2748
      3 N          -9.1719  -18.9478   23.1581 N.am    1  UNL1       -0.2794
      4 C          -9.5282  -20.2712   23.7680 C.3     1  UNL1        0.0935
      5 C         -10.7318  -20.0705   24.6404 C.3     1  UNL1        0.0233
      6 C         -11.1193  -18.6231   24.5698 C.3     1  UNL1        0.0233
      7 C         -10.1552  -17.9293   23.6537 C.3     1  UNL1        0.0949
      8 C          -7.1270  -19.8124   21.8089 C.3     1  UNL1        0.1010
      9 N          -6.9508  -19.0606   19.3282 N.3     1  UNL1       -0.3215
     10 C          -6.3451  -19.7190   20.5322 C.3     1  UNL1        0.0644
     11 H          -7.8912  -18.7368   19.5548 H       1  UNL1        0.1188
     12 H          -6.9978  -19.7315   18.5614 H       1  UNL1        0.1188
     13 C          -4.9575  -20.2840   20.4595 C.3     1  UNL1        0.0447
     14 C          -3.7750  -19.3631   20.3979 C.ar    1  UNL1        0.0090
     15 C          -3.1805  -18.9934   19.0713 C.ar    1  UNL1        0.0300
     16 C          -1.9981  -18.0726   19.0098 C.ar    1  UNL1        0.1672
     17 F          -1.4036  -17.7028   17.6832 F       1  UNL1       -0.2018
     18 C          -1.4101  -17.5214   20.2749 C.ar    1  UNL1        0.1696
     19 F          -0.2276  -16.6005   20.2134 F       1  UNL1       -0.2017
     20 C          -2.0045  -17.8911   21.6015 C.ar    1  UNL1        0.0612
     21 C          -3.1870  -18.8119   21.6630 C.ar    1  UNL1        0.1386
     22 F          -3.7815  -19.1817   22.9897 F       1  UNL1       -0.2044
     23 C         -10.1717  -16.4727   23.2959 C.3     1  UNL1        0.1091
     24 N          -8.9688  -15.6194   23.5698 N.am    1  UNL1       -0.3025
     25 C          -8.2582  -15.7252   24.8866 C.2     1  UNL1        0.2312
     26 O          -8.7505  -16.6844   25.9295 O.2     1  UNL1       -0.2748
     27 H          -8.6456  -14.9899   22.8853 H       1  UNL1        0.1495
     28 C          -7.0553  -14.8719   25.1604 C.3     1  UNL1        0.1880
     29 C          -5.8232  -15.4827   25.7594 C.3     1  UNL1        0.4063
     30 F          -4.5912  -16.0934   26.3585 F       1  UNL1       -0.1695
     31 F          -6.2489  -15.0092   27.1176 F       1  UNL1       -0.1695
     32 F          -5.3975  -15.9561   24.4013 F       1  UNL1       -0.1695
@<TRIPOS>BOND
     1    10     9    1
     2    10     8    1
     3     8     1    1
     4     1     2    2
     5     1     3   am
     6     3     4    1
     7     4     5    1
     8     5     6    1
     9     6     7    1
    10     7    23    1
    11    23    24    1
    12    24    25   am
    13    25    26    2
    14    25    28    1
    15    28    29    1
    16    29    30    1
    17    29    31    1
    18    29    32    1
    19    10    13    1
    20    13    14    1
    21    14    15   ar
    22    15    16   ar
    23    16    17    1
    24    16    18   ar
    25    18    19    1
    26    18    20   ar
    27    20    21   ar
    28    21    22    1
    29     7     3    1
    30    21    14   ar
    31     9    11    1
    32     9    12    1
    33    24    27    1
@<TRIPOS>MOLECULE
*****
 32 33 0 0 0
SMALL
GASTEIGER

@<TRIPOS>ATOM
      1 C          -7.8382  -18.1692   21.3343 C.2     1  UNL1        0.2270
      2 O          -7.2668  -17.1039   22.2222 O.2     1  UNL1       -0.2748
      3 N          -9.3182  -18.4122   21.3114 N.am    1  UNL1       -0.2794
      4 C         -10.0307  -19.4368   20.4791 C.3     1  UNL1        0.0935
      5 C         -11.4984  -19.3312   20.7701 C.3     1  UNL1        0.0233
      6 C         -11.6930  -18.2413   21.7823 C.3     1  UNL1        0.0233
      7 C         -10.3455  -17.6734   22.1168 C.3     1  UNL1        0.0949
      8 C          -6.9297  -18.9915   20.4691 C.3     1  UNL1        0.1010
      9 N          -6.6094  -20.8226   22.2841 N.3     1  UNL1       -0.3215
     10 C          -6.1070  -20.0891   21.0760 C.3     1  UNL1        0.0644
     11 H          -7.5183  -20.4479   22.5559 H       1  UNL1        0.1188
     12 H          -5.9492  -20.7043   23.0527 H       1  UNL1        0.1188
     13 C          -4.7819  -20.4532   20.4748 C.3     1  UNL1        0.0447
     14 C          -3.6812  -19.4359   20.4135 C.ar    1  UNL1        0.0090
     15 C          -3.0849  -19.0549   19.0909 C.ar    1  UNL1        0.0300
     16 C          -1.9843  -18.0377   19.0296 C.ar    1  UNL1        0.1672
     17 F          -1.3880  -17.6566   17.7069 F       1  UNL1       -0.2018
     18 C          -1.4799  -17.4015   20.2908 C.ar    1  UNL1        0.1696
     19 F          -0.3792  -16.3842   20.2295 F       1  UNL1       -0.2017
     20 C          -2.0762  -17.7825   21.6134 C.ar    1  UNL1        0.0612
     21 C          -3.1768  -18.7997   21.6747 C.ar    1  UNL1        0.1386
     22 F          -3.7731  -19.1808   22.9974 F       1  UNL1       -0.2044
     23 C         -10.0733  -16.5619   23.0865 C.3     1  UNL1        0.1091
     24 N          -9.6490  -16.8780   24.4901 N.am    1  UNL1       -0.3025
     25 C          -8.6482  -16.0040   25.1860 C.2     1  UNL1        0.2312
     26 O          -8.0716  -14.8137   24.4783 O.2     1  UNL1       -0.2748
     27 H         -10.0274  -17.6593   24.9545 H       1  UNL1        0.1495
     28 C          -8.2240  -16.3202   26.5896 C.3     1  UNL1        0.1880
     29 C          -7.4008  -15.3343   27.3644 C.3     1  UNL1        0.4063
     30 F          -6.5778  -14.3483   28.1392 F       1  UNL1       -0.1695
     31 F          -8.6508  -14.6152   27.7773 F       1  UNL1       -0.1695
     32 F          -6.1508  -16.0533   26.9516 F       1  UNL1       -0.1695
@<TRIPOS>BOND
     1    10     9    1
     2    10     8    1
     3     8     1    1
     4     1     2    2
     5     1     3   am
     6     3     4    1
     7     4     5    1
     8     5     6    1
     9     6     7    1
    10     7    23    1
    11    23    24    1
    12    24    25   am
    13    25    26    2
    14    25    28    1
    15    28    29    1
    16    29    30    1
    17    29    31    1
    18    29    32    1
    19    10    13    1
    20    13    14    1
    21    14    15   ar
    22    15    16   ar
    23    16    17    1
    24    16    18   ar
    25    18    19    1
    26    18    20   ar
    27    20    21   ar
    28    21    22    1
    29     7     3    1
    30    21    14   ar
    31     9    11    1
    32     9    12    1
    33    24    27    1
@<TRIPOS>MOLECULE
*****
 32 33 0 0 0
SMALL
GASTEIGER

@<TRIPOS>ATOM
      1 C          -6.7248  -18.4195   22.4064 C.2     1  UNL1        0.2270
      2 O          -7.3986  -17.1992   22.9603 O.2     1  UNL1       -0.2748
      3 N          -5.2283  -18.5210   22.4196 N.am    1  UNL1       -0.2794
      4 C          -4.4182  -19.6732   21.9037 C.3     1  UNL1        0.0935
      5 C          -2.9684  -19.3525   22.1162 C.3     1  UNL1        0.0233
      6 C          -2.8825  -18.0019   22.7635 C.3     1  UNL1        0.0233
      7 C          -4.2792  -17.4881   22.9509 C.3     1  UNL1        0.0949
      8 C          -7.5474  -19.5382   21.8393 C.3     1  UNL1        0.1010
      9 N          -7.3425  -18.9349   19.3205 N.3     1  UNL1       -0.3215
     10 C          -8.1709  -19.3975   20.4823 C.3     1  UNL1        0.0644
     11 H          -6.3864  -18.7630   19.6317 H       1  UNL1        0.1188
     12 H          -7.7372  -18.0735   18.9430 H       1  UNL1        0.1188
     13 C          -9.6229  -19.7193   20.2870 C.3     1  UNL1        0.0447
     14 C         -10.6558  -19.0961   21.1787 C.ar    1  UNL1        0.0090
     15 C         -10.7522  -19.5093   22.6174 C.ar    1  UNL1        0.0300
     16 C         -11.7850  -18.8862   23.5090 C.ar    1  UNL1        0.1672
     17 F         -11.8816  -19.2993   24.9478 F       1  UNL1       -0.2018
     18 C         -12.7213  -17.8498   22.9619 C.ar    1  UNL1        0.1696
     19 F         -13.7542  -17.2266   23.8535 F       1  UNL1       -0.2017
     20 C         -12.6248  -17.4366   21.5232 C.ar    1  UNL1        0.0612
     21 C         -11.5921  -18.0598   20.6316 C.ar    1  UNL1        0.1386
     22 F         -11.4955  -17.6466   19.1928 F       1  UNL1       -0.2044
     23 C          -4.6599  -16.1724   23.5624 C.3     1  UNL1        0.1091
     24 N          -5.0635  -16.1047   25.0055 N.am    1  UNL1       -0.3025
     25 C          -6.2018  -15.2228   25.4255 C.2     1  UNL1        0.2312
     26 O          -6.9367  -14.4085   24.4022 O.2     1  UNL1       -0.2748
     27 H          -4.5811  -16.6391   25.6771 H       1  UNL1        0.1495
     28 C          -6.6053  -15.1551   26.8686 C.3     1  UNL1        0.1880
     29 C          -7.7210  -16.0193   27.3767 C.3     1  UNL1        0.4063
     30 F          -8.8368  -16.8835   27.8847 F       1  UNL1       -0.1695
     31 F          -8.7222  -15.0977   26.7456 F       1  UNL1       -0.1695
     32 F          -6.7199  -16.9410   28.0077 F       1  UNL1       -0.1695
@<TRIPOS>BOND
     1    10     9    1
     2    10     8    1
     3     8     1    1
     4     1     2    2
     5     1     3   am
     6     3     4    1
     7     4     5    1
     8     5     6    1
     9     6     7    1
    10     7    23    1
    11    23    24    1
    12    24    25   am
    13    25    26    2
    14    25    28    1
    15    28    29    1
    16    29    30    1
    17    29    31    1
    18    29    32    1
    19    10    13    1
    20    13    14    1
    21    14    15   ar
    22    15    16   ar
    23    16    17    1
    24    16    18   ar
    25    18    19    1
    26    18    20   ar
    27    20    21   ar
    28    21    22    1
    29     7     3    1
    30    21    14   ar
    31     9    11    1
    32     9    12    1
    33    24    27    1
@<TRIPOS>MOLECULE
*****
 32 33 0 0 0
SMALL
GASTEIGER

@<TRIPOS>ATOM
      1 C          -5.9363  -19.1313   22.4806 C.2     1  UNL1        0.2270
      2 O          -4.6434  -19.8916   22.4991 O.2     1  UNL1       -0.2748
      3 N          -5.9917  -17.7329   23.0204 N.am    1  UNL1       -0.2794
      4 C          -7.2062  -16.8538   23.0683 C.3     1  UNL1        0.0935
      5 C          -6.8075  -15.5456   23.6846 C.3     1  UNL1        0.0233
      6 C          -5.3466  -15.6163   24.0175 C.3     1  UNL1        0.0233
      7 C          -4.8425  -16.9681   23.6071 C.3     1  UNL1        0.0949
      8 C          -7.1737  -19.7693   21.9224 C.3     1  UNL1        0.1010
      9 N          -6.8196  -18.6078   19.6255 N.3     1  UNL1       -0.3215
     10 C          -7.7113  -19.3273   20.5936 C.3     1  UNL1        0.0644
     11 H          -5.8894  -18.5056   20.0315 H       1  UNL1        0.1188
     12 H          -7.2072  -17.6854   19.4272 H       1  UNL1        0.1188
     13 C          -9.1406  -19.6048   20.2329 C.3     1  UNL1        0.0447
     14 C         -10.2491  -18.9470   21.0002 C.ar    1  UNL1        0.0090
     15 C         -10.9998  -17.7974   20.3963 C.ar    1  UNL1        0.0300
     16 C         -12.1082  -17.1397   21.1636 C.ar    1  UNL1        0.1672
     17 F         -12.8590  -15.9900   20.5598 F       1  UNL1       -0.2018
     18 C         -12.4659  -17.6316   22.5348 C.ar    1  UNL1        0.1696
     19 F         -13.5744  -16.9739   23.3021 F       1  UNL1       -0.2017
     20 C         -11.7152  -18.7813   23.1386 C.ar    1  UNL1        0.0612
     21 C         -10.6067  -19.4389   22.3713 C.ar    1  UNL1        0.1386
     22 F          -9.8559  -20.5886   22.9752 F       1  UNL1       -0.2044
     23 C          -3.4360  -17.4673   23.7569 C.3     1  UNL1        0.1091
     24 N          -2.6141  -17.7710   22.5394 N.am    1  UNL1       -0.3025
     25 C          -2.1927  -16.6609   21.6228 C.2     1  UNL1        0.2312
     26 O          -2.5934  -15.2470   21.9237 O.2     1  UNL1       -0.2748
     27 H          -2.3511  -18.6990   22.3419 H       1  UNL1        0.1495
     28 C          -1.3709  -16.9647   20.4053 C.3     1  UNL1        0.1880
     29 C          -1.8490  -17.9823   19.4125 C.3     1  UNL1        0.4063
     30 F          -2.3271  -19.0000   18.4197 F       1  UNL1       -0.1695
     31 F          -0.7634  -18.9200   19.8508 F       1  UNL1       -0.1695
     32 F          -2.9347  -17.0447   18.9742 F       1  UNL1       -0.1695
@<TRIPOS>BOND
     1    10     9    1
     2    10     8    1
     3     8     1    1
     4     1     2    2
     5     1     3   am
     6     3     4    1
     7     4     5    1
     8     5     6    1
     9     6     7    1
    10     7    23    1
    11    23    24    1
    12    24    25   am
    13    25    26    2
    14    25    28    1
    15    28    29    1
    16    29    30    1
    17    29    31    1
    18    29    32    1
    19    10    13    1
    20    13    14    1
    21    14    15   ar
    22    15    16   ar
    23    16    17    1
    24    16    18   ar
    25    18    19    1
    26    18    20   ar
    27    20    21   ar
    28    21    22    1
    29     7     3    1
    30    21    14   ar
    31     9    11    1
    32     9    12    1
    33    24    27    1
@<TRIPOS>MOLECULE
*****
 32 33 0 0 0
SMALL
GASTEIGER

@<TRIPOS>ATOM
      1 C          -7.0400  -18.1553   22.3477 C.2     1  UNL1        0.2270
      2 O          -5.6405  -18.1482   21.8078 O.2     1  UNL1       -0.2748
      3 N          -7.4740  -17.0991   23.3202 N.am    1  UNL1       -0.2794
      4 C          -8.8338  -16.9783   23.9420 C.3     1  UNL1        0.0935
      5 C          -8.8247  -15.7828   24.8479 C.3     1  UNL1        0.0233
      6 C          -7.4593  -15.1647   24.7859 C.3     1  UNL1        0.0233
      7 C          -6.6246  -15.9782   23.8418 C.3     1  UNL1        0.0949
      8 C          -8.0053  -19.2187   21.9150 C.3     1  UNL1        0.1010
      9 N          -7.5476  -19.0962   19.3604 N.3     1  UNL1       -0.3215
     10 C          -8.5090  -19.2446   20.5023 C.3     1  UNL1        0.0644
     11 H          -6.6010  -18.9885   19.7248 H       1  UNL1        0.1188
     12 H          -7.7963  -18.2734   18.8113 H       1  UNL1        0.1188
     13 C          -9.9740  -19.4188   20.2314 C.3     1  UNL1        0.0447
     14 C         -10.9852  -18.8658   21.1915 C.ar    1  UNL1        0.0090
     15 C         -11.0628  -19.4017   22.5903 C.ar    1  UNL1        0.0300
     16 C         -12.0740  -18.8487   23.5502 C.ar    1  UNL1        0.1672
     17 F         -12.1517  -19.3846   24.9491 F       1  UNL1       -0.2018
     18 C         -13.0076  -17.7597   23.1114 C.ar    1  UNL1        0.1696
     19 F         -14.0188  -17.2067   24.0715 F       1  UNL1       -0.2017
     20 C         -12.9300  -17.2238   21.7126 C.ar    1  UNL1        0.0612
     21 C         -11.9188  -17.7768   20.7526 C.ar    1  UNL1        0.1386
     22 F         -11.8411  -17.2409   19.3537 F       1  UNL1       -0.2044
     23 C          -5.1920  -15.7168   23.4824 C.3     1  UNL1        0.1091
     24 N          -4.1942  -16.8364   23.5147 N.am    1  UNL1       -0.3025
     25 C          -2.9855  -16.7897   22.6277 C.2     1  UNL1        0.2312
     26 O          -2.7745  -15.6233   21.7083 O.2     1  UNL1       -0.2748
     27 H          -4.3326  -17.6019   24.1180 H       1  UNL1        0.1495
     28 C          -1.9877  -17.9093   22.6599 C.3     1  UNL1        0.1880
     29 C          -2.1432  -19.0792   21.7342 C.3     1  UNL1        0.4063
     30 F          -2.2986  -20.2491   20.8083 F       1  UNL1       -0.1695
     31 F          -1.1010  -18.4983   20.8252 F       1  UNL1       -0.1695
     32 F          -3.1854  -19.6601   22.6431 F       1  UNL1       -0.1695
@<TRIPOS>BOND
     1    10     9    1
     2    10     8    1
     3     8     1    1
     4     1     2    2
     5     1     3   am
     6     3     4    1
     7     4     5    1
     8     5     6    1
     9     6     7    1
    10     7    23    1
    11    23    24    1
    12    24    25   am
    13    25    26    2
    14    25    28    1
    15    28    29    1
    16    29    30    1
    17    29    31    1
    18    29    32    1
    19    10    13    1
    20    13    14    1
    21    14    15   ar
    22    15    16   ar
    23    16    17    1
    24    16    18   ar
    25    18    19    1
    26    18    20   ar
    27    20    21   ar
    28    21    22    1
    29     7     3    1
    30    21    14   ar
    31     9    11    1
    32     9    12    1
    33    24    27    1
@<TRIPOS>MOLECULE
*****
 32 33 0 0 0
SMALL
GASTEIGER

@<TRIPOS>ATOM
      1 C          -7.6449  -18.2820   22.6774 C.2     1  UNL1        0.2270
      2 O          -8.6066  -19.4331   22.6894 O.2     1  UNL1       -0.2748
      3 N          -7.8979  -17.0842   23.5442 N.am    1  UNL1       -0.2794
      4 C          -7.0300  -15.8644   23.6376 C.3     1  UNL1        0.0935
      5 C          -7.6589  -14.9222   24.6209 C.3     1  UNL1        0.0233
      6 C          -8.9154  -15.5599   25.1352 C.3     1  UNL1        0.0233
      7 C          -9.0631  -16.8961   24.4698 C.3     1  UNL1        0.0949
      8 C          -6.4302  -18.3287   21.7986 C.3     1  UNL1        0.1010
      9 N          -7.6086  -19.2937   19.6938 N.3     1  UNL1       -0.3215
     10 C          -6.4104  -19.2214   20.5932 C.3     1  UNL1        0.0644
     11 H          -8.3384  -18.6761   20.0492 H       1  UNL1        0.1188
     12 H          -7.9570  -20.2520   19.6680 H       1  UNL1        0.1188
     13 C          -5.1924  -20.0416   20.2874 C.3     1  UNL1        0.0447
     14 C          -3.8382  -19.3966   20.2719 C.ar    1  UNL1        0.0090
     15 C          -3.2752  -18.8655   18.9870 C.ar    1  UNL1        0.0300
     16 C          -1.9211  -18.2204   18.9715 C.ar    1  UNL1        0.1672
     17 F          -1.3580  -17.6893   17.6866 F       1  UNL1       -0.2018
     18 C          -1.1300  -18.1065   20.2409 C.ar    1  UNL1        0.1696
     19 F           0.2242  -17.4615   20.2253 F       1  UNL1       -0.2017
     20 C          -1.6930  -18.6376   21.5257 C.ar    1  UNL1        0.0612
     21 C          -3.0472  -19.2826   21.5412 C.ar    1  UNL1        0.1386
     22 F          -3.6103  -19.8138   22.8261 F       1  UNL1       -0.2044
     23 C         -10.1800  -17.8726   24.6911 C.3     1  UNL1        0.1091
     24 N         -10.9200  -18.4443   23.5182 N.am    1  UNL1       -0.3025
     25 C         -11.5385  -17.5293   22.5032 C.2     1  UNL1        0.2312
     26 O         -11.4170  -16.0426   22.6611 O.2     1  UNL1       -0.2748
     27 H         -10.9997  -19.4201   23.4146 H       1  UNL1        0.1495
     28 C         -12.2785  -18.1011   21.3304 C.3     1  UNL1        0.1880
     29 C         -11.5184  -18.6779   20.1729 C.3     1  UNL1        0.4063
     30 F         -10.7584  -19.2546   19.0154 F       1  UNL1       -0.1695
     31 F         -11.5572  -17.3461   19.4839 F       1  UNL1       -0.1695
     32 F         -11.4797  -20.0097   20.8619 F       1  UNL1       -0.1695
@<TRIPOS>BOND
     1    10     9    1
     2    10     8    1
     3     8     1    1
     4     1     2    2
     5     1     3   am
     6     3     4    1
     7     4     5    1
     8     5     6    1
     9     6     7    1
    10     7    23    1
    11    23    24    1
    12    24    25   am
    13    25    26    2
    14    25    28    1
    15    28    29    1
    16    29    30    1
    17    29    31    1
    18    29    32    1
    19    10    13    1
    20    13    14    1
    21    14    15   ar
    22    15    16   ar
    23    16    17    1
    24    16    18   ar
    25    18    19    1
    26    18    20   ar
    27    20    21   ar
    28    21    22    1
    29     7     3    1
    30    21    14   ar
    31     9    11    1
    32     9    12    1
    33    24    27    1
@<TRIPOS>MOLECULE
*****
 32 33 0 0 0
SMALL
GASTEIGER

@<TRIPOS>ATOM
      1 C          -8.1547  -19.1905   20.8687 C.2     1  UNL1        0.2270
      2 O          -8.8663  -18.8940   19.5820 O.2     1  UNL1       -0.2748
      3 N          -8.9230  -19.7068   22.0490 N.am    1  UNL1       -0.2794
      4 C          -8.3509  -20.0460   23.3935 C.3     1  UNL1        0.0935
      5 C          -9.4727  -20.5234   24.2675 C.3     1  UNL1        0.0233
      6 C         -10.7380  -20.4791   23.4631 C.3     1  UNL1        0.0233
      7 C         -10.3983  -19.9744   22.0920 C.3     1  UNL1        0.0949
      8 C          -6.6747  -18.9707   20.9752 C.3     1  UNL1        0.1010
      9 N          -6.1005  -21.3657   20.1480 N.3     1  UNL1       -0.3215
     10 C          -5.7378  -20.1414   20.9351 C.3     1  UNL1        0.0644
     11 H          -7.0106  -21.2297   19.7079 H       1  UNL1        0.1188
     12 H          -6.1417  -22.1714   20.7721 H       1  UNL1        0.1188
     13 C          -4.4381  -20.0878   21.6820 C.3     1  UNL1        0.0447
     14 C          -3.4197  -19.0406   21.3411 C.ar    1  UNL1        0.0090
     15 C          -2.7940  -19.0185   19.9780 C.ar    1  UNL1        0.0300
     16 C          -1.7757  -17.9712   19.6372 C.ar    1  UNL1        0.1672
     17 F          -1.1499  -17.9491   18.2741 F       1  UNL1       -0.2018
     18 C          -1.3830  -16.9461   20.6594 C.ar    1  UNL1        0.1696
     19 F          -0.3646  -15.8988   20.3185 F       1  UNL1       -0.2017
     20 C          -2.0087  -16.9682   22.0225 C.ar    1  UNL1        0.0612
     21 C          -3.0271  -18.0154   22.3633 C.ar    1  UNL1        0.1386
     22 F          -3.6528  -18.0375   23.7264 F       1  UNL1       -0.2044
     23 C         -11.3643  -19.7728   20.9623 C.3     1  UNL1        0.1091
     24 N         -11.5686  -18.4033   20.3855 N.am    1  UNL1       -0.3025
     25 C         -12.2406  -17.3386   21.2008 C.2     1  UNL1        0.2312
     26 O         -12.7083  -17.6434   22.5931 O.2     1  UNL1       -0.2748
     27 H         -11.2616  -18.2033   19.4717 H       1  UNL1        0.1495
     28 C         -12.4449  -15.9691   20.6238 C.3     1  UNL1        0.1880
     29 C         -11.4868  -15.4361   19.6002 C.3     1  UNL1        0.4063
     30 F         -10.5287  -14.9030   18.5766 F       1  UNL1       -0.1695
     31 F         -10.4139  -15.3572   20.6454 F       1  UNL1       -0.1695
     32 F         -12.5597  -15.5149   18.5549 F       1  UNL1       -0.1695
@<TRIPOS>BOND
     1    10     9    1
     2    10     8    1
     3     8     1    1
     4     1     2    2
     5     1     3   am
     6     3     4    1
     7     4     5    1
     8     5     6    1
     9     6     7    1
    10     7    23    1
    11    23    24    1
    12    24    25   am
    13    25    26    2
    14    25    28    1
    15    28    29    1
    16    29    30    1
    17    29    31    1
    18    29    32    1
    19    10    13    1
    20    13    14    1
    21    14    15   ar
    22    15    16   ar
    23    16    17    1
    24    16    18   ar
    25    18    19    1
    26    18    20   ar
    27    20    21   ar
    28    21    22    1
    29     7     3    1
    30    21    14   ar
    31     9    11    1
    32     9    12    1
    33    24    27    1
@<TRIPOS>MOLECULE
*****
 32 33 0 0 0
SMALL
GASTEIGER

@<TRIPOS>ATOM
      1 C          -8.6403  -19.7888   22.6691 C.2     1  UNL1        0.2270
      2 O          -9.0333  -19.6189   24.1067 O.2     1  UNL1       -0.2748
      3 N          -9.5822  -19.3700   21.5795 N.am    1  UNL1       -0.2794
      4 C          -9.3288  -19.4782   20.1051 C.3     1  UNL1        0.0935
      5 C         -10.5329  -18.9446   19.3873 C.3     1  UNL1        0.0233
      6 C         -11.5306  -18.5065   20.4183 C.3     1  UNL1        0.0233
      7 C         -10.9430  -18.7695   21.7731 C.3     1  UNL1        0.0949
      8 C          -7.3053  -20.3776   22.3211 C.3     1  UNL1        0.1010
      9 N          -6.2764  -17.9937   22.2272 N.3     1  UNL1       -0.3215
     10 C          -6.1327  -19.4779   22.0644 C.3     1  UNL1        0.0644
     11 H          -7.2301  -17.7739   22.5144 H       1  UNL1        0.1188
     12 H          -6.0739  -17.5332   21.3399 H       1  UNL1        0.1188
     13 C          -4.8166  -20.0625   21.6448 C.3     1  UNL1        0.0447
     14 C          -3.7184  -19.1646   21.1572 C.ar    1  UNL1        0.0090
     15 C          -3.2262  -18.0432   22.0234 C.ar    1  UNL1        0.0300
     16 C          -2.1281  -17.1454   21.5358 C.ar    1  UNL1        0.1672
     17 F          -1.6359  -16.0240   22.4021 F       1  UNL1       -0.2018
     18 C          -1.5221  -17.3688   20.1820 C.ar    1  UNL1        0.1696
     19 F          -0.4239  -16.4708   19.6944 F       1  UNL1       -0.2017
     20 C          -2.0142  -18.4901   19.3158 C.ar    1  UNL1        0.0612
     21 C          -3.1124  -19.3880   19.8034 C.ar    1  UNL1        0.1386
     22 F          -3.6046  -20.5094   18.9371 F       1  UNL1       -0.2044
     23 C         -11.6008  -18.4823   23.0902 C.3     1  UNL1        0.1091
     24 N         -10.9090  -17.6165   24.1012 N.am    1  UNL1       -0.3025
     25 C         -10.1197  -16.4229   23.6518 C.2     1  UNL1        0.2312
     26 O         -10.0221  -16.0949   22.1913 O.2     1  UNL1       -0.2748
     27 H         -10.9731  -17.8318   25.0597 H       1  UNL1        0.1495
     28 C          -9.4279  -15.5572   24.6628 C.3     1  UNL1        0.1880
     29 C          -7.9717  -15.7645   24.9565 C.3     1  UNL1        0.4063
     30 F          -6.5154  -15.9717   25.2502 F       1  UNL1       -0.1695
     31 F          -7.6140  -15.0506   23.6867 F       1  UNL1       -0.1695
     32 F          -8.3293  -16.4783   26.2263 F       1  UNL1       -0.1695
@<TRIPOS>BOND
     1    10     9    1
     2    10     8    1
     3     8     1    1
     4     1     2    2
     5     1     3   am
     6     3     4    1
     7     4     5    1
     8     5     6    1
     9     6     7    1
    10     7    23    1
    11    23    24    1
    12    24    25   am
    13    25    26    2
    14    25    28    1
    15    28    29    1
    16    29    30    1
    17    29    31    1
    18    29    32    1
    19    10    13    1
    20    13    14    1
    21    14    15   ar
    22    15    16   ar
    23    16    17    1
    24    16    18   ar
    25    18    19    1
    26    18    20   ar
    27    20    21   ar
    28    21    22    1
    29     7     3    1
    30    21    14   ar
    31     9    11    1
    32     9    12    1
    33    24    27    1
