@<TRIPOS>MOLECULE
*****
 21 23 0 0 0
SMALL
GASTEIGER

@<TRIPOS>ATOM
      1 C          -4.2946  -17.4228   22.8907 C.3     1  UNL1        0.0798
      2 C          -5.0573  -16.4422   23.7313 C.3     1  UNL1        0.0421
      3 C          -6.5552  -16.5024   23.7809 C.3     1  UNL1        0.0973
      4 N          -7.2905  -17.5433   22.9897 N.pl3   1  UNL1       -0.2870
      5 C          -6.5279  -18.5240   22.1490 C.ar    1  UNL1        0.0488
      6 C          -7.2632  -19.5648   21.3579 C.ar    1  UNL1        0.0146
      7 C          -6.5005  -20.5454   20.5173 C.ar    1  UNL1        0.0013
      8 C          -5.0025  -20.4851   20.4677 C.ar    1  UNL1       -0.0002
      9 C          -4.2672  -19.4443   21.2588 C.ar    1  UNL1       -0.0017
     10 C          -5.0299  -18.4637   22.0995 C.ar    1  UNL1        0.0057
     11 C          -8.7885  -17.6036   23.0393 C.ar    1  UNL1        0.0525
     12 C          -9.4721  -18.3967   24.1133 C.ar    1  UNL1        0.0157
     13 C         -10.9701  -18.4570   24.1628 C.ar    1  UNL1        0.0135
     14 C         -11.7845  -17.7241   23.1383 C.ar    1  UNL1        0.0683
     15 CL        -13.2824  -17.7843   23.1879 Cl      1  UNL1       -0.0814
     16 C         -11.1009  -16.9309   22.0642 C.ar    1  UNL1        0.0694
     17 CL        -11.9152  -16.1980   21.0398 Cl      1  UNL1       -0.0813
     18 C          -9.6029  -16.8706   22.0147 C.ar    1  UNL1        0.0271
     19 C          -2.1148  -16.4211   21.8931 C.3     1  UNL1        0.0861
     20 N          -2.7966  -17.3625   22.8411 N.3     1  UNL1       -0.2939
     21 H          -2.4807  -17.1159   23.7791 H       1  UNL1        0.1235
@<TRIPOS>BOND
     1    19    20    1
     2    20     1    1
     3     1     2    1
     4     2     3    1
     5     3     4    1
     6     4    11    1
     7    11    12   ar
     8    12    13   ar
     9    13    14   ar
    10    14    15    1
    11    14    16   ar
    12    16    17    1
    13    16    18   ar
    14     4     5    1
    15     5     6   ar
    16     6     7   ar
    17     7     8   ar
    18     8     9   ar
    19     9    10   ar
    20    10     1    1
    21    18    11   ar
    22    10     5   ar
    23    20    21    1
@<TRIPOS>MOLECULE
*****
 21 23 0 0 0
SMALL
GASTEIGER

@<TRIPOS>ATOM
      1 C          -4.9800  -18.8280   22.2635 C.3     1  UNL1        0.0798
      2 C          -5.9236  -19.8939   21.7909 C.3     1  UNL1        0.0421
      3 C          -7.3974  -19.7510   22.0305 C.3     1  UNL1        0.0973
      4 N          -7.9277  -18.5421   22.7427 N.pl3   1  UNL1       -0.2870
      5 C          -6.9841  -17.4761   23.2154 C.ar    1  UNL1        0.0488
      6 C          -7.5144  -16.2672   23.9277 C.ar    1  UNL1        0.0146
      7 C          -6.5708  -15.2013   24.4004 C.ar    1  UNL1        0.0013
      8 C          -5.0970  -15.3442   24.1608 C.ar    1  UNL1       -0.0002
      9 C          -4.5667  -16.5531   23.4485 C.ar    1  UNL1       -0.0017
     10 C          -5.5103  -17.6191   22.9759 C.ar    1  UNL1        0.0057
     11 C          -9.4015  -18.3991   22.9823 C.ar    1  UNL1        0.0525
     12 C         -10.0102  -18.9262   24.2478 C.ar    1  UNL1        0.0157
     13 C         -11.4840  -18.7833   24.4874 C.ar    1  UNL1        0.0135
     14 C         -12.3491  -18.1132   23.4615 C.ar    1  UNL1        0.0683
     15 CL        -13.8230  -17.9703   23.7011 Cl      1  UNL1       -0.0814
     16 C         -11.7404  -17.5861   22.1959 C.ar    1  UNL1        0.0694
     17 CL        -12.6055  -16.9161   21.1699 Cl      1  UNL1       -0.0813
     18 C         -10.2666  -17.7291   21.9563 C.ar    1  UNL1        0.0271
     19 C          -3.0049  -19.9272   20.9827 C.3     1  UNL1        0.0861
     20 N          -3.5062  -18.9710   22.0240 N.3     1  UNL1       -0.2939
     21 H          -3.1587  -18.0471   21.7669 H       1  UNL1        0.1235
@<TRIPOS>BOND
     1    19    20    1
     2    20     1    1
     3     1     2    1
     4     2     3    1
     5     3     4    1
     6     4    11    1
     7    11    12   ar
     8    12    13   ar
     9    13    14   ar
    10    14    15    1
    11    14    16   ar
    12    16    17    1
    13    16    18   ar
    14     4     5    1
    15     5     6   ar
    16     6     7   ar
    17     7     8   ar
    18     8     9   ar
    19     9    10   ar
    20    10     1    1
    21    18    11   ar
    22    10     5   ar
    23    20    21    1
@<TRIPOS>MOLECULE
*****
 21 23 0 0 0
SMALL
GASTEIGER

@<TRIPOS>ATOM
      1 C          -9.9326  -18.6306   23.6746 C.3     1  UNL1        0.0798
      2 C          -9.5205  -19.8222   22.8621 C.3     1  UNL1        0.0421
      3 C          -8.1621  -19.8636   22.2272 C.3     1  UNL1        0.0973
      4 N          -7.2159  -18.7134   22.4047 N.pl3   1  UNL1       -0.2870
      5 C          -7.6280  -17.5216   23.2171 C.ar    1  UNL1        0.0488
      6 C          -6.6818  -16.3714   23.3946 C.ar    1  UNL1        0.0146
      7 C          -7.0940  -15.1797   24.2070 C.ar    1  UNL1        0.0013
      8 C          -8.4523  -15.1383   24.8420 C.ar    1  UNL1       -0.0002
      9 C          -9.3986  -16.2886   24.6645 C.ar    1  UNL1       -0.0017
     10 C          -8.9864  -17.4802   23.8521 C.ar    1  UNL1        0.0057
     11 C          -5.8576  -18.7547   21.7697 C.ar    1  UNL1        0.0525
     12 C          -5.7195  -19.0956   20.3156 C.ar    1  UNL1        0.0157
     13 C          -4.3611  -19.1370   19.6806 C.ar    1  UNL1        0.0135
     14 C          -3.1408  -18.8375   20.4999 C.ar    1  UNL1        0.0683
     15 CL         -1.7825  -18.8789   19.8649 Cl      1  UNL1       -0.0814
     16 C          -3.2789  -18.4966   21.9541 C.ar    1  UNL1        0.0694
     17 CL         -2.0586  -18.1971   22.7734 Cl      1  UNL1       -0.0813
     18 C          -4.6372  -18.4552   22.5891 C.ar    1  UNL1        0.0271
     19 C         -12.4809  -18.1526   23.5073 C.3     1  UNL1        0.0861
     20 N         -11.2910  -18.5892   24.3095 N.3     1  UNL1       -0.2939
     21 H         -11.4898  -19.5330   24.6413 H       1  UNL1        0.1235
@<TRIPOS>BOND
     1    19    20    1
     2    20     1    1
     3     1     2    1
     4     2     3    1
     5     3     4    1
     6     4    11    1
     7    11    12   ar
     8    12    13   ar
     9    13    14   ar
    10    14    15    1
    11    14    16   ar
    12    16    17    1
    13    16    18   ar
    14     4     5    1
    15     5     6   ar
    16     6     7   ar
    17     7     8   ar
    18     8     9   ar
    19     9    10   ar
    20    10     1    1
    21    18    11   ar
    22    10     5   ar
    23    20    21    1
@<TRIPOS>MOLECULE
*****
 21 23 0 0 0
SMALL
GASTEIGER

@<TRIPOS>ATOM
      1 C          -9.4706  -19.0286   20.2965 C.3     1  UNL1        0.0798
      2 C          -8.1197  -19.3218   20.8788 C.3     1  UNL1        0.0421
      3 C          -7.6791  -18.6324   22.1360 C.3     1  UNL1        0.0973
      4 N          -8.5894  -17.6496   22.8109 N.pl3   1  UNL1       -0.2870
      5 C          -9.9404  -17.3563   22.2286 C.ar    1  UNL1        0.0488
      6 C         -10.8507  -16.3736   22.9036 C.ar    1  UNL1        0.0146
      7 C         -12.2015  -16.0803   22.3213 C.ar    1  UNL1        0.0013
      8 C         -12.6421  -16.7698   21.0641 C.ar    1  UNL1       -0.0002
      9 C         -11.7319  -17.7525   20.3892 C.ar    1  UNL1       -0.0017
     10 C         -10.3810  -18.0458   20.9715 C.ar    1  UNL1        0.0057
     11 C          -8.1488  -16.9602   24.0681 C.ar    1  UNL1        0.0525
     12 C          -8.9993  -17.0338   25.3014 C.ar    1  UNL1        0.0157
     13 C          -8.5587  -16.3444   26.5586 C.ar    1  UNL1        0.0135
     14 C          -7.2676  -15.5813   26.5824 C.ar    1  UNL1        0.0683
     15 CL         -6.8270  -14.8918   27.8396 Cl      1  UNL1       -0.0814
     16 C          -6.4170  -15.5076   25.3491 C.ar    1  UNL1        0.0694
     17 CL         -5.1259  -14.7445   25.3729 Cl      1  UNL1       -0.0813
     18 C          -6.8576  -16.1970   24.0919 C.ar    1  UNL1        0.0271
     19 C          -8.9902  -20.6801   18.3493 C.3     1  UNL1        0.0861
     20 N          -9.9112  -19.7180   19.0393 N.3     1  UNL1       -0.2939
     21 H         -10.7594  -20.2358   19.2692 H       1  UNL1        0.1235
@<TRIPOS>BOND
     1    19    20    1
     2    20     1    1
     3     1     2    1
     4     2     3    1
     5     3     4    1
     6     4    11    1
     7    11    12   ar
     8    12    13   ar
     9    13    14   ar
    10    14    15    1
    11    14    16   ar
    12    16    17    1
    13    16    18   ar
    14     4     5    1
    15     5     6   ar
    16     6     7   ar
    17     7     8   ar
    18     8     9   ar
    19     9    10   ar
    20    10     1    1
    21    18    11   ar
    22    10     5   ar
    23    20    21    1
@<TRIPOS>MOLECULE
*****
 21 23 0 0 0
SMALL
GASTEIGER

@<TRIPOS>ATOM
      1 C          -2.3799  -18.0747   20.9153 C.3     1  UNL1        0.0798
      2 C          -2.0822  -16.8583   21.7408 C.3     1  UNL1        0.0421
      3 C          -3.0848  -16.3683   22.7432 C.3     1  UNL1        0.0973
      4 N          -4.3851  -17.0949   22.9200 N.pl3   1  UNL1       -0.2870
      5 C          -4.6828  -18.3114   22.0945 C.ar    1  UNL1        0.0488
      6 C          -5.9831  -19.0380   22.2714 C.ar    1  UNL1        0.0146
      7 C          -6.2808  -20.2544   21.4459 C.ar    1  UNL1        0.0013
      8 C          -5.2782  -20.7444   20.4435 C.ar    1  UNL1       -0.0002
      9 C          -3.9779  -20.0178   20.2666 C.ar    1  UNL1       -0.0017
     10 C          -3.6802  -18.8014   21.0921 C.ar    1  UNL1        0.0057
     11 C          -5.3877  -16.6049   23.9224 C.ar    1  UNL1        0.0525
     12 C          -4.9360  -16.1765   25.2871 C.ar    1  UNL1        0.0157
     13 C          -5.9386  -15.6866   26.2895 C.ar    1  UNL1        0.0135
     14 C          -7.3929  -15.6251   25.9272 C.ar    1  UNL1        0.0683
     15 CL         -8.3955  -15.1352   26.9296 Cl      1  UNL1       -0.0814
     16 C          -7.8446  -16.0535   24.5624 C.ar    1  UNL1        0.0694
     17 CL         -9.2989  -15.9920   24.2001 Cl      1  UNL1       -0.0813
     18 C          -6.8420  -16.5434   23.5600 C.ar    1  UNL1        0.0271
     19 C          -0.0660  -17.8537   19.7546 C.3     1  UNL1        0.0861
     20 N          -1.3773  -18.5647   19.9129 N.3     1  UNL1       -0.2939
     21 H          -1.1607  -19.5301   20.1607 H       1  UNL1        0.1235
@<TRIPOS>BOND
     1    19    20    1
     2    20     1    1
     3     1     2    1
     4     2     3    1
     5     3     4    1
     6     4    11    1
     7    11    12   ar
     8    12    13   ar
     9    13    14   ar
    10    14    15    1
    11    14    16   ar
    12    16    17    1
    13    16    18   ar
    14     4     5    1
    15     5     6   ar
    16     6     7   ar
    17     7     8   ar
    18     8     9   ar
    19     9    10   ar
    20    10     1    1
    21    18    11   ar
    22    10     5   ar
    23    20    21    1
@<TRIPOS>MOLECULE
*****
 21 23 0 0 0
SMALL
GASTEIGER

@<TRIPOS>ATOM
      1 C         -12.1287   -3.1985   19.0522 C.3     1  UNL1        0.0798
      2 C         -13.6256   -3.1119   19.0104 C.3     1  UNL1        0.0421
      3 C         -14.4465   -4.3630   18.9056 C.3     1  UNL1        0.0973
      4 N         -13.7706   -5.7005   18.8426 N.pl3   1  UNL1       -0.2870
      5 C         -12.2736   -5.7871   18.8845 C.ar    1  UNL1        0.0488
      6 C         -11.5977   -7.1247   18.8216 C.ar    1  UNL1        0.0146
      7 C         -10.1008   -7.2112   18.8634 C.ar    1  UNL1        0.0013
      8 C          -9.2798   -5.9602   18.9682 C.ar    1  UNL1       -0.0002
      9 C          -9.9558   -4.6226   19.0311 C.ar    1  UNL1       -0.0017
     10 C         -11.4527   -4.5361   18.9893 C.ar    1  UNL1        0.0057
     11 C         -14.5915   -6.9515   18.7379 C.ar    1  UNL1        0.0525
     12 C         -14.1906   -8.0336   17.7796 C.ar    1  UNL1        0.0157
     13 C         -15.0116   -9.2847   17.6748 C.ar    1  UNL1        0.0135
     14 C         -16.2334   -9.4536   18.5283 C.ar    1  UNL1        0.0683
     15 CL        -17.0544  -10.7046   18.4235 Cl      1  UNL1       -0.0814
     16 C         -16.6344   -8.3715   19.4866 C.ar    1  UNL1        0.0694
     17 CL        -17.8563   -8.5404   20.3401 Cl      1  UNL1       -0.0813
     18 C         -15.8135   -7.1204   19.5914 C.ar    1  UNL1        0.0271
     19 C         -11.1955   -1.0233   17.9809 C.3     1  UNL1        0.0861
     20 N         -11.3077   -1.9474   19.1570 N.3     1  UNL1       -0.2939
     21 H         -11.6998   -1.4014   19.9242 H       1  UNL1        0.1235
@<TRIPOS>BOND
     1    19    20    1
     2    20     1    1
     3     1     2    1
     4     2     3    1
     5     3     4    1
     6     4    11    1
     7    11    12   ar
     8    12    13   ar
     9    13    14   ar
    10    14    15    1
    11    14    16   ar
    12    16    17    1
    13    16    18   ar
    14     4     5    1
    15     5     6   ar
    16     6     7   ar
    17     7     8   ar
    18     8     9   ar
    19     9    10   ar
    20    10     1    1
    21    18    11   ar
    22    10     5   ar
    23    20    21    1
@<TRIPOS>MOLECULE
*****
 21 23 0 0 0
SMALL
GASTEIGER

@<TRIPOS>ATOM
      1 C         -11.7173   -5.4904   19.1126 C.3     1  UNL1        0.0798
      2 C         -11.6734   -6.8956   18.5898 C.3     1  UNL1        0.0421
      3 C         -12.9429   -7.6809   18.4422 C.3     1  UNL1        0.0973
      4 N         -14.2562   -7.0610   18.8175 N.pl3   1  UNL1       -0.2870
      5 C         -14.3001   -5.6557   19.3403 C.ar    1  UNL1        0.0488
      6 C         -15.6135   -5.0358   19.7156 C.ar    1  UNL1        0.0146
      7 C         -15.6573   -3.6306   20.2384 C.ar    1  UNL1        0.0013
      8 C         -14.3879   -2.8453   20.3860 C.ar    1  UNL1       -0.0002
      9 C         -13.0746   -3.4652   20.0107 C.ar    1  UNL1       -0.0017
     10 C         -13.0307   -4.8704   19.4879 C.ar    1  UNL1        0.0057
     11 C         -15.5256   -7.8463   18.6699 C.ar    1  UNL1        0.0525
     12 C         -15.9835   -8.7471   19.7784 C.ar    1  UNL1        0.0157
     13 C         -17.2530   -9.5324   19.6309 C.ar    1  UNL1        0.0135
     14 C         -18.0645   -9.4170   18.3747 C.ar    1  UNL1        0.0683
     15 CL        -19.3340  -10.2023   18.2271 Cl      1  UNL1       -0.0814
     16 C         -17.6067   -8.5162   17.2660 C.ar    1  UNL1        0.0694
     17 CL        -18.4182   -8.4008   16.0099 Cl      1  UNL1       -0.0813
     18 C         -16.3372   -7.7309   17.4136 C.ar    1  UNL1        0.0271
     19 C          -9.9313   -3.8915   18.1108 C.3     1  UNL1        0.0861
     20 N         -10.4479   -4.7051   19.2602 N.3     1  UNL1       -0.2939
     21 H         -10.5894   -4.0599   20.0375 H       1  UNL1        0.1235
@<TRIPOS>BOND
     1    19    20    1
     2    20     1    1
     3     1     2    1
     4     2     3    1
     5     3     4    1
     6     4    11    1
     7    11    12   ar
     8    12    13   ar
     9    13    14   ar
    10    14    15    1
    11    14    16   ar
    12    16    17    1
    13    16    18   ar
    14     4     5    1
    15     5     6   ar
    16     6     7   ar
    17     7     8   ar
    18     8     9   ar
    19     9    10   ar
    20    10     1    1
    21    18    11   ar
    22    10     5   ar
    23    20    21    1
@<TRIPOS>MOLECULE
*****
 21 23 0 0 0
SMALL
GASTEIGER

@<TRIPOS>ATOM
      1 C          -3.0847  -18.2912   22.1837 C.3     1  UNL1        0.0798
      2 C          -3.6894  -17.3276   23.1614 C.3     1  UNL1        0.0421
      3 C          -5.1666  -17.3500   23.4206 C.3     1  UNL1        0.0973
      4 N          -6.0393  -18.3360   22.7020 N.pl3   1  UNL1       -0.2870
      5 C          -5.4347  -19.2997   21.7243 C.ar    1  UNL1        0.0488
      6 C          -6.3073  -20.2856   21.0058 C.ar    1  UNL1        0.0146
      7 C          -5.7026  -21.2492   20.0281 C.ar    1  UNL1        0.0013
      8 C          -4.2254  -21.2268   19.7690 C.ar    1  UNL1       -0.0002
      9 C          -3.3527  -20.2409   20.4875 C.ar    1  UNL1       -0.0017
     10 C          -3.9574  -19.2773   21.4652 C.ar    1  UNL1        0.0057
     11 C          -7.5166  -18.3584   22.9612 C.ar    1  UNL1        0.0525
     12 C          -8.2340  -19.6684   23.0992 C.ar    1  UNL1        0.0157
     13 C          -9.7113  -19.6908   23.3584 C.ar    1  UNL1        0.0135
     14 C         -10.4711  -18.4032   23.4795 C.ar    1  UNL1        0.0683
     15 CL        -11.9484  -18.4256   23.7387 Cl      1  UNL1       -0.0814
     16 C          -9.7536  -17.0931   23.3415 C.ar    1  UNL1        0.0694
     17 CL        -10.5135  -15.8055   23.4626 Cl      1  UNL1       -0.0813
     18 C          -8.2764  -17.0707   23.0823 C.ar    1  UNL1        0.0271
     19 C          -1.0806  -17.7132   20.6348 C.3     1  UNL1        0.0861
     20 N          -1.6075  -18.2688   21.9246 N.3     1  UNL1       -0.2939
     21 H          -1.1851  -17.7221   22.6750 H       1  UNL1        0.1235
@<TRIPOS>BOND
     1    19    20    1
     2    20     1    1
     3     1     2    1
     4     2     3    1
     5     3     4    1
     6     4    11    1
     7    11    12   ar
     8    12    13   ar
     9    13    14   ar
    10    14    15    1
    11    14    16   ar
    12    16    17    1
    13    16    18   ar
    14     4     5    1
    15     5     6   ar
    16     6     7   ar
    17     7     8   ar
    18     8     9   ar
    19     9    10   ar
    20    10     1    1
    21    18    11   ar
    22    10     5   ar
    23    20    21    1
@<TRIPOS>MOLECULE
*****
 21 23 0 0 0
SMALL
GASTEIGER

@<TRIPOS>ATOM
      1 C           6.9178   -1.7207   18.7340 C.3     1  UNL1        0.0798
      2 C           6.8506   -0.2276   18.8611 C.3     1  UNL1        0.0421
      3 C           5.5392    0.4427   19.1453 C.3     1  UNL1        0.0973
      4 N           4.2949   -0.3800   19.3024 N.pl3   1  UNL1       -0.2870
      5 C           4.3620   -1.8732   19.1753 C.ar    1  UNL1        0.0488
      6 C           3.1177   -2.6959   19.3324 C.ar    1  UNL1        0.0146
      7 C           3.1848   -4.1890   19.2054 C.ar    1  UNL1        0.0013
      8 C           4.4963   -4.8593   18.9212 C.ar    1  UNL1       -0.0002
      9 C           5.7406   -4.0366   18.7641 C.ar    1  UNL1       -0.0017
     10 C           5.6734   -2.5435   18.8912 C.ar    1  UNL1        0.0057
     11 C           2.9834    0.2903   19.5865 C.ar    1  UNL1        0.0525
     12 C           2.1560    0.8285   18.4571 C.ar    1  UNL1        0.0157
     13 C           0.8445    1.4988   18.7413 C.ar    1  UNL1        0.0135
     14 C           0.3605    1.6310   20.1549 C.ar    1  UNL1        0.0683
     15 CL         -0.9509    2.3013   20.4390 Cl      1  UNL1       -0.0814
     16 C           1.1880    1.0928   21.2844 C.ar    1  UNL1        0.0694
     17 CL          0.7040    1.2249   22.6980 Cl      1  UNL1       -0.0813
     18 C           2.4994    0.4224   21.0002 C.ar    1  UNL1        0.0271
     19 C           9.1707   -2.7042   19.5748 C.3     1  UNL1        0.0861
     20 N           8.2292   -2.3910   18.4499 N.3     1  UNL1       -0.2939
     21 H           8.0141   -3.2761   17.9908 H       1  UNL1        0.1235
@<TRIPOS>BOND
     1    19    20    1
     2    20     1    1
     3     1     2    1
     4     2     3    1
     5     3     4    1
     6     4    11    1
     7    11    12   ar
     8    12    13   ar
     9    13    14   ar
    10    14    15    1
    11    14    16   ar
    12    16    17    1
    13    16    18   ar
    14     4     5    1
    15     5     6   ar
    16     6     7   ar
    17     7     8   ar
    18     8     9   ar
    19     9    10   ar
    20    10     1    1
    21    18    11   ar
    22    10     5   ar
    23    20    21    1
