@<TRIPOS>MOLECULE
*****
 23 25 0 0 0
SMALL
GASTEIGER

@<TRIPOS>ATOM
      1 N          -7.9263  -19.2035   20.0384 N.ar    1  UNL1       -0.3165
      2 C          -9.0395  -19.7552   19.1979 C.ar    1  UNL1        0.0779
      3 C         -10.3371  -19.4324   19.8776 C.ar    1  UNL1        0.0392
      4 C         -10.0259  -18.6812   21.1381 C.ar    1  UNL1        0.0985
      5 N         -10.9068  -18.1077   22.2082 N.ar    1  UNL1       -0.2423
      6 C         -10.2977  -17.3928   23.3777 C.ar    1  UNL1        0.0989
      7 C          -8.8077  -17.2513   23.4771 C.ar    1  UNL1        0.0207
      8 C          -7.9268  -17.8247   22.4070 C.ar    1  UNL1        0.0203
      9 C          -8.5359  -18.5397   21.2375 C.ar    1  UNL1        0.0782
     10 C          -8.1986  -16.5363   24.6466 C.ar    1  UNL1        0.0039
     11 C          -8.9679  -16.4024   25.9273 C.ar    1  UNL1        0.0025
     12 C          -8.3587  -15.6874   27.0969 C.ar    1  UNL1        0.0320
     13 C          -6.9803  -15.1063   26.9857 C.ar    1  UNL1        0.1674
     14 F          -6.3712  -14.3914   28.1552 F       1  UNL1       -0.2018
     15 C          -6.2110  -15.2403   25.7049 C.ar    1  UNL1        0.1674
     16 F          -4.8326  -14.6593   25.5937 F       1  UNL1       -0.2018
     17 C          -6.8202  -15.9553   24.5354 C.ar    1  UNL1        0.0320
     18 C          -6.4607  -19.2988   19.7334 C.3     1  UNL1        0.1920
     19 C          -3.0859  -19.7855   21.7640 C.3     1  UNL1        0.1150
     20 N          -4.0480  -19.3585   20.6954 N.am    1  UNL1       -0.2744
     21 C          -3.5598  -18.5642   19.5204 C.3     1  UNL1        0.1150
     22 C          -5.4985  -19.7258   20.8020 C.2     1  UNL1        0.2488
     23 O          -5.9866  -20.5201   21.9770 O.2     1  UNL1       -0.2728
@<TRIPOS>BOND
     1    19    20    1
     2    20    21    1
     3    20    22   am
     4    22    23    2
     5    22    18    1
     6    18     1    1
     7     1     2   ar
     8     2     3   ar
     9     3     4   ar
    10     4     5   ar
    11     5     6   ar
    12     6     7   ar
    13     7    10    1
    14    10    11   ar
    15    11    12   ar
    16    12    13   ar
    17    13    14    1
    18    13    15   ar
    19    15    16    1
    20    15    17   ar
    21     7     8   ar
    22     8     9   ar
    23     9     1   ar
    24     9     4   ar
    25    17    10   ar
@<TRIPOS>MOLECULE
*****
 23 25 0 0 0
SMALL
GASTEIGER

@<TRIPOS>ATOM
      1 N         -10.0963  -16.7088   23.4031 N.ar    1  UNL1       -0.3165
      2 C         -11.5284  -16.7322   22.9577 C.ar    1  UNL1        0.0779
      3 C         -11.6207  -17.6026   21.7395 C.ar    1  UNL1        0.0392
      4 C         -10.2456  -18.1170   21.4321 C.ar    1  UNL1        0.0985
      5 N          -9.7296  -19.0170   20.3487 N.ar    1  UNL1       -0.2423
      6 C          -8.2715  -19.3646   20.2936 C.ar    1  UNL1        0.0989
      7 C          -7.3294  -18.8122   21.3218 C.ar    1  UNL1        0.0207
      8 C          -7.8454  -17.9122   22.4052 C.ar    1  UNL1        0.0203
      9 C          -9.3034  -17.5646   22.4603 C.ar    1  UNL1        0.0782
     10 C          -5.8712  -19.1599   21.2667 C.ar    1  UNL1        0.0039
     11 C          -5.3682  -20.1219   20.2316 C.ar    1  UNL1        0.0025
     12 C          -3.9100  -20.4696   20.1765 C.ar    1  UNL1        0.0320
     13 C          -2.9550  -19.8551   21.1564 C.ar    1  UNL1        0.1674
     14 F          -1.4969  -20.2027   21.1013 F       1  UNL1       -0.2018
     15 C          -3.4580  -18.8930   22.1915 C.ar    1  UNL1        0.1674
     16 F          -2.5030  -18.2786   23.1715 F       1  UNL1       -0.2018
     17 C          -4.9161  -18.5454   22.2466 C.ar    1  UNL1        0.0320
     18 C          -9.5525  -15.9608   24.5841 C.3     1  UNL1        0.1920
     19 C          -5.8623  -15.1964   25.8284 C.3     1  UNL1        0.1150
     20 N          -7.2900  -15.6562   25.8246 N.am    1  UNL1       -0.2744
     21 C          -7.8831  -16.2714   27.0574 C.3     1  UNL1        0.1150
     22 C          -8.1246  -15.5009   24.5880 C.2     1  UNL1        0.2488
     23 O          -7.5315  -14.8857   23.3552 O.2     1  UNL1       -0.2728
@<TRIPOS>BOND
     1    19    20    1
     2    20    21    1
     3    20    22   am
     4    22    23    2
     5    22    18    1
     6    18     1    1
     7     1     2   ar
     8     2     3   ar
     9     3     4   ar
    10     4     5   ar
    11     5     6   ar
    12     6     7   ar
    13     7    10    1
    14    10    11   ar
    15    11    12   ar
    16    12    13   ar
    17    13    14    1
    18    13    15   ar
    19    15    16    1
    20    15    17   ar
    21     7     8   ar
    22     8     9   ar
    23     9     1   ar
    24     9     4   ar
    25    17    10   ar
@<TRIPOS>MOLECULE
*****
 23 25 0 0 0
SMALL
GASTEIGER

@<TRIPOS>ATOM
      1 N          -7.1958  -19.6211   20.1694 N.ar    1  UNL1       -0.3165
      2 C          -8.2146  -20.0130   19.1405 C.ar    1  UNL1        0.0779
      3 C          -9.5047  -19.3278   19.4813 C.ar    1  UNL1        0.0392
      4 C          -9.2833  -18.5125   20.7208 C.ar    1  UNL1        0.0985
      5 N         -10.1968  -17.6285   21.5171 N.ar    1  UNL1       -0.2423
      6 C          -9.6832  -16.9258   22.7387 C.ar    1  UNL1        0.0989
      7 C          -8.2562  -17.1070   23.1640 C.ar    1  UNL1        0.0207
      8 C          -7.3428  -17.9910   22.3676 C.ar    1  UNL1        0.0203
      9 C          -7.8563  -18.6938   21.1460 C.ar    1  UNL1        0.0782
     10 C          -7.7427  -16.4042   24.3856 C.ar    1  UNL1        0.0039
     11 C          -6.3757  -15.7867   24.3767 C.ar    1  UNL1        0.0025
     12 C          -5.8622  -15.0839   25.5983 C.ar    1  UNL1        0.0320
     13 C          -6.7157  -14.9986   26.8289 C.ar    1  UNL1        0.1674
     14 F          -6.2022  -14.2958   28.0505 F       1  UNL1       -0.2018
     15 C          -8.0827  -15.6161   26.8378 C.ar    1  UNL1        0.1674
     16 F          -8.9362  -15.5308   28.0684 F       1  UNL1       -0.2018
     17 C          -8.5962  -16.3189   25.6162 C.ar    1  UNL1        0.0320
     18 C          -5.7673  -20.0765   20.2139 C.3     1  UNL1        0.1920
     19 C          -2.7005  -17.8423   21.3771 C.3     1  UNL1        0.1150
     20 N          -3.8104  -18.8508   21.4050 N.am    1  UNL1       -0.2744
     21 C          -4.0735  -19.6424   22.6516 C.3     1  UNL1        0.1150
     22 C          -4.6573  -19.0679   20.1861 C.2     1  UNL1        0.2488
     23 O          -4.3942  -18.2763   18.9394 O.2     1  UNL1       -0.2728
@<TRIPOS>BOND
     1    19    20    1
     2    20    21    1
     3    20    22   am
     4    22    23    2
     5    22    18    1
     6    18     1    1
     7     1     2   ar
     8     2     3   ar
     9     3     4   ar
    10     4     5   ar
    11     5     6   ar
    12     6     7   ar
    13     7    10    1
    14    10    11   ar
    15    11    12   ar
    16    12    13   ar
    17    13    14    1
    18    13    15   ar
    19    15    16    1
    20    15    17   ar
    21     7     8   ar
    22     8     9   ar
    23     9     1   ar
    24     9     4   ar
    25    17    10   ar
@<TRIPOS>MOLECULE
*****
 23 25 0 0 0
SMALL
GASTEIGER

@<TRIPOS>ATOM
      1 N          -8.8684  -16.5171   23.8358 N.ar    1  UNL1       -0.3165
      2 C          -9.4446  -15.8008   25.0211 C.ar    1  UNL1        0.0779
      3 C          -8.3063  -15.3378   25.8812 C.ar    1  UNL1        0.0392
      4 C          -7.0265  -15.7681   25.2276 C.ar    1  UNL1        0.0985
      5 N          -5.5898  -15.5903   25.6201 N.ar    1  UNL1       -0.2423
      6 C          -4.5005  -16.1414   24.7486 C.ar    1  UNL1        0.0989
      7 C          -4.8480  -16.8703   23.4844 C.ar    1  UNL1        0.0207
      8 C          -6.2847  -17.0480   23.0919 C.ar    1  UNL1        0.0203
      9 C          -7.3740  -16.4969   23.9634 C.ar    1  UNL1        0.0782
     10 C          -3.7586  -17.4214   22.6128 C.ar    1  UNL1        0.0039
     11 C          -3.6868  -18.8952   22.3437 C.ar    1  UNL1        0.0025
     12 C          -2.5975  -19.4464   21.4721 C.ar    1  UNL1        0.0320
     13 C          -1.5798  -18.5235   20.8697 C.ar    1  UNL1        0.1674
     14 F          -0.4905  -19.0746   19.9982 F       1  UNL1       -0.2018
     15 C          -1.6516  -17.0496   21.1389 C.ar    1  UNL1        0.1674
     16 F          -0.6340  -16.1267   20.5366 F       1  UNL1       -0.2018
     17 C          -2.7410  -16.4985   22.0105 C.ar    1  UNL1        0.0320
     18 C          -9.6495  -17.1437   22.7190 C.3     1  UNL1        0.1920
     19 C         -11.6172  -15.8129   19.5398 C.3     1  UNL1        0.1150
     20 N         -11.2679  -16.6194   20.7553 N.am    1  UNL1       -0.2744
     21 C         -12.1877  -17.7083   21.2226 C.3     1  UNL1        0.1150
     22 C          -9.9988  -16.3371   21.5034 C.2     1  UNL1        0.2488
     23 O          -9.0791  -15.2483   21.0361 O.2     1  UNL1       -0.2728
@<TRIPOS>BOND
     1    19    20    1
     2    20    21    1
     3    20    22   am
     4    22    23    2
     5    22    18    1
     6    18     1    1
     7     1     2   ar
     8     2     3   ar
     9     3     4   ar
    10     4     5   ar
    11     5     6   ar
    12     6     7   ar
    13     7    10    1
    14    10    11   ar
    15    11    12   ar
    16    12    13   ar
    17    13    14    1
    18    13    15   ar
    19    15    16    1
    20    15    17   ar
    21     7     8   ar
    22     8     9   ar
    23     9     1   ar
    24     9     4   ar
    25    17    10   ar
@<TRIPOS>MOLECULE
*****
 23 25 0 0 0
SMALL
GASTEIGER

@<TRIPOS>ATOM
      1 N          -8.6769  -16.0147   23.7715 N.ar    1  UNL1       -0.3165
      2 C          -9.2990  -15.5474   25.0540 C.ar    1  UNL1        0.0779
      3 C          -8.2099  -15.4184   26.0773 C.ar    1  UNL1        0.0392
      4 C          -6.9148  -15.8059   25.4274 C.ar    1  UNL1        0.0985
      5 N          -5.5100  -15.8708   25.9491 N.ar    1  UNL1       -0.2423
      6 C          -4.3938  -16.3043   25.0457 C.ar    1  UNL1        0.0989
      7 C          -4.6824  -16.6728   23.6206 C.ar    1  UNL1        0.0207
      8 C          -6.0872  -16.6079   23.0989 C.ar    1  UNL1        0.0203
      9 C          -7.2034  -16.1745   24.0023 C.ar    1  UNL1        0.0782
     10 C          -3.5661  -17.1063   22.7172 C.ar    1  UNL1        0.0039
     11 C          -2.6304  -16.0866   22.1388 C.ar    1  UNL1        0.0025
     12 C          -1.5141  -16.5201   21.2354 C.ar    1  UNL1        0.0320
     13 C          -1.3336  -17.9733   20.9104 C.ar    1  UNL1        0.1674
     14 F          -0.2173  -18.4068   20.0071 F       1  UNL1       -0.2018
     15 C          -2.2694  -18.9930   21.4889 C.ar    1  UNL1        0.1674
     16 F          -2.0888  -20.4462   21.1639 F       1  UNL1       -0.2018
     17 C          -3.3856  -18.5595   22.3922 C.ar    1  UNL1        0.0320
     18 C          -9.4012  -16.2763   22.4843 C.3     1  UNL1        0.1920
     19 C         -10.8383  -19.9315   21.9148 C.3     1  UNL1        0.1150
     20 N         -10.6966  -18.5276   22.4237 N.am    1  UNL1       -0.2744
     21 C         -11.7085  -17.9711   23.3810 C.3     1  UNL1        0.1150
     22 C          -9.5429  -17.6803   21.9754 C.2     1  UNL1        0.2488
     23 O          -8.5310  -18.2368   21.0181 O.2     1  UNL1       -0.2728
@<TRIPOS>BOND
     1    19    20    1
     2    20    21    1
     3    20    22   am
     4    22    23    2
     5    22    18    1
     6    18     1    1
     7     1     2   ar
     8     2     3   ar
     9     3     4   ar
    10     4     5   ar
    11     5     6   ar
    12     6     7   ar
    13     7    10    1
    14    10    11   ar
    15    11    12   ar
    16    12    13   ar
    17    13    14    1
    18    13    15   ar
    19    15    16    1
    20    15    17   ar
    21     7     8   ar
    22     8     9   ar
    23     9     1   ar
    24     9     4   ar
    25    17    10   ar
@<TRIPOS>MOLECULE
*****
 23 25 0 0 0
SMALL
GASTEIGER

@<TRIPOS>ATOM
      1 N          -4.5707  -17.1850   23.3099 N.ar    1  UNL1       -0.3165
      2 C          -3.2682  -17.8943   23.0860 C.ar    1  UNL1        0.0779
      3 C          -3.5500  -19.1474   22.3112 C.ar    1  UNL1        0.0392
      4 C          -5.0268  -19.2125   22.0563 C.ar    1  UNL1        0.0985
      5 N          -5.8785  -20.2195   21.3419 N.ar    1  UNL1       -0.2423
      6 C          -7.3611  -20.0137   21.2447 C.ar    1  UNL1        0.0989
      7 C          -7.9920  -18.8008   21.8620 C.ar    1  UNL1        0.0207
      8 C          -7.1402  -17.7938   22.5764 C.ar    1  UNL1        0.0203
      9 C          -5.6576  -17.9997   22.6735 C.ar    1  UNL1        0.0782
     10 C          -9.4746  -18.5950   21.7648 C.ar    1  UNL1        0.0039
     11 C         -10.1143  -18.3689   20.4270 C.ar    1  UNL1        0.0025
     12 C         -11.5970  -18.1630   20.3298 C.ar    1  UNL1        0.0320
     13 C         -12.4399  -18.1834   21.5704 C.ar    1  UNL1        0.1674
     14 F         -13.9225  -17.9775   21.4733 F       1  UNL1       -0.2018
     15 C         -11.8001  -18.4095   22.9082 C.ar    1  UNL1        0.1674
     16 F         -12.6430  -18.4298   24.1488 F       1  UNL1       -0.2018
     17 C         -10.3175  -18.6153   23.0054 C.ar    1  UNL1        0.0320
     18 C          -4.7543  -15.8885   24.0417 C.3     1  UNL1        0.1920
     19 C          -7.4923  -15.3240   26.8585 C.3     1  UNL1        0.1150
     20 N          -6.8211  -15.3396   25.5172 N.am    1  UNL1       -0.2744
     21 C          -7.5454  -14.8218   24.3100 C.3     1  UNL1        0.1150
     22 C          -5.4256  -15.8730   25.3831 C.2     1  UNL1        0.2488
     23 O          -4.7013  -16.3908   26.5903 O.2     1  UNL1       -0.2728
@<TRIPOS>BOND
     1    19    20    1
     2    20    21    1
     3    20    22   am
     4    22    23    2
     5    22    18    1
     6    18     1    1
     7     1     2   ar
     8     2     3   ar
     9     3     4   ar
    10     4     5   ar
    11     5     6   ar
    12     6     7   ar
    13     7    10    1
    14    10    11   ar
    15    11    12   ar
    16    12    13   ar
    17    13    14    1
    18    13    15   ar
    19    15    16    1
    20    15    17   ar
    21     7     8   ar
    22     8     9   ar
    23     9     1   ar
    24     9     4   ar
    25    17    10   ar
@<TRIPOS>MOLECULE
*****
 23 25 0 0 0
SMALL
GASTEIGER

@<TRIPOS>ATOM
      1 N         -10.0000  -19.2707   20.2956 N.ar    1  UNL1       -0.3165
      2 C          -9.6016  -20.0488   19.0767 C.ar    1  UNL1        0.0779
      3 C          -8.1043  -20.0357   18.9873 C.ar    1  UNL1        0.0392
      4 C          -7.5773  -19.2495   20.1510 C.ar    1  UNL1        0.0985
      5 N          -6.1820  -18.9031   20.5789 N.ar    1  UNL1       -0.2423
      6 C          -5.9583  -18.0839   21.8153 C.ar    1  UNL1        0.0989
      7 C          -7.1299  -17.6111   22.6239 C.ar    1  UNL1        0.0207
      8 C          -8.5252  -17.9575   22.1960 C.ar    1  UNL1        0.0203
      9 C          -8.7489  -18.7767   20.9596 C.ar    1  UNL1        0.0782
     10 C          -6.9061  -16.7918   23.8603 C.ar    1  UNL1        0.0039
     11 C          -5.5178  -16.3678   24.2380 C.ar    1  UNL1        0.0025
     12 C          -5.2940  -15.5485   25.4745 C.ar    1  UNL1        0.0320
     13 C          -6.4587  -15.1533   26.3332 C.ar    1  UNL1        0.1674
     14 F          -6.2349  -14.3340   27.5696 F       1  UNL1       -0.2018
     15 C          -7.8471  -15.5773   25.9554 C.ar    1  UNL1        0.1674
     16 F          -9.0117  -15.1820   26.8141 F       1  UNL1       -0.2018
     17 C          -8.0708  -16.3965   24.7190 C.ar    1  UNL1        0.0320
     18 C         -11.4031  -19.0290   20.7677 C.3     1  UNL1        0.1920
     19 C         -12.5957  -15.7618   22.6792 C.3     1  UNL1        0.1150
     20 N         -12.1203  -17.1617   22.4259 N.am    1  UNL1       -0.2744
     21 C         -11.8869  -18.0945   23.5772 C.3     1  UNL1        0.1150
     22 C         -11.8784  -17.6289   21.0211 C.2     1  UNL1        0.2488
     23 O         -12.1119  -16.6962   19.8698 O.2     1  UNL1       -0.2728
@<TRIPOS>BOND
     1    19    20    1
     2    20    21    1
     3    20    22   am
     4    22    23    2
     5    22    18    1
     6    18     1    1
     7     1     2   ar
     8     2     3   ar
     9     3     4   ar
    10     4     5   ar
    11     5     6   ar
    12     6     7   ar
    13     7    10    1
    14    10    11   ar
    15    11    12   ar
    16    12    13   ar
    17    13    14    1
    18    13    15   ar
    19    15    16    1
    20    15    17   ar
    21     7     8   ar
    22     8     9   ar
    23     9     1   ar
    24     9     4   ar
    25    17    10   ar
@<TRIPOS>MOLECULE
*****
 23 25 0 0 0
SMALL
GASTEIGER

@<TRIPOS>ATOM
      1 N          -4.3311  -18.2741   22.3304 N.ar    1  UNL1       -0.3165
      2 C          -3.3605  -18.6842   21.2628 C.ar    1  UNL1        0.0779
      3 C          -4.1429  -19.2730   20.1265 C.ar    1  UNL1        0.0392
      4 C          -5.5970  -19.2268   20.4919 C.ar    1  UNL1        0.0985
      5 N          -6.8302  -19.6672   19.7603 N.ar    1  UNL1       -0.2423
      6 C          -8.1796  -19.4902   20.3907 C.ar    1  UNL1        0.0989
      7 C          -8.2959  -18.8728   21.7528 C.ar    1  UNL1        0.0207
      8 C          -7.0628  -18.4324   22.4845 C.ar    1  UNL1        0.0203
      9 C          -5.7133  -18.6095   21.8540 C.ar    1  UNL1        0.0782
     10 C          -9.6455  -18.6958   22.3833 C.ar    1  UNL1        0.0039
     11 C          -9.8261  -18.9454   23.8513 C.ar    1  UNL1        0.0025
     12 C         -11.1756  -18.7684   24.4818 C.ar    1  UNL1        0.0320
     13 C         -12.3446  -18.3418   23.6442 C.ar    1  UNL1        0.1674
     14 F         -13.6941  -18.1647   24.2746 F       1  UNL1       -0.2018
     15 C         -12.1640  -18.0922   22.1761 C.ar    1  UNL1        0.1674
     16 F         -13.3329  -17.6655   21.3385 F       1  UNL1       -0.2018
     17 C         -10.8145  -18.2692   21.5457 C.ar    1  UNL1        0.0320
     18 C          -3.9809  -17.6399   23.6439 C.3     1  UNL1        0.1920
     19 C          -5.6864  -14.8999   25.9534 C.3     1  UNL1        0.1150
     20 N          -4.9981  -16.1609   25.5223 N.am    1  UNL1       -0.2744
     21 C          -4.6385  -17.2042   26.5384 C.3     1  UNL1        0.1150
     22 C          -4.6693  -16.3788   24.0751 C.2     1  UNL1        0.2488
     23 O          -5.0289  -15.3356   23.0590 O.2     1  UNL1       -0.2728
@<TRIPOS>BOND
     1    19    20    1
     2    20    21    1
     3    20    22   am
     4    22    23    2
     5    22    18    1
     6    18     1    1
     7     1     2   ar
     8     2     3   ar
     9     3     4   ar
    10     4     5   ar
    11     5     6   ar
    12     6     7   ar
    13     7    10    1
    14    10    11   ar
    15    11    12   ar
    16    12    13   ar
    17    13    14    1
    18    13    15   ar
    19    15    16    1
    20    15    17   ar
    21     7     8   ar
    22     8     9   ar
    23     9     1   ar
    24     9     4   ar
    25    17    10   ar
@<TRIPOS>MOLECULE
*****
 23 25 0 0 0
SMALL
GASTEIGER

@<TRIPOS>ATOM
      1 N         -11.9701   -3.5857   18.4026 N.ar    1  UNL1       -0.3165
      2 C         -12.0255   -2.1373   18.7887 C.ar    1  UNL1        0.0779
      3 C         -13.3620   -1.8761   19.4175 C.ar    1  UNL1        0.0392
      4 C         -14.1327   -3.1630   19.4199 C.ar    1  UNL1        0.0985
      5 N         -15.5066   -3.5092   19.9123 N.ar    1  UNL1       -0.2423
      6 C         -16.0202   -4.9120   19.7774 C.ar    1  UNL1        0.0989
      7 C         -15.1599   -5.9686   19.1501 C.ar    1  UNL1        0.0207
      8 C         -13.7860   -5.6224   18.6578 C.ar    1  UNL1        0.0203
      9 C         -13.2724   -4.2196   18.7927 C.ar    1  UNL1        0.0782
     10 C         -15.6736   -7.3715   19.0152 C.ar    1  UNL1        0.0039
     11 C         -14.8694   -8.3965   18.2718 C.ar    1  UNL1        0.0025
     12 C         -15.3830   -9.7993   18.1370 C.ar    1  UNL1        0.0320
     13 C         -16.7010  -10.1772   18.7455 C.ar    1  UNL1        0.1674
     14 F         -17.2147  -11.5800   18.6106 F       1  UNL1       -0.2018
     15 C         -17.5052   -9.1522   19.4889 C.ar    1  UNL1        0.1674
     16 F         -18.8231   -9.5300   20.0974 F       1  UNL1       -0.2018
     17 C         -16.9915   -7.7494   19.6237 C.ar    1  UNL1        0.0320
     18 C         -10.8151   -4.2786   17.7423 C.3     1  UNL1        0.1920
     19 C          -9.5019   -7.8854   18.7505 C.3     1  UNL1        0.1150
     20 N         -10.2354   -6.7951   18.0271 N.am    1  UNL1       -0.2744
     21 C         -11.1227   -7.1310   16.8653 C.3     1  UNL1        0.1150
     22 C         -10.0816   -5.3689   18.4656 C.2     1  UNL1        0.2488
     23 O          -9.1943   -5.0331   19.6275 O.2     1  UNL1       -0.2728
@<TRIPOS>BOND
     1    19    20    1
     2    20    21    1
     3    20    22   am
     4    22    23    2
     5    22    18    1
     6    18     1    1
     7     1     2   ar
     8     2     3   ar
     9     3     4   ar
    10     4     5   ar
    11     5     6   ar
    12     6     7   ar
    13     7    10    1
    14    10    11   ar
    15    11    12   ar
    16    12    13   ar
    17    13    14    1
    18    13    15   ar
    19    15    16    1
    20    15    17   ar
    21     7     8   ar
    22     8     9   ar
    23     9     1   ar
    24     9     4   ar
    25    17    10   ar
