@<TRIPOS>MOLECULE
*****
 39 42 0 0 0
SMALL
GASTEIGER

@<TRIPOS>ATOM
      1 C           3.2024    1.2599   31.3175 C.3     1  UNL1        0.1678
      2 C           4.0161    0.1324   31.8803 C.2     1  UNL1        0.2492
      3 O           4.5666   -0.8371   30.8769 O.2     1  UNL1       -0.2727
      4 N           4.3521   -0.1536   33.3140 N.am    1  UNL1       -0.2518
      5 C           3.9574    0.6171   34.5388 C.ar    1  UNL1        0.0679
      6 C           4.5062   -0.0141   35.7840 C.ar    1  UNL1        0.0169
      7 C           4.2269    0.6019   37.1228 C.ar    1  UNL1        0.0116
      8 C           3.3987    1.8490   37.2165 C.ar    1  UNL1        0.0698
      9 C           2.8498    2.4802   35.9714 C.ar    1  UNL1        0.0264
     10 C           3.1292    1.8642   34.6326 C.ar    1  UNL1        0.0682
     11 N           2.4912    2.6486   33.5245 N.am    1  UNL1       -0.2570
     12 C           1.7183    3.8625   33.9479 C.2     1  UNL1        0.2299
     13 C           1.6229    4.2218   35.4012 C.3     1  UNL1        0.0952
     14 O           1.0409    4.7172   32.9180 O.2     1  UNL1       -0.2745
     15 C           2.5237    2.3797   32.0492 C.3     1  UNL1        0.1066
     16 C           1.7792    3.3602   31.1923 C.3     1  UNL1        0.0242
     17 C           1.9202    0.5137   29.1846 C.2     1  UNL1        0.2371
     18 O           0.9492   -0.2500   30.0354 O.2     1  UNL1       -0.2737
     19 N           3.0468    1.2686   29.8256 N.am    1  UNL1       -0.2959
     20 H           3.6841    1.7699   29.2672 H       1  UNL1        0.1499
     21 C           1.7646    0.5225   27.6927 C.3     1  UNL1        0.1316
     22 C           0.6805    1.3412   27.0565 C.3     1  UNL1        0.0270
     23 C           3.5420   -1.3577   27.4564 C.3     1  UNL1        0.0862
     24 N           2.6930   -0.2873   26.8370 N.3     1  UNL1       -0.2902
     25 H           2.1184   -0.7412   26.1270 H       1  UNL1        0.1237
     26 C           3.1193    2.4650   38.5554 C.1     1  UNL1        0.1005
     27 N           2.8400    3.0809   39.8943 N.1     1  UNL1       -0.1908
     28 C           5.1941   -1.3714   33.5546 C.3     1  UNL1        0.1245
     29 C           6.6362   -1.3798   33.1416 C.ar    1  UNL1       -0.0059
     30 C           7.4970   -0.1788   33.3994 C.ar    1  UNL1       -0.0242
     31 C           7.3684    0.5334   33.7337 C.3     1  UNL1        0.0308
     32 C           8.9391   -0.1870   32.9865 C.ar    1  UNL1       -0.0045
     33 C           9.5202   -1.3964   32.3158 C.ar    1  UNL1       -0.0003
     34 C           8.6593   -2.5974   32.0580 C.ar    1  UNL1       -0.0003
     35 C           9.2404   -3.8068   31.3873 C.ar    1  UNL1       -0.0000
     36 C           8.3795   -5.0077   31.1296 C.ar    1  UNL1       -0.0000
     37 C           6.9374   -4.9994   31.5426 C.ar    1  UNL1       -0.0000
     38 C           6.3564   -3.7901   32.2132 C.ar    1  UNL1       -0.0003
     39 C           7.2172   -2.5891   32.4709 C.ar    1  UNL1       -0.0027
@<TRIPOS>BOND
     1    23    24    1
     2    24    21    1
     3    21    22    1
     4    21    17    1
     5    17    18    2
     6    17    19   am
     7     1    19    1
     8     1     2    1
     9     2     3    2
    10     2     4   am
    11     4    28    1
    12    28    29    1
    13    29    30   ar
    14    30    31    1
    15    30    32   ar
    16    32    33   ar
    17    33    34   ar
    18    34    35   ar
    19    35    36   ar
    20    36    37   ar
    21    37    38   ar
    22    38    39   ar
    23     4     5    1
    24     5     6   ar
    25     6     7   ar
    26     7     8   ar
    27     8    26    1
    28    26    27    3
    29     8     9   ar
    30     9    10   ar
    31    10    11    1
    32    11    12   am
    33    12    13    1
    34    12    14    2
    35    11    15    1
    36    15    16    1
    37    15     1    1
    38    39    29   ar
    39    10     5   ar
    40    39    34   ar
    41    24    25    1
    42    19    20    1
@<TRIPOS>MOLECULE
*****
 39 42 0 0 0
SMALL
GASTEIGER

@<TRIPOS>ATOM
      1 C          -0.1484    3.0568   19.5233 C.3     1  UNL1        0.1678
      2 C           0.3553    1.6443   19.5592 C.2     1  UNL1        0.2492
      3 O          -0.6221    0.6170   20.0483 O.2     1  UNL1       -0.2727
      4 N           1.7072    1.1234   19.1707 N.am    1  UNL1       -0.2518
      5 C           2.8894    1.8862   18.6503 C.ar    1  UNL1        0.0679
      6 C           4.0533    0.9783   18.3839 C.ar    1  UNL1        0.0169
      7 C           5.3394    1.5426   17.8572 C.ar    1  UNL1        0.0116
      8 C           5.4615    3.0148   17.5968 C.ar    1  UNL1        0.0698
      9 C           4.2976    3.9227   17.8632 C.ar    1  UNL1        0.0264
     10 C           3.0115    3.3584   18.3899 C.ar    1  UNL1        0.0682
     11 N           1.9817    4.4313   18.5856 N.am    1  UNL1       -0.2570
     12 C           2.4155    5.8224   18.2299 C.2     1  UNL1        0.2299
     13 C           3.8033    6.0669   17.7155 C.3     1  UNL1        0.0952
     14 O           1.4617    6.9692   18.3885 O.2     1  UNL1       -0.2745
     15 C           0.5754    4.2972   19.0900 C.3     1  UNL1        0.1066
     16 C          -0.2110    5.5718   19.1720 C.3     1  UNL1        0.0242
     17 C          -1.8741    3.3239   21.4470 C.2     1  UNL1        0.2371
     18 O          -0.7707    3.1942   22.4549 O.2     1  UNL1       -0.2737
     19 N          -1.5629    3.2552   19.9812 N.am    1  UNL1       -0.2959
     20 H          -2.2871    3.3402   19.3198 H       1  UNL1        0.1499
     21 C          -3.2886    3.5222   21.9049 C.3     1  UNL1        0.1316
     22 C          -3.5895    4.4848   23.0153 C.3     1  UNL1        0.0270
     23 C          -5.2269    3.4041   20.1789 C.3     1  UNL1        0.0862
     24 N          -4.4023    2.7580   21.2525 N.3     1  UNL1       -0.2902
     25 H          -3.9850    1.9232   20.8410 H       1  UNL1        0.1237
     26 C           6.7477    3.5791   17.0700 C.1     1  UNL1        0.1005
     27 N           8.0338    4.1434   16.5433 N.1     1  UNL1       -0.1908
     28 C           1.9029   -0.3560   19.3226 C.3     1  UNL1        0.1245
     29 C           2.6609   -0.8954   20.4994 C.ar    1  UNL1       -0.0059
     30 C           2.4699   -0.2871   21.8571 C.ar    1  UNL1       -0.0242
     31 C           2.0227    0.3097   22.1387 C.3     1  UNL1        0.0308
     32 C           3.2278   -0.8265   23.0339 C.ar    1  UNL1       -0.0045
     33 C           4.1766   -1.9741   22.8528 C.ar    1  UNL1       -0.0003
     34 C           4.3676   -2.5823   21.4950 C.ar    1  UNL1       -0.0003
     35 C           5.3164   -3.7299   21.3139 C.ar    1  UNL1       -0.0000
     36 C           5.5073   -4.3381   19.9561 C.ar    1  UNL1       -0.0000
     37 C           4.7494   -3.7987   18.7794 C.ar    1  UNL1       -0.0000
     38 C           3.8006   -2.6512   18.9605 C.ar    1  UNL1       -0.0003
     39 C           3.6097   -2.0430   20.3182 C.ar    1  UNL1       -0.0027
@<TRIPOS>BOND
     1    23    24    1
     2    24    21    1
     3    21    22    1
     4    21    17    1
     5    17    18    2
     6    17    19   am
     7     1    19    1
     8     1     2    1
     9     2     3    2
    10     2     4   am
    11     4    28    1
    12    28    29    1
    13    29    30   ar
    14    30    31    1
    15    30    32   ar
    16    32    33   ar
    17    33    34   ar
    18    34    35   ar
    19    35    36   ar
    20    36    37   ar
    21    37    38   ar
    22    38    39   ar
    23     4     5    1
    24     5     6   ar
    25     6     7   ar
    26     7     8   ar
    27     8    26    1
    28    26    27    3
    29     8     9   ar
    30     9    10   ar
    31    10    11    1
    32    11    12   am
    33    12    13    1
    34    12    14    2
    35    11    15    1
    36    15    16    1
    37    15     1    1
    38    39    29   ar
    39    10     5   ar
    40    39    34   ar
    41    24    25    1
    42    19    20    1
@<TRIPOS>MOLECULE
*****
 39 42 0 0 0
SMALL
GASTEIGER

@<TRIPOS>ATOM
      1 C          -0.2997    3.0342   20.7765 C.3     1  UNL1        0.1678
      2 C           0.2583    1.8728   20.0086 C.2     1  UNL1        0.2492
      3 O          -0.1225    1.8076   18.5592 O.2     1  UNL1       -0.2727
      4 N           1.1467    0.7679   20.4984 N.am    1  UNL1       -0.2518
      5 C           1.6966    0.5515   21.8772 C.ar    1  UNL1        0.0679
      6 C           2.5471   -0.6824   21.9405 C.ar    1  UNL1        0.0169
      7 C           3.1948   -1.0812   23.2333 C.ar    1  UNL1        0.0116
      8 C           2.9920   -0.2460   24.4627 C.ar    1  UNL1        0.0698
      9 C           2.1416    0.9879   24.3994 C.ar    1  UNL1        0.0264
     10 C           1.4939    1.3867   23.1066 C.ar    1  UNL1        0.0682
     11 N           0.6911    2.6444   23.2608 N.am    1  UNL1       -0.2570
     12 C           0.6860    3.2489   24.6337 C.2     1  UNL1        0.2299
     13 C           1.4528    2.5942   25.7443 C.3     1  UNL1        0.0952
     14 O          -0.0860    4.5080   24.8959 O.2     1  UNL1       -0.2745
     15 C          -0.1071    3.3777   22.2239 C.3     1  UNL1        0.1066
     16 C          -0.8049    4.6183   22.6969 C.3     1  UNL1        0.0242
     17 C          -2.6511    3.7782   19.9595 C.2     1  UNL1        0.2371
     18 O          -3.2725    2.6368   20.7086 O.2     1  UNL1       -0.2737
     19 N          -1.1647    3.9769   19.9935 N.am    1  UNL1       -0.2959
     20 H          -0.7569    4.7260   19.5019 H       1  UNL1        0.1499
     21 C          -3.5161    4.7209   19.1765 C.3     1  UNL1        0.1316
     22 C          -3.4595    6.1945   19.4513 C.3     1  UNL1        0.0270
     23 C          -5.7883    3.6594   18.4983 C.3     1  UNL1        0.0862
     24 N          -4.4376    4.1901   18.1188 N.3     1  UNL1       -0.2902
     25 H          -4.5952    4.9502   17.4570 H       1  UNL1        0.1237
     26 C           3.6398   -0.6449   25.7556 C.1     1  UNL1        0.1005
     27 N           4.2876   -1.0437   27.0484 N.1     1  UNL1       -0.1908
     28 C           1.5368   -0.2561   19.4741 C.3     1  UNL1        0.1245
     29 C           2.9329   -0.2743   18.9257 C.ar    1  UNL1       -0.0059
     30 C           3.5732    1.0005   18.4622 C.ar    1  UNL1       -0.0242
     31 C           3.3348    1.7605   18.4308 C.3     1  UNL1        0.0308
     32 C           4.9693    0.9823   17.9138 C.ar    1  UNL1       -0.0045
     33 C           5.7250   -0.3107   17.8289 C.ar    1  UNL1       -0.0003
     34 C           5.0846   -1.5855   18.2924 C.ar    1  UNL1       -0.0003
     35 C           5.8402   -2.8785   18.2075 C.ar    1  UNL1       -0.0000
     36 C           5.1998   -4.1532   18.6710 C.ar    1  UNL1       -0.0000
     37 C           3.8037   -4.1351   19.2195 C.ar    1  UNL1       -0.0000
     38 C           3.0482   -2.8420   19.3043 C.ar    1  UNL1       -0.0003
     39 C           3.6885   -1.5673   18.8408 C.ar    1  UNL1       -0.0027
@<TRIPOS>BOND
     1    23    24    1
     2    24    21    1
     3    21    22    1
     4    21    17    1
     5    17    18    2
     6    17    19   am
     7     1    19    1
     8     1     2    1
     9     2     3    2
    10     2     4   am
    11     4    28    1
    12    28    29    1
    13    29    30   ar
    14    30    31    1
    15    30    32   ar
    16    32    33   ar
    17    33    34   ar
    18    34    35   ar
    19    35    36   ar
    20    36    37   ar
    21    37    38   ar
    22    38    39   ar
    23     4     5    1
    24     5     6   ar
    25     6     7   ar
    26     7     8   ar
    27     8    26    1
    28    26    27    3
    29     8     9   ar
    30     9    10   ar
    31    10    11    1
    32    11    12   am
    33    12    13    1
    34    12    14    2
    35    11    15    1
    36    15    16    1
    37    15     1    1
    38    39    29   ar
    39    10     5   ar
    40    39    34   ar
    41    24    25    1
    42    19    20    1
@<TRIPOS>MOLECULE
*****
 39 42 0 0 0
SMALL
GASTEIGER

@<TRIPOS>ATOM
      1 C          -2.0108    3.6396   22.1580 C.3     1  UNL1        0.1678
      2 C          -1.2089    3.1476   20.9897 C.2     1  UNL1        0.2492
      3 O          -1.6681    3.6171   19.6412 O.2     1  UNL1       -0.2727
      4 N          -0.0085    2.2481   20.9918 N.am    1  UNL1       -0.2518
      5 C           0.6865    1.6185   22.1625 C.ar    1  UNL1        0.0679
      6 C           1.8537    0.7850   21.7235 C.ar    1  UNL1        0.0169
      7 C           2.6871    0.0658   22.7424 C.ar    1  UNL1        0.0116
      8 C           2.3533    0.1802   24.2003 C.ar    1  UNL1        0.0698
      9 C           1.1861    1.0138   24.6393 C.ar    1  UNL1        0.0264
     10 C           0.3527    1.7330   23.6204 C.ar    1  UNL1        0.0682
     11 N          -0.7585    2.5052   24.2676 N.am    1  UNL1       -0.2570
     12 C          -0.8269    2.4173   25.7635 C.2     1  UNL1        0.2299
     13 C           0.1785    1.5943   26.5132 C.3     1  UNL1        0.0952
     14 O          -1.9007    3.1523   26.5097 O.2     1  UNL1       -0.2745
     15 C          -1.8104    3.3538   23.6168 C.3     1  UNL1        0.1066
     16 C          -2.7915    4.0022   24.5479 C.3     1  UNL1        0.0242
     17 C          -4.5174    3.9467   21.5478 C.2     1  UNL1        0.2371
     18 O          -4.7140    2.4608   21.6072 O.2     1  UNL1       -0.2737
     19 N          -3.1659    4.5361   21.8232 N.am    1  UNL1       -0.2959
     20 H          -3.0369    5.5114   21.7842 H       1  UNL1        0.1499
     21 C          -5.6725    4.8432   21.2129 C.3     1  UNL1        0.1316
     22 C          -5.4402    6.1108   20.4452 C.3     1  UNL1        0.0270
     23 C          -7.3790    4.3361   23.1052 C.3     1  UNL1        0.0862
     24 N          -7.0599    4.4722   21.6459 N.3     1  UNL1       -0.2902
     25 H          -7.6856    5.1863   21.2730 H       1  UNL1        0.1237
     26 C           3.1868   -0.5390   25.2192 C.1     1  UNL1        0.1005
     27 N           4.0202   -1.2581   26.2381 N.1     1  UNL1       -0.1908
     28 C           0.5739    1.9371   19.6449 C.3     1  UNL1        0.1245
     29 C           1.9220    2.4763   19.2680 C.ar    1  UNL1       -0.0059
     30 C           2.2804    3.8955   19.5956 C.ar    1  UNL1       -0.0242
     31 C           1.8968    4.4947   19.9551 C.3     1  UNL1        0.0308
     32 C           3.6284    4.4348   19.2187 C.ar    1  UNL1       -0.0045
     33 C           4.6181    3.5547   18.5143 C.ar    1  UNL1       -0.0003
     34 C           4.2597    2.1355   18.1868 C.ar    1  UNL1       -0.0003
     35 C           5.2493    1.2554   17.4824 C.ar    1  UNL1       -0.0000
     36 C           4.8909   -0.1638   17.1548 C.ar    1  UNL1       -0.0000
     37 C           3.5428   -0.7031   17.5317 C.ar    1  UNL1       -0.0000
     38 C           2.5532    0.1770   18.2361 C.ar    1  UNL1       -0.0003
     39 C           2.9116    1.5962   18.5636 C.ar    1  UNL1       -0.0027
@<TRIPOS>BOND
     1    23    24    1
     2    24    21    1
     3    21    22    1
     4    21    17    1
     5    17    18    2
     6    17    19   am
     7     1    19    1
     8     1     2    1
     9     2     3    2
    10     2     4   am
    11     4    28    1
    12    28    29    1
    13    29    30   ar
    14    30    31    1
    15    30    32   ar
    16    32    33   ar
    17    33    34   ar
    18    34    35   ar
    19    35    36   ar
    20    36    37   ar
    21    37    38   ar
    22    38    39   ar
    23     4     5    1
    24     5     6   ar
    25     6     7   ar
    26     7     8   ar
    27     8    26    1
    28    26    27    3
    29     8     9   ar
    30     9    10   ar
    31    10    11    1
    32    11    12   am
    33    12    13    1
    34    12    14    2
    35    11    15    1
    36    15    16    1
    37    15     1    1
    38    39    29   ar
    39    10     5   ar
    40    39    34   ar
    41    24    25    1
    42    19    20    1
@<TRIPOS>MOLECULE
*****
 39 42 0 0 0
SMALL
GASTEIGER

@<TRIPOS>ATOM
      1 C           0.4740    1.1165   21.6406 C.3     1  UNL1        0.1678
      2 C           1.0840    0.1357   20.6835 C.2     1  UNL1        0.2492
      3 O           0.5149    0.1405   19.2957 O.2     1  UNL1       -0.2727
      4 N           2.1879   -0.8493   20.9309 N.am    1  UNL1       -0.2518
      5 C           2.9545   -1.0968   22.1963 C.ar    1  UNL1        0.0679
      6 C           3.9798   -2.1763   22.0137 C.ar    1  UNL1        0.0169
      7 C           4.8571   -2.5793   23.1617 C.ar    1  UNL1        0.0116
      8 C           4.7090   -1.9029   24.4923 C.ar    1  UNL1        0.0698
      9 C           3.6837   -0.8234   24.6749 C.ar    1  UNL1        0.0264
     10 C           2.8064   -0.4204   23.5269 C.ar    1  UNL1        0.0682
     11 N           1.8552    0.6706   23.9207 N.am    1  UNL1       -0.2570
     12 C           1.9553    1.1396   25.3420 C.2     1  UNL1        0.2299
     13 C           2.9614    0.5211   26.2669 C.3     1  UNL1        0.0952
     14 O           1.0493    2.2272   25.8385 O.2     1  UNL1       -0.2745
     15 C           0.8172    1.3546   23.0813 C.3     1  UNL1        0.1066
     16 C           0.0166    2.4171   23.7740 C.3     1  UNL1        0.0242
     17 C          -0.2915    3.2468   20.3654 C.2     1  UNL1        0.2371
     18 O           1.1401    3.6652   20.2051 O.2     1  UNL1       -0.2737
     19 N          -0.6245    1.9725   21.0832 N.am    1  UNL1       -0.2959
     20 H          -1.5640    1.6979   21.1884 H       1  UNL1        0.1499
     21 C          -1.3899    4.1027   19.8081 C.3     1  UNL1        0.1316
     22 C          -1.9992    5.1839   20.6507 C.3     1  UNL1        0.0270
     23 C          -0.9006    3.8100   17.2734 C.3     1  UNL1        0.0862
     24 N          -1.8792    3.8775   18.4081 N.3     1  UNL1       -0.2902
     25 H          -2.3867    2.9927   18.4123 H       1  UNL1        0.1237
     26 C           5.5863   -2.3060   25.6403 C.1     1  UNL1        0.1005
     27 N           6.4636   -2.7090   26.7883 N.1     1  UNL1       -0.1908
     28 C           2.5768   -1.6993   19.7577 C.3     1  UNL1        0.1245
     29 C           3.9275   -1.5340   19.1266 C.ar    1  UNL1       -0.0059
     30 C           4.7532   -2.7416   18.7952 C.ar    1  UNL1       -0.0242
     31 C           4.6442   -3.5269   18.8783 C.3     1  UNL1        0.0308
     32 C           6.1040   -2.5764   18.1641 C.ar    1  UNL1       -0.0045
     33 C           6.6289   -1.2036   17.8644 C.ar    1  UNL1       -0.0003
     34 C           5.8031    0.0041   18.1958 C.ar    1  UNL1       -0.0003
     35 C           6.3281    1.3769   17.8961 C.ar    1  UNL1       -0.0000
     36 C           5.5023    2.5844   18.2275 C.ar    1  UNL1       -0.0000
     37 C           4.1515    2.4192   18.8586 C.ar    1  UNL1       -0.0000
     38 C           3.6267    1.0464   19.1583 C.ar    1  UNL1       -0.0003
     39 C           4.4524   -0.1611   18.8269 C.ar    1  UNL1       -0.0027
@<TRIPOS>BOND
     1    23    24    1
     2    24    21    1
     3    21    22    1
     4    21    17    1
     5    17    18    2
     6    17    19   am
     7     1    19    1
     8     1     2    1
     9     2     3    2
    10     2     4   am
    11     4    28    1
    12    28    29    1
    13    29    30   ar
    14    30    31    1
    15    30    32   ar
    16    32    33   ar
    17    33    34   ar
    18    34    35   ar
    19    35    36   ar
    20    36    37   ar
    21    37    38   ar
    22    38    39   ar
    23     4     5    1
    24     5     6   ar
    25     6     7   ar
    26     7     8   ar
    27     8    26    1
    28    26    27    3
    29     8     9   ar
    30     9    10   ar
    31    10    11    1
    32    11    12   am
    33    12    13    1
    34    12    14    2
    35    11    15    1
    36    15    16    1
    37    15     1    1
    38    39    29   ar
    39    10     5   ar
    40    39    34   ar
    41    24    25    1
    42    19    20    1
@<TRIPOS>MOLECULE
*****
 39 42 0 0 0
SMALL
GASTEIGER

@<TRIPOS>ATOM
      1 C           3.9328   -0.5017   32.9510 C.3     1  UNL1        0.1678
      2 C           3.1469   -0.2646   31.6955 C.2     1  UNL1        0.2492
      3 O           3.3261   -1.2869   30.6127 O.2     1  UNL1       -0.2727
      4 N           2.2055    0.8597   31.3798 N.am    1  UNL1       -0.2518
      5 C           1.8174    2.0246   32.2415 C.ar    1  UNL1        0.0679
      6 C           0.8428    2.9240   31.5407 C.ar    1  UNL1        0.0169
      7 C           0.3257    4.1516   32.2302 C.ar    1  UNL1        0.0116
      8 C           0.7833    4.4799   33.6205 C.ar    1  UNL1        0.0698
      9 C           1.7579    3.5805   34.3213 C.ar    1  UNL1        0.0264
     10 C           2.2749    2.3528   33.6318 C.ar    1  UNL1        0.0682
     11 N           3.2336    1.5972   34.5037 N.am    1  UNL1       -0.2570
     12 C           3.4880    2.1906   35.8577 C.2     1  UNL1        0.2299
     13 C           2.7999    3.4609   36.2613 C.3     1  UNL1        0.0952
     14 O           4.4305    1.5136   36.8082 O.2     1  UNL1       -0.2745
     15 C           3.9714    0.3269   34.2008 C.3     1  UNL1        0.1066
     16 C           4.8661   -0.1822   35.2918 C.3     1  UNL1        0.0242
     17 C           6.1660   -1.6870   32.3527 C.2     1  UNL1        0.2371
     18 O           6.6768   -0.4160   31.7412 O.2     1  UNL1       -0.2737
     19 N           4.7940   -1.7298   32.9575 N.am    1  UNL1       -0.2959
     20 H           4.4588   -2.5640   33.3588 H       1  UNL1        0.1499
     21 C           7.0272   -2.9151   32.3592 C.3     1  UNL1        0.1316
     22 C           8.5214   -2.7832   32.3726 C.3     1  UNL1        0.0270
     23 C           6.9625   -5.3623   31.4893 C.3     1  UNL1        0.0862
     24 N           6.3943   -4.2750   32.3524 N.3     1  UNL1       -0.2902
     25 H           6.4213   -4.6171   33.3129 H       1  UNL1        0.1237
     26 C           0.2662    5.7076   34.3100 C.1     1  UNL1        0.1005
     27 N          -0.2509    6.9353   34.9994 N.1     1  UNL1       -0.1908
     28 C           1.5678    0.8130   30.0230 C.3     1  UNL1        0.1245
     29 C           2.0519    1.7249   28.9348 C.ar    1  UNL1       -0.0059
     30 C           3.5036    2.0942   28.8565 C.ar    1  UNL1       -0.0242
     31 C           4.1463    1.9096   29.2906 C.3     1  UNL1        0.0308
     32 C           3.9879    3.0061   27.7684 C.ar    1  UNL1       -0.0045
     33 C           3.0204    3.5486   26.7586 C.ar    1  UNL1       -0.0003
     34 C           1.5687    3.1793   26.8369 C.ar    1  UNL1       -0.0003
     35 C           0.6012    3.7218   25.8271 C.ar    1  UNL1       -0.0000
     36 C          -0.8505    3.3524   25.9055 C.ar    1  UNL1       -0.0000
     37 C          -1.3347    2.4405   26.9936 C.ar    1  UNL1       -0.0000
     38 C          -0.3672    1.8980   28.0034 C.ar    1  UNL1       -0.0003
     39 C           1.0844    2.2673   27.9250 C.ar    1  UNL1       -0.0027
@<TRIPOS>BOND
     1    23    24    1
     2    24    21    1
     3    21    22    1
     4    21    17    1
     5    17    18    2
     6    17    19   am
     7     1    19    1
     8     1     2    1
     9     2     3    2
    10     2     4   am
    11     4    28    1
    12    28    29    1
    13    29    30   ar
    14    30    31    1
    15    30    32   ar
    16    32    33   ar
    17    33    34   ar
    18    34    35   ar
    19    35    36   ar
    20    36    37   ar
    21    37    38   ar
    22    38    39   ar
    23     4     5    1
    24     5     6   ar
    25     6     7   ar
    26     7     8   ar
    27     8    26    1
    28    26    27    3
    29     8     9   ar
    30     9    10   ar
    31    10    11    1
    32    11    12   am
    33    12    13    1
    34    12    14    2
    35    11    15    1
    36    15    16    1
    37    15     1    1
    38    39    29   ar
    39    10     5   ar
    40    39    34   ar
    41    24    25    1
    42    19    20    1
@<TRIPOS>MOLECULE
*****
 39 42 0 0 0
SMALL
GASTEIGER

@<TRIPOS>ATOM
      1 C           2.4200    0.0060   24.3082 C.3     1  UNL1        0.1678
      2 C           2.3541   -0.3862   22.8618 C.2     1  UNL1        0.2492
      3 O           3.2195   -1.5440   22.4614 O.2     1  UNL1       -0.2727
      4 N           1.5372    0.2265   21.7631 N.am    1  UNL1       -0.2518
      5 C           0.5844    1.3825   21.8392 C.ar    1  UNL1        0.0679
      6 C          -0.0290    1.6761   20.5022 C.ar    1  UNL1        0.0169
      7 C          -1.0136    2.7986   20.3590 C.ar    1  UNL1        0.0116
      8 C          -1.3847    3.6276   21.5528 C.ar    1  UNL1        0.0698
      9 C          -0.7713    3.3340   22.8897 C.ar    1  UNL1        0.0264
     10 C           0.2133    2.2115   23.0329 C.ar    1  UNL1        0.0682
     11 N           0.7032    2.0891   24.4454 N.am    1  UNL1       -0.2570
     12 C           0.1361    3.0792   25.4190 C.2     1  UNL1        0.2299
     13 C          -0.8550    4.1049   24.9543 C.3     1  UNL1        0.0952
     14 O           0.5600    3.0437   26.8575 O.2     1  UNL1       -0.2745
     15 C           1.6853    1.1076   25.0130 C.3     1  UNL1        0.1066
     16 C           1.9703    1.2459   26.4791 C.3     1  UNL1        0.0242
     17 C           4.8071   -0.4903   25.2055 C.2     1  UNL1        0.2371
     18 O           5.3491    0.6487   24.3937 O.2     1  UNL1       -0.2737
     19 N           3.3426   -0.8116   25.1628 N.am    1  UNL1       -0.2959
     20 H           2.9869   -1.5592   25.6956 H       1  UNL1        0.1499
     21 C           5.7297   -1.3078   26.0601 C.3     1  UNL1        0.1316
     22 C           6.5876   -0.6373   27.0919 C.3     1  UNL1        0.0270
     23 C           6.1631   -3.3772   24.5503 C.3     1  UNL1        0.0862
     24 N           5.7945   -2.7959   25.8830 N.3     1  UNL1       -0.2902
     25 H           6.4789   -3.1429   26.5550 H       1  UNL1        0.1237
     26 C          -2.3693    4.7501   21.4095 C.1     1  UNL1        0.1005
     27 N          -3.3539    5.8726   21.2663 N.1     1  UNL1       -0.1908
     28 C           1.6937   -0.3998   20.4091 C.3     1  UNL1        0.1245
     29 C           3.0088   -0.3175   19.6921 C.ar    1  UNL1       -0.0059
     30 C           3.6135    1.0206   19.3859 C.ar    1  UNL1       -0.0242
     31 C           3.3899    1.7736   19.5218 C.3     1  UNL1        0.0308
     32 C           4.9285    1.1030   18.6689 C.ar    1  UNL1       -0.0045
     33 C           5.6387   -0.1528   18.2582 C.ar    1  UNL1       -0.0003
     34 C           5.0339   -1.4909   18.5643 C.ar    1  UNL1       -0.0003
     35 C           5.7441   -2.7467   18.1536 C.ar    1  UNL1       -0.0000
     36 C           5.1392   -4.0847   18.4598 C.ar    1  UNL1       -0.0000
     37 C           3.8242   -4.1671   19.1767 C.ar    1  UNL1       -0.0000
     38 C           3.1141   -2.9113   19.5875 C.ar    1  UNL1       -0.0003
     39 C           3.7189   -1.5733   19.2813 C.ar    1  UNL1       -0.0027
@<TRIPOS>BOND
     1    23    24    1
     2    24    21    1
     3    21    22    1
     4    21    17    1
     5    17    18    2
     6    17    19   am
     7     1    19    1
     8     1     2    1
     9     2     3    2
    10     2     4   am
    11     4    28    1
    12    28    29    1
    13    29    30   ar
    14    30    31    1
    15    30    32   ar
    16    32    33   ar
    17    33    34   ar
    18    34    35   ar
    19    35    36   ar
    20    36    37   ar
    21    37    38   ar
    22    38    39   ar
    23     4     5    1
    24     5     6   ar
    25     6     7   ar
    26     7     8   ar
    27     8    26    1
    28    26    27    3
    29     8     9   ar
    30     9    10   ar
    31    10    11    1
    32    11    12   am
    33    12    13    1
    34    12    14    2
    35    11    15    1
    36    15    16    1
    37    15     1    1
    38    39    29   ar
    39    10     5   ar
    40    39    34   ar
    41    24    25    1
    42    19    20    1
@<TRIPOS>MOLECULE
*****
 39 42 0 0 0
SMALL
GASTEIGER

@<TRIPOS>ATOM
      1 C           6.5094   -3.1330   27.1435 C.3     1  UNL1        0.1678
      2 C           6.6014   -3.6029   25.7219 C.2     1  UNL1        0.2492
      3 O           7.6080   -4.6830   25.4574 O.2     1  UNL1       -0.2727
      4 N           5.8198   -3.1355   24.5301 N.am    1  UNL1       -0.2518
      5 C           4.7533   -2.0828   24.4652 C.ar    1  UNL1        0.0679
      6 C           4.2249   -1.9232   23.0705 C.ar    1  UNL1        0.0169
      7 C           3.1480   -0.9182   22.7869 C.ar    1  UNL1        0.0116
      8 C           2.5996   -0.0729   23.8980 C.ar    1  UNL1        0.0698
      9 C           3.1280   -0.2325   25.2928 C.ar    1  UNL1        0.0264
     10 C           4.2048   -1.2374   25.5763 C.ar    1  UNL1        0.0682
     11 N           4.5875   -1.2361   27.0267 N.am    1  UNL1       -0.2570
     12 C           3.8466   -0.2623   27.8944 C.2     1  UNL1        0.2299
     13 C           2.7992    0.6294   27.2960 C.3     1  UNL1        0.0952
     14 O           4.1530   -0.1802   29.3605 O.2     1  UNL1       -0.2745
     15 C           5.6131   -2.0797   27.7242 C.3     1  UNL1        0.1066
     16 C           5.7622   -1.8380   29.1970 C.3     1  UNL1        0.0242
     17 C           7.0592   -5.1246   28.7187 C.2     1  UNL1        0.2371
     18 O           5.7554   -5.7715   28.3559 O.2     1  UNL1       -0.2737
     19 N           7.4362   -3.8054   28.1125 N.am    1  UNL1       -0.2959
     20 H           8.2919   -3.3808   28.3506 H       1  UNL1        0.1499
     21 C           7.9860   -5.7969   29.6877 C.3     1  UNL1        0.1316
     22 C           7.6731   -5.7873   31.1547 C.3     1  UNL1        0.0270
     23 C           9.2474   -7.0887   27.8194 C.3     1  UNL1        0.0862
     24 N           9.2258   -6.4789   29.1897 N.3     1  UNL1       -0.2902
     25 H           9.9736   -5.7857   29.2154 H       1  UNL1        0.1237
     26 C           1.5227    0.9321   23.6144 C.1     1  UNL1        0.1005
     27 N           0.4458    1.9370   23.3308 N.1     1  UNL1       -0.1908
     28 C           6.1483   -3.8100   23.2311 C.3     1  UNL1        0.1245
     29 C           6.9095   -3.0685   22.1724 C.ar    1  UNL1       -0.0059
     30 C           8.1758   -2.3465   22.5260 C.ar    1  UNL1       -0.0242
     31 C           8.5868   -2.2478   23.2018 C.3     1  UNL1        0.0308
     32 C           8.9370   -1.6050   21.4673 C.ar    1  UNL1       -0.0045
     33 C           8.4318   -1.5856   20.0550 C.ar    1  UNL1       -0.0003
     34 C           7.1654   -2.3077   19.7014 C.ar    1  UNL1       -0.0003
     35 C           6.6603   -2.2883   18.2892 C.ar    1  UNL1       -0.0000
     36 C           5.3940   -3.0104   17.9357 C.ar    1  UNL1       -0.0000
     37 C           4.6327   -3.7519   18.9944 C.ar    1  UNL1       -0.0000
     38 C           5.1380   -3.7712   20.4066 C.ar    1  UNL1       -0.0003
     39 C           6.4042   -3.0492   20.7601 C.ar    1  UNL1       -0.0027
@<TRIPOS>BOND
     1    23    24    1
     2    24    21    1
     3    21    22    1
     4    21    17    1
     5    17    18    2
     6    17    19   am
     7     1    19    1
     8     1     2    1
     9     2     3    2
    10     2     4   am
    11     4    28    1
    12    28    29    1
    13    29    30   ar
    14    30    31    1
    15    30    32   ar
    16    32    33   ar
    17    33    34   ar
    18    34    35   ar
    19    35    36   ar
    20    36    37   ar
    21    37    38   ar
    22    38    39   ar
    23     4     5    1
    24     5     6   ar
    25     6     7   ar
    26     7     8   ar
    27     8    26    1
    28    26    27    3
    29     8     9   ar
    30     9    10   ar
    31    10    11    1
    32    11    12   am
    33    12    13    1
    34    12    14    2
    35    11    15    1
    36    15    16    1
    37    15     1    1
    38    39    29   ar
    39    10     5   ar
    40    39    34   ar
    41    24    25    1
    42    19    20    1
@<TRIPOS>MOLECULE
*****
 39 42 0 0 0
SMALL
GASTEIGER

@<TRIPOS>ATOM
      1 C           1.2133    1.0354   23.0861 C.3     1  UNL1        0.1678
      2 C           1.5786    0.3978   21.7784 C.2     1  UNL1        0.2492
      3 O           2.3468   -0.8870   21.8730 O.2     1  UNL1       -0.2727
      4 N           1.2772    0.8752   20.3888 N.am    1  UNL1       -0.2518
      5 C           0.5362    2.1080   19.9634 C.ar    1  UNL1        0.0679
      6 C           0.4568    2.2115   18.4691 C.ar    1  UNL1        0.0169
      7 C          -0.2454    3.3751   17.8342 C.ar    1  UNL1        0.0116
      8 C          -0.8682    4.4351   18.6936 C.ar    1  UNL1        0.0698
      9 C          -0.7888    4.3316   20.1879 C.ar    1  UNL1        0.0264
     10 C          -0.0866    3.1680   20.8228 C.ar    1  UNL1        0.0682
     11 N          -0.1221    3.2569   22.3198 N.am    1  UNL1       -0.2570
     12 C          -0.8296    4.4531   22.8841 C.2     1  UNL1        0.2299
     13 C          -1.4444    5.4647   21.9627 C.3     1  UNL1        0.0952
     14 O          -0.9225    4.6379   24.3698 O.2     1  UNL1       -0.2745
     15 C           0.4564    2.3079   23.3271 C.3     1  UNL1        0.1066
     16 C           0.2508    2.6805   24.7654 C.3     1  UNL1        0.0242
     17 C           3.0602    0.4937   24.8313 C.2     1  UNL1        0.2371
     18 O           4.0046    1.4151   24.1178 O.2     1  UNL1       -0.2737
     19 N           1.6645    0.3039   24.3154 N.am    1  UNL1       -0.2959
     20 H           1.0447   -0.3009   24.7837 H       1  UNL1        0.1499
     21 C           3.5114   -0.2379   26.0606 C.3     1  UNL1        0.1316
     22 C           3.4622    0.4406   27.3975 C.3     1  UNL1        0.0270
     23 C           5.4496   -1.9096   25.6150 C.3     1  UNL1        0.0862
     24 N           4.0118   -1.6478   25.9530 N.3     1  UNL1       -0.2902
     25 H           3.8354   -2.0924   26.8539 H       1  UNL1        0.1237
     26 C          -1.5703    5.5987   18.0587 C.1     1  UNL1        0.1005
     27 N          -2.2725    6.7622   17.4238 N.1     1  UNL1       -0.1908
     28 C           1.7840    0.0045   19.2773 C.3     1  UNL1        0.1245
     29 C           3.2600   -0.1522   19.0608 C.ar    1  UNL1       -0.0059
     30 C           4.1221    1.0596   18.8656 C.ar    1  UNL1       -0.0242
     31 C           3.9793    1.8436   18.8461 C.3     1  UNL1        0.0308
     32 C           5.5982    0.9030   18.6491 C.ar    1  UNL1       -0.0045
     33 C           6.2120   -0.4655   18.6276 C.ar    1  UNL1       -0.0003
     34 C           5.3497   -1.6774   18.8228 C.ar    1  UNL1       -0.0003
     35 C           5.9635   -3.0459   18.8013 C.ar    1  UNL1       -0.0000
     36 C           5.1013   -4.2577   18.9965 C.ar    1  UNL1       -0.0000
     37 C           3.6253   -4.1010   19.2131 C.ar    1  UNL1       -0.0000
     38 C           3.0116   -2.7325   19.2345 C.ar    1  UNL1       -0.0003
     39 C           3.8737   -1.5207   19.0394 C.ar    1  UNL1       -0.0027
@<TRIPOS>BOND
     1    23    24    1
     2    24    21    1
     3    21    22    1
     4    21    17    1
     5    17    18    2
     6    17    19   am
     7     1    19    1
     8     1     2    1
     9     2     3    2
    10     2     4   am
    11     4    28    1
    12    28    29    1
    13    29    30   ar
    14    30    31    1
    15    30    32   ar
    16    32    33   ar
    17    33    34   ar
    18    34    35   ar
    19    35    36   ar
    20    36    37   ar
    21    37    38   ar
    22    38    39   ar
    23     4     5    1
    24     5     6   ar
    25     6     7   ar
    26     7     8   ar
    27     8    26    1
    28    26    27    3
    29     8     9   ar
    30     9    10   ar
    31    10    11    1
    32    11    12   am
    33    12    13    1
    34    12    14    2
    35    11    15    1
    36    15    16    1
    37    15     1    1
    38    39    29   ar
    39    10     5   ar
    40    39    34   ar
    41    24    25    1
    42    19    20    1
