@<TRIPOS>MOLECULE
*****
 42 46 0 0 0
SMALL
GASTEIGER

@<TRIPOS>ATOM
      1 N          -8.2521  -20.9883   19.7286 N.am    1  UNL1       -0.2902
      2 C          -7.2328  -19.9769   20.1619 C.2     1  UNL1        0.3044
      3 O          -7.2383  -18.6021   19.5620 O.2     1  UNL1       -0.2525
      4 N          -6.2079  -20.3401   21.1952 N.am    1  UNL1       -0.2683
      5 H          -8.2485  -21.8907   20.1224 H       1  UNL1        0.1509
      6 H          -6.2042  -21.2425   21.5889 H       1  UNL1        0.1564
      7 C          -5.1885  -19.3287   21.6285 C.ar    1  UNL1        0.0517
      8 C          -3.8591  -19.2599   20.9369 C.ar    1  UNL1        0.0163
      9 C          -2.8398  -18.2484   21.3702 C.ar    1  UNL1        0.0222
     10 C          -3.1497  -17.3057   22.4950 C.ar    1  UNL1        0.0033
     11 C          -4.4790  -17.3744   23.1866 C.ar    1  UNL1        0.0222
     12 C          -5.4984  -18.3860   22.7533 C.ar    1  UNL1        0.0163
     13 C          -1.5105  -18.1796   20.6787 C.ar    1  UNL1        0.1232
     14 C          -0.6892  -16.9422   20.4680 C.ar    1  UNL1        0.0658
     15 C           0.5598  -17.3340   19.7355 C.ar    1  UNL1        0.2138
     16 O           0.5105  -18.8136   19.4934 O.2     1  UNL1       -0.3502
     17 N          -0.7691  -19.3362   20.0764 N.ar    1  UNL1       -0.0768
     18 C          -4.7889  -16.4317   24.3114 C.ar    1  UNL1        0.1232
     19 C          -4.7198  -16.7526   25.7751 C.ar    1  UNL1        0.0658
     20 C          -5.1106  -15.5217   26.5383 C.ar    1  UNL1        0.2138
     21 O          -5.4211  -14.4403   25.5464 O.2     1  UNL1       -0.3502
     22 N          -5.2223  -15.0027   24.1701 N.ar    1  UNL1       -0.0768
     23 C          -8.9939  -20.8635   17.2418 C.3     1  UNL1        0.0214
     24 C          -9.2770  -20.6250   18.6954 C.3     1  UNL1        0.0770
     25 C         -10.5852  -20.0233   19.1158 C.3     1  UNL1        0.0661
     26 C         -10.6164  -18.6637   19.7487 C.3     1  UNL1        0.1738
     27 O         -10.0958  -17.4745   18.9972 O.3     1  UNL1       -0.3697
     28 H         -10.1888  -16.6796   19.5453 H       1  UNL1        0.2119
     29 N         -11.1684  -18.4933   21.1330 N.3     1  UNL1       -0.2511
     30 C         -12.6036  -18.1022   21.3253 C.3     1  UNL1        0.0742
     31 C         -13.1555  -17.9318   22.7096 C.3     1  UNL1        0.0175
     32 C         -12.2721  -18.1526   23.9017 C.3     1  UNL1        0.0031
     33 C         -10.8369  -18.5437   23.7094 C.3     1  UNL1        0.0205
     34 C         -10.2850  -18.7141   22.3250 C.3     1  UNL1        0.0745
     35 C          -9.9535  -18.7644   24.9014 C.3     1  UNL1        0.0277
     36 C          -9.3973  -17.5900   25.6505 C.ar    1  UNL1       -0.0220
     37 C          -9.1853  -16.2829   24.9456 C.ar    1  UNL1       -0.0020
     38 C          -8.6291  -15.1084   25.6947 C.ar    1  UNL1        0.0293
     39 C          -8.2849  -15.2409   27.1486 C.ar    1  UNL1        0.1401
     40 F          -7.7286  -14.0663   27.8977 F       1  UNL1       -0.2042
     41 C          -8.4968  -16.5479   27.8535 C.ar    1  UNL1        0.0293
     42 C          -9.0531  -17.7224   27.1044 C.ar    1  UNL1       -0.0020
@<TRIPOS>BOND
     1    24    23    1
     2    24    25    1
     3    25    26    1
     4    26    27    1
     5    26    29    1
     6    29    30    1
     7    30    31    1
     8    31    32    1
     9    32    33    1
    10    33    35    1
    11    35    36    1
    12    36    37   ar
    13    37    38   ar
    14    38    39   ar
    15    39    40    1
    16    39    41   ar
    17    41    42   ar
    18    33    34    1
    19    24     1    1
    20     1     2   am
    21     2     3    2
    22     2     4   am
    23     4     7    1
    24     7     8   ar
    25     8     9   ar
    26     9    13    1
    27    13    14   ar
    28    14    15   ar
    29    15    16   ar
    30    16    17   ar
    31     9    10   ar
    32    10    11   ar
    33    11    18    1
    34    18    19   ar
    35    19    20   ar
    36    20    21   ar
    37    21    22   ar
    38    11    12   ar
    39    34    29    1
    40    12     7   ar
    41    42    36   ar
    42    17    13   ar
    43    22    18   ar
    44    27    28    1
    45     1     5    1
    46     4     6    1
@<TRIPOS>MOLECULE
*****
 42 46 0 0 0
SMALL
GASTEIGER

@<TRIPOS>ATOM
      1 N          -8.2514  -20.9963   19.7225 N.am    1  UNL1       -0.2902
      2 C          -7.2342  -19.9826   20.1560 C.2     1  UNL1        0.3044
      3 O          -7.2415  -18.6085   19.5548 O.2     1  UNL1       -0.2525
      4 N          -6.2099  -20.3432   21.1907 N.am    1  UNL1       -0.2683
      5 H          -8.2466  -21.8982   20.1171 H       1  UNL1        0.1509
      6 H          -6.2051  -21.2451   21.5854 H       1  UNL1        0.1564
      7 C          -5.1927  -19.3296   21.6242 C.ar    1  UNL1        0.0517
      8 C          -5.5077  -18.3825   22.7441 C.ar    1  UNL1        0.0163
      9 C          -4.4906  -17.3689   23.1776 C.ar    1  UNL1        0.0222
     10 C          -3.1585  -17.3023   22.4913 C.ar    1  UNL1        0.0033
     11 C          -2.8435  -18.2492   21.3715 C.ar    1  UNL1        0.0222
     12 C          -3.8606  -19.2629   20.9380 C.ar    1  UNL1        0.0163
     13 C          -4.8056  -16.4219   24.2974 C.ar    1  UNL1        0.1232
     14 C          -4.7147  -16.7282   25.7630 C.ar    1  UNL1        0.0658
     15 C          -5.1197  -15.4979   26.5196 C.ar    1  UNL1        0.2138
     16 O          -5.4610  -14.4313   25.5217 O.2     1  UNL1       -0.3502
     17 N          -5.2669  -15.0024   24.1482 N.ar    1  UNL1       -0.0768
     18 C          -1.5113  -18.1826   20.6853 C.ar    1  UNL1        0.1232
     19 C          -0.6832  -16.9479   20.4854 C.ar    1  UNL1        0.0658
     20 C           0.5665  -17.3412   19.7550 C.ar    1  UNL1        0.2138
     21 O           0.5108  -18.8189   19.5034 O.2     1  UNL1       -0.3502
     22 N          -0.7733  -19.3389   20.0783 N.ar    1  UNL1       -0.0768
     23 C          -8.9955  -20.8865   17.2357 C.3     1  UNL1        0.0214
     24 C          -9.2757  -20.6357   18.6878 C.3     1  UNL1        0.0770
     25 C         -10.5804  -20.0244   19.1052 C.3     1  UNL1        0.0661
     26 C         -10.6023  -18.6686   19.7465 C.3     1  UNL1        0.1738
     27 O         -10.0657  -17.4798   19.0057 O.3     1  UNL1       -0.3697
     28 H         -10.1543  -16.6875   19.5582 H       1  UNL1        0.2119
     29 N         -11.1607  -18.5016   21.1286 N.3     1  UNL1       -0.2511
     30 C         -12.5983  -18.1162   21.3152 C.3     1  UNL1        0.0742
     31 C         -13.1566  -17.9492   22.6973 C.3     1  UNL1        0.0175
     32 C         -12.2774  -18.1675   23.8929 C.3     1  UNL1        0.0031
     33 C         -10.8399  -18.5529   23.7063 C.3     1  UNL1        0.0205
     34 C         -10.2815  -18.7199   22.3242 C.3     1  UNL1        0.0745
     35 C          -9.9607  -18.7713   24.9018 C.3     1  UNL1        0.0277
     36 C          -9.4060  -17.5953   25.6497 C.ar    1  UNL1       -0.0220
     37 C          -9.1991  -16.2877   24.9444 C.ar    1  UNL1       -0.0020
     38 C          -8.6444  -15.1117   25.6922 C.ar    1  UNL1        0.0293
     39 C          -8.2965  -15.2432   27.1454 C.ar    1  UNL1        0.1401
     40 F          -7.7418  -14.0671   27.8933 F       1  UNL1       -0.2042
     41 C          -8.5034  -16.5507   27.8507 C.ar    1  UNL1        0.0293
     42 C          -9.0581  -17.7268   27.1029 C.ar    1  UNL1       -0.0020
@<TRIPOS>BOND
     1    24    23    1
     2    24    25    1
     3    25    26    1
     4    26    27    1
     5    26    29    1
     6    29    30    1
     7    30    31    1
     8    31    32    1
     9    32    33    1
    10    33    35    1
    11    35    36    1
    12    36    37   ar
    13    37    38   ar
    14    38    39   ar
    15    39    40    1
    16    39    41   ar
    17    41    42   ar
    18    33    34    1
    19    24     1    1
    20     1     2   am
    21     2     3    2
    22     2     4   am
    23     4     7    1
    24     7     8   ar
    25     8     9   ar
    26     9    13    1
    27    13    14   ar
    28    14    15   ar
    29    15    16   ar
    30    16    17   ar
    31     9    10   ar
    32    10    11   ar
    33    11    18    1
    34    18    19   ar
    35    19    20   ar
    36    20    21   ar
    37    21    22   ar
    38    11    12   ar
    39    34    29    1
    40    12     7   ar
    41    42    36   ar
    42    17    13   ar
    43    22    18   ar
    44    27    28    1
    45     1     5    1
    46     4     6    1
@<TRIPOS>MOLECULE
*****
 42 46 0 0 0
SMALL
GASTEIGER

@<TRIPOS>ATOM
      1 N           6.8018   -5.1234   31.9122 N.am    1  UNL1       -0.2902
      2 C           6.2764   -3.7232   32.0280 C.2     1  UNL1        0.3044
      3 O           6.9134   -2.6157   31.2422 O.2     1  UNL1       -0.2525
      4 N           5.1139   -3.4306   32.9297 N.am    1  UNL1       -0.2683
      5 H           6.3837   -5.8503   32.4279 H       1  UNL1        0.1509
      6 H           4.6957   -4.1575   33.4454 H       1  UNL1        0.1564
      7 C           4.5884   -2.0304   33.0455 C.ar    1  UNL1        0.0517
      8 C           3.7809   -1.4376   31.9290 C.ar    1  UNL1        0.0163
      9 C           3.2555   -0.0375   32.0448 C.ar    1  UNL1        0.0222
     10 C           3.5375    0.7699   33.2771 C.ar    1  UNL1        0.0033
     11 C           4.3450    0.1772   34.3936 C.ar    1  UNL1        0.0222
     12 C           4.8705   -1.2231   34.2778 C.ar    1  UNL1        0.0163
     13 C           2.4480    0.5553   30.9283 C.ar    1  UNL1        0.1232
     14 C           2.5397    1.9659   30.4263 C.ar    1  UNL1        0.0658
     15 C           1.5554    2.1240   29.3055 C.ar    1  UNL1        0.2138
     16 O           0.8554    0.8111   29.1147 O.2     1  UNL1       -0.3502
     17 N           1.4070   -0.1584   30.1177 N.ar    1  UNL1       -0.0768
     18 C           4.6270    0.9845   35.6259 C.ar    1  UNL1        0.1232
     19 C           4.7184    0.4538   37.0259 C.ar    1  UNL1        0.0658
     20 C           5.0151    1.6057   37.9398 C.ar    1  UNL1        0.2138
     21 O           5.1070    2.8483   37.1047 O.2     1  UNL1       -0.3502
     22 N           4.8671    2.4644   35.6746 N.ar    1  UNL1       -0.0768
     23 C           9.3496   -5.0091   31.4169 C.3     1  UNL1        0.0214
     24 C           7.9643   -5.4160   31.0105 C.3     1  UNL1        0.0770
     25 C           7.7414   -6.1157   29.7025 C.3     1  UNL1        0.0661
     26 C           7.1960   -5.3566   28.5293 C.3     1  UNL1        0.1738
     27 O           6.3582   -4.1324   28.7519 O.3     1  UNL1       -0.3697
     28 H           6.0886   -3.7651   27.8956 H       1  UNL1        0.2119
     29 N           7.4884   -5.8217   27.1335 N.3     1  UNL1       -0.2511
     30 C           7.6418   -7.2861   26.8476 C.3     1  UNL1        0.0742
     31 C           7.9342   -7.7511   25.4518 C.3     1  UNL1        0.0175
     32 C           8.0732   -6.7517   24.3420 C.3     1  UNL1        0.0031
     33 C           7.9199   -5.2872   24.6279 C.3     1  UNL1        0.0205
     34 C           7.6275   -4.8222   26.0237 C.3     1  UNL1        0.0745
     35 C           8.0589   -4.2878   23.5180 C.3     1  UNL1        0.0277
     36 C           6.9096   -4.0351   22.5880 C.ar    1  UNL1       -0.0220
     37 C           7.1209   -4.0848   21.1037 C.ar    1  UNL1       -0.0020
     38 C           5.9715   -3.8321   20.1736 C.ar    1  UNL1        0.0293
     39 C           4.6108   -3.5296   20.7277 C.ar    1  UNL1        0.1401
     40 F           3.4614   -3.2769   19.7976 F       1  UNL1       -0.2042
     41 C           4.3995   -3.4799   22.2119 C.ar    1  UNL1        0.0293
     42 C           5.5489   -3.7326   23.1421 C.ar    1  UNL1       -0.0020
@<TRIPOS>BOND
     1    24    23    1
     2    24    25    1
     3    25    26    1
     4    26    27    1
     5    26    29    1
     6    29    30    1
     7    30    31    1
     8    31    32    1
     9    32    33    1
    10    33    35    1
    11    35    36    1
    12    36    37   ar
    13    37    38   ar
    14    38    39   ar
    15    39    40    1
    16    39    41   ar
    17    41    42   ar
    18    33    34    1
    19    24     1    1
    20     1     2   am
    21     2     3    2
    22     2     4   am
    23     4     7    1
    24     7     8   ar
    25     8     9   ar
    26     9    13    1
    27    13    14   ar
    28    14    15   ar
    29    15    16   ar
    30    16    17   ar
    31     9    10   ar
    32    10    11   ar
    33    11    18    1
    34    18    19   ar
    35    19    20   ar
    36    20    21   ar
    37    21    22   ar
    38    11    12   ar
    39    34    29    1
    40    12     7   ar
    41    42    36   ar
    42    17    13   ar
    43    22    18   ar
    44    27    28    1
    45     1     5    1
    46     4     6    1
@<TRIPOS>MOLECULE
*****
 42 46 0 0 0
SMALL
GASTEIGER

@<TRIPOS>ATOM
      1 N           6.8980   -5.1818   31.8616 N.am    1  UNL1       -0.2902
      2 C           6.3643   -3.7856   31.9871 C.2     1  UNL1        0.3044
      3 O           6.9830   -2.6723   31.1949 O.2     1  UNL1       -0.2525
      4 N           5.2120   -3.5028   32.9048 N.am    1  UNL1       -0.2683
      5 H           6.4919   -5.9126   32.3816 H       1  UNL1        0.1509
      6 H           4.8060   -4.2335   33.4247 H       1  UNL1        0.1564
      7 C           4.6784   -2.1066   33.0302 C.ar    1  UNL1        0.0517
      8 C           4.8978   -1.3306   34.2951 C.ar    1  UNL1        0.0163
      9 C           4.3642    0.0656   34.4205 C.ar    1  UNL1        0.0222
     10 C           3.6110    0.6859   33.2812 C.ar    1  UNL1        0.0033
     11 C           3.3915   -0.0900   32.0164 C.ar    1  UNL1        0.0222
     12 C           3.9252   -1.4863   31.8909 C.ar    1  UNL1        0.0163
     13 C           4.5837    0.8416   35.6853 C.ar    1  UNL1        0.1232
     14 C           5.1058    2.2447   35.7796 C.ar    1  UNL1        0.0658
     15 C           5.1644    2.6210   37.2304 C.ar    1  UNL1        0.2138
     16 O           4.6786    1.4504   38.0329 O.2     1  UNL1       -0.3502
     17 N           4.3197    0.3507   37.0779 N.ar    1  UNL1       -0.0768
     18 C           2.6384    0.5302   30.8771 C.ar    1  UNL1        0.1232
     19 C           3.0538    1.7467   30.1040 C.ar    1  UNL1        0.0658
     20 C           2.0097    2.0112   29.0600 C.ar    1  UNL1        0.2138
     21 O           0.9490    0.9582   29.1878 O.2     1  UNL1       -0.3502
     22 N           1.3376    0.0430   30.3109 N.ar    1  UNL1       -0.0768
     23 C           9.4372   -5.0429   31.3295 C.3     1  UNL1        0.0214
     24 C           8.0503   -5.4647   30.9439 C.3     1  UNL1        0.0770
     25 C           7.8157   -6.1694   29.6406 C.3     1  UNL1        0.0661
     26 C           7.1758   -5.4388   28.4976 C.3     1  UNL1        0.1738
     27 O           6.2467   -4.2922   28.7664 O.3     1  UNL1       -0.3697
     28 H           5.9229   -3.9343   27.9250 H       1  UNL1        0.2119
     29 N           7.4649   -5.8547   27.0856 N.3     1  UNL1       -0.2511
     30 C           7.6300   -7.3074   26.7506 C.3     1  UNL1        0.0742
     31 C           7.9190   -7.7233   25.3387 C.3     1  UNL1        0.0175
     32 C           8.0430   -6.6864   24.2619 C.3     1  UNL1        0.0031
     33 C           7.8779   -5.2337   24.5969 C.3     1  UNL1        0.0205
     34 C           7.5889   -4.8179   26.0088 C.3     1  UNL1        0.0745
     35 C           8.0019   -4.1969   23.5201 C.3     1  UNL1        0.0277
     36 C           6.8683   -3.9683   22.5649 C.ar    1  UNL1       -0.0220
     37 C           7.1050   -4.0526   21.0860 C.ar    1  UNL1       -0.0020
     38 C           5.9713   -3.8241   20.1308 C.ar    1  UNL1        0.0293
     39 C           4.6009   -3.5113   20.6543 C.ar    1  UNL1        0.1401
     40 F           3.4672   -3.2828   19.6990 F       1  UNL1       -0.2042
     41 C           4.3641   -3.4270   22.1331 C.ar    1  UNL1        0.0293
     42 C           5.4978   -3.6556   23.0884 C.ar    1  UNL1       -0.0020
@<TRIPOS>BOND
     1    24    23    1
     2    24    25    1
     3    25    26    1
     4    26    27    1
     5    26    29    1
     6    29    30    1
     7    30    31    1
     8    31    32    1
     9    32    33    1
    10    33    35    1
    11    35    36    1
    12    36    37   ar
    13    37    38   ar
    14    38    39   ar
    15    39    40    1
    16    39    41   ar
    17    41    42   ar
    18    33    34    1
    19    24     1    1
    20     1     2   am
    21     2     3    2
    22     2     4   am
    23     4     7    1
    24     7     8   ar
    25     8     9   ar
    26     9    13    1
    27    13    14   ar
    28    14    15   ar
    29    15    16   ar
    30    16    17   ar
    31     9    10   ar
    32    10    11   ar
    33    11    18    1
    34    18    19   ar
    35    19    20   ar
    36    20    21   ar
    37    21    22   ar
    38    11    12   ar
    39    34    29    1
    40    12     7   ar
    41    42    36   ar
    42    17    13   ar
    43    22    18   ar
    44    27    28    1
    45     1     5    1
    46     4     6    1
@<TRIPOS>MOLECULE
*****
 42 46 0 0 0
SMALL
GASTEIGER

@<TRIPOS>ATOM
      1 N          -4.3720    2.9638   20.8512 N.am    1  UNL1       -0.2902
      2 C          -4.9516    3.9136   21.8571 C.2     1  UNL1        0.3044
      3 O          -4.8662    5.3934   21.6275 O.2     1  UNL1       -0.2525
      4 N          -5.6168    3.3835   23.0927 N.am    1  UNL1       -0.2683
      5 H          -4.4281    1.9926   21.0019 H       1  UNL1        0.1509
      6 H          -5.6728    2.4122   23.2434 H       1  UNL1        0.1564
      7 C          -6.1964    4.3332   24.0986 C.ar    1  UNL1        0.0517
      8 C          -7.6298    4.7612   23.9870 C.ar    1  UNL1        0.0163
      9 C          -8.2094    5.7109   24.9930 C.ar    1  UNL1        0.0222
     10 C          -7.3558    6.2328   26.1105 C.ar    1  UNL1        0.0033
     11 C          -5.9225    5.8049   26.2222 C.ar    1  UNL1        0.0222
     12 C          -5.3427    4.8551   25.2162 C.ar    1  UNL1        0.0163
     13 C          -9.6427    6.1388   24.8813 C.ar    1  UNL1        0.1232
     14 C         -10.1290    7.5359   24.6328 C.ar    1  UNL1        0.0658
     15 C         -11.6282    7.5054   24.5965 C.ar    1  UNL1        0.2138
     16 O         -12.0686    6.0894   24.8226 O.2     1  UNL1       -0.3502
     17 N         -10.8415    5.2448   24.9987 N.ar    1  UNL1       -0.0768
     18 C          -5.0688    6.3267   27.3397 C.ar    1  UNL1        0.1232
     19 C          -3.5694    6.3176   27.3821 C.ar    1  UNL1        0.0658
     20 C          -3.1386    6.9345   28.6797 C.ar    1  UNL1        0.2138
     21 O          -4.3717    7.3250   29.4393 O.2     1  UNL1       -0.3502
     22 N          -5.5646    6.9493   28.6112 N.ar    1  UNL1       -0.0768
     23 C          -4.5223    3.7833   18.3903 C.3     1  UNL1        0.0214
     24 C          -3.7069    3.4939   19.6156 C.3     1  UNL1        0.0770
     25 C          -2.2263    3.7347   19.6054 C.3     1  UNL1        0.0661
     26 C          -1.3294    2.9294   20.4981 C.3     1  UNL1        0.1738
     27 O          -1.6317    2.8198   21.9632 O.3     1  UNL1       -0.3697
     28 H          -0.9590    2.2678   22.3918 H       1  UNL1        0.2119
     29 N          -0.1299    2.2338   19.9257 N.3     1  UNL1       -0.2511
     30 C           0.6728    2.8916   18.8428 C.3     1  UNL1        0.0742
     31 C           1.8721    2.1960   18.2704 C.3     1  UNL1        0.0175
     32 C           2.2688    0.8425   18.7811 C.3     1  UNL1        0.0031
     33 C           1.4661    0.1847   19.8641 C.3     1  UNL1        0.0205
     34 C           0.2668    0.8803   20.4364 C.3     1  UNL1        0.0745
     35 C           1.8628   -1.1688   20.3748 C.3     1  UNL1        0.0277
     36 C           3.2599   -1.6711   20.1612 C.ar    1  UNL1       -0.0220
     37 C           4.3749   -1.1824   21.0375 C.ar    1  UNL1       -0.0020
     38 C           5.7720   -1.6847   20.8239 C.ar    1  UNL1        0.0293
     39 C           6.0542   -2.6758   19.7339 C.ar    1  UNL1        0.1401
     40 F           7.4514   -3.1782   19.5203 F       1  UNL1       -0.2042
     41 C           4.9393   -3.1646   18.8576 C.ar    1  UNL1        0.0293
     42 C           3.5421   -2.6622   19.0712 C.ar    1  UNL1       -0.0020
@<TRIPOS>BOND
     1    24    23    1
     2    24    25    1
     3    25    26    1
     4    26    27    1
     5    26    29    1
     6    29    30    1
     7    30    31    1
     8    31    32    1
     9    32    33    1
    10    33    35    1
    11    35    36    1
    12    36    37   ar
    13    37    38   ar
    14    38    39   ar
    15    39    40    1
    16    39    41   ar
    17    41    42   ar
    18    33    34    1
    19    24     1    1
    20     1     2   am
    21     2     3    2
    22     2     4   am
    23     4     7    1
    24     7     8   ar
    25     8     9   ar
    26     9    13    1
    27    13    14   ar
    28    14    15   ar
    29    15    16   ar
    30    16    17   ar
    31     9    10   ar
    32    10    11   ar
    33    11    18    1
    34    18    19   ar
    35    19    20   ar
    36    20    21   ar
    37    21    22   ar
    38    11    12   ar
    39    34    29    1
    40    12     7   ar
    41    42    36   ar
    42    17    13   ar
    43    22    18   ar
    44    27    28    1
    45     1     5    1
    46     4     6    1
@<TRIPOS>MOLECULE
*****
 42 46 0 0 0
SMALL
GASTEIGER

@<TRIPOS>ATOM
      1 N           1.0120    3.0749   20.2890 N.am    1  UNL1       -0.2902
      2 C           0.1444    2.8412   21.4900 C.2     1  UNL1        0.3044
      3 O          -1.2290    2.2620   21.3218 O.2     1  UNL1       -0.2525
      4 N           0.6502    3.1866   22.8593 N.am    1  UNL1       -0.2683
      5 H           1.9135    3.4551   20.3994 H       1  UNL1        0.1509
      6 H           1.5516    3.5668   22.9697 H       1  UNL1        0.1564
      7 C          -0.2175    2.9529   24.0603 C.ar    1  UNL1        0.0517
      8 C          -1.5796    3.5769   24.1345 C.ar    1  UNL1        0.0163
      9 C          -2.4472    3.3431   25.3355 C.ar    1  UNL1        0.0222
     10 C          -1.9528    2.4854   26.4624 C.ar    1  UNL1        0.0033
     11 C          -0.5908    1.8615   26.3883 C.ar    1  UNL1        0.0222
     12 C           0.2769    2.0952   25.1872 C.ar    1  UNL1        0.0163
     13 C          -3.8092    3.9671   25.4097 C.ar    1  UNL1        0.1232
     14 C          -4.7853    4.0906   24.2773 C.ar    1  UNL1        0.0658
     15 C          -6.0137    4.7770   24.7969 C.ar    1  UNL1        0.2138
     16 O          -5.7969    5.0776   26.2504 O.2     1  UNL1       -0.3502
     17 N          -4.4344    4.5771   26.6291 N.ar    1  UNL1       -0.0768
     18 C          -0.0964    1.0038   27.5152 C.ar    1  UNL1        0.1232
     19 C           1.3400    0.7383   27.8566 C.ar    1  UNL1        0.0658
     20 C           1.3725   -0.1686   29.0510 C.ar    1  UNL1        0.2138
     21 O          -0.0437   -0.4636   29.4478 O.2     1  UNL1       -0.3502
     22 N          -0.9515    0.2610   28.4986 N.ar    1  UNL1       -0.0768
     23 C          -0.4037    3.6766   18.1953 C.3     1  UNL1        0.0214
     24 C           0.5063    2.7295   18.9197 C.3     1  UNL1        0.0770
     25 C           0.9106    1.4369   18.2749 C.3     1  UNL1        0.0661
     26 C           1.2188    0.2394   19.1240 C.3     1  UNL1        0.1738
     27 O           0.2867   -0.1549   20.2311 O.3     1  UNL1       -0.3697
     28 H           0.6308   -0.9442   20.6778 H       1  UNL1        0.2119
     29 N           2.4590   -0.5639   18.8659 N.3     1  UNL1       -0.2511
     30 C           3.3772   -0.1857   17.7417 C.3     1  UNL1        0.0742
     31 C           4.6174   -0.9889   17.4837 C.3     1  UNL1        0.0175
     32 C           4.9394   -2.1705   18.3498 C.3     1  UNL1        0.0031
     33 C           4.0212   -2.5488   19.4740 C.3     1  UNL1        0.0205
     34 C           2.7810   -1.7455   19.7320 C.3     1  UNL1        0.0745
     35 C           4.3432   -3.7304   20.3402 C.3     1  UNL1        0.0277
     36 C           5.1188   -3.5403   21.6099 C.ar    1  UNL1       -0.0220
     37 C           6.5696   -3.9172   21.6662 C.ar    1  UNL1       -0.0020
     38 C           7.3452   -3.7272   22.9359 C.ar    1  UNL1        0.0293
     39 C           6.6700   -3.1603   24.1495 C.ar    1  UNL1        0.1401
     40 F           7.4457   -2.9703   25.4193 F       1  UNL1       -0.2042
     41 C           5.2192   -2.7834   24.0933 C.ar    1  UNL1        0.0293
     42 C           4.4436   -2.9734   22.8235 C.ar    1  UNL1       -0.0020
@<TRIPOS>BOND
     1    24    23    1
     2    24    25    1
     3    25    26    1
     4    26    27    1
     5    26    29    1
     6    29    30    1
     7    30    31    1
     8    31    32    1
     9    32    33    1
    10    33    35    1
    11    35    36    1
    12    36    37   ar
    13    37    38   ar
    14    38    39   ar
    15    39    40    1
    16    39    41   ar
    17    41    42   ar
    18    33    34    1
    19    24     1    1
    20     1     2   am
    21     2     3    2
    22     2     4   am
    23     4     7    1
    24     7     8   ar
    25     8     9   ar
    26     9    13    1
    27    13    14   ar
    28    14    15   ar
    29    15    16   ar
    30    16    17   ar
    31     9    10   ar
    32    10    11   ar
    33    11    18    1
    34    18    19   ar
    35    19    20   ar
    36    20    21   ar
    37    21    22   ar
    38    11    12   ar
    39    34    29    1
    40    12     7   ar
    41    42    36   ar
    42    17    13   ar
    43    22    18   ar
    44    27    28    1
    45     1     5    1
    46     4     6    1
@<TRIPOS>MOLECULE
*****
 42 46 0 0 0
SMALL
GASTEIGER

@<TRIPOS>ATOM
      1 N          -4.2750    3.0973   20.3638 N.am    1  UNL1       -0.2902
      2 C          -4.8562    3.9782   21.4297 C.2     1  UNL1        0.3044
      3 O          -4.9899    5.4533   21.1930 O.2     1  UNL1       -0.2525
      4 N          -5.3038    3.3840   22.7322 N.am    1  UNL1       -0.2683
      5 H          -4.1873    2.1291   20.5191 H       1  UNL1        0.1509
      6 H          -5.2160    2.4158   22.8875 H       1  UNL1        0.1564
      7 C          -5.8850    4.2648   23.7981 C.ar    1  UNL1        0.0517
      8 C          -5.0187    4.7564   24.9197 C.ar    1  UNL1        0.0163
      9 C          -5.5999    5.6373   25.9856 C.ar    1  UNL1        0.0222
     10 C          -7.0475    6.0267   25.9299 C.ar    1  UNL1        0.0033
     11 C          -7.9137    5.5352   24.8084 C.ar    1  UNL1        0.0222
     12 C          -7.3325    4.6542   23.7424 C.ar    1  UNL1        0.0163
     13 C          -4.7337    6.1288   27.1072 C.ar    1  UNL1        0.1232
     14 C          -3.2392    6.0215   27.1791 C.ar    1  UNL1        0.0658
     15 C          -2.7916    6.6403   28.4701 C.ar    1  UNL1        0.2138
     16 O          -4.0094    7.1301   29.1962 O.2     1  UNL1       -0.3502
     17 N          -5.2097    6.8139   28.3538 N.ar    1  UNL1       -0.0768
     18 C          -9.3612    5.9245   24.7527 C.ar    1  UNL1        0.1232
     19 C          -9.8945    7.2997   24.4792 C.ar    1  UNL1        0.0658
     20 C         -11.3925    7.2321   24.5182 C.ar    1  UNL1        0.2138
     21 O         -11.7851    5.8153   24.8158 O.2     1  UNL1       -0.3502
     22 N         -10.5297    5.0072   24.9607 N.ar    1  UNL1       -0.0768
     23 C          -4.7842    3.7806   17.9094 C.3     1  UNL1        0.0214
     24 C          -3.8275    3.6916   19.0613 C.3     1  UNL1        0.0770
     25 C          -2.4231    4.1969   18.9106 C.3     1  UNL1        0.0661
     26 C          -1.6465    4.6257   20.1201 C.3     1  UNL1        0.1738
     27 O          -1.6565    6.0637   20.5468 O.3     1  UNL1       -0.3697
     28 H          -1.1084    6.1693   21.3401 H       1  UNL1        0.2119
     29 N          -0.8599    3.6164   20.9030 N.3     1  UNL1       -0.2511
     30 C          -0.3232    3.9711   22.2580 C.3     1  UNL1        0.0742
     31 C           0.4633    2.9619   23.0408 C.3     1  UNL1        0.0175
     32 C           0.7131    1.5981   22.4686 C.3     1  UNL1        0.0031
     33 C           0.1764    1.2434   21.1136 C.3     1  UNL1        0.0205
     34 C          -0.6101    2.2526   20.3308 C.3     1  UNL1        0.0745
     35 C           0.4263   -0.1205   20.5414 C.3     1  UNL1        0.0277
     36 C           1.6894   -0.3947   19.7803 C.ar    1  UNL1       -0.0220
     37 C           2.6786   -1.3935   20.3036 C.ar    1  UNL1       -0.0020
     38 C           3.9417   -1.6676   19.5425 C.ar    1  UNL1        0.0293
     39 C           4.2157   -0.9430   18.2580 C.ar    1  UNL1        0.1401
     40 F           5.4789   -1.2172   17.4969 F       1  UNL1       -0.2042
     41 C           3.2265    0.0558   17.7347 C.ar    1  UNL1        0.0293
     42 C           1.9633    0.3300   18.4958 C.ar    1  UNL1       -0.0020
@<TRIPOS>BOND
     1    24    23    1
     2    24    25    1
     3    25    26    1
     4    26    27    1
     5    26    29    1
     6    29    30    1
     7    30    31    1
     8    31    32    1
     9    32    33    1
    10    33    35    1
    11    35    36    1
    12    36    37   ar
    13    37    38   ar
    14    38    39   ar
    15    39    40    1
    16    39    41   ar
    17    41    42   ar
    18    33    34    1
    19    24     1    1
    20     1     2   am
    21     2     3    2
    22     2     4   am
    23     4     7    1
    24     7     8   ar
    25     8     9   ar
    26     9    13    1
    27    13    14   ar
    28    14    15   ar
    29    15    16   ar
    30    16    17   ar
    31     9    10   ar
    32    10    11   ar
    33    11    18    1
    34    18    19   ar
    35    19    20   ar
    36    20    21   ar
    37    21    22   ar
    38    11    12   ar
    39    34    29    1
    40    12     7   ar
    41    42    36   ar
    42    17    13   ar
    43    22    18   ar
    44    27    28    1
    45     1     5    1
    46     4     6    1
@<TRIPOS>MOLECULE
*****
 42 46 0 0 0
SMALL
GASTEIGER

@<TRIPOS>ATOM
      1 N           0.4516    0.6481   25.6697 N.am    1  UNL1       -0.2902
      2 C           1.1170    0.8820   26.9935 C.2     1  UNL1        0.3044
      3 O           2.2609    1.8466   27.0978 O.2     1  UNL1       -0.2525
      4 N           0.6386    0.1513   28.2130 N.am    1  UNL1       -0.2683
      5 H          -0.2993    0.0150   25.6013 H       1  UNL1        0.1509
      6 H          -0.1123   -0.4818   28.1445 H       1  UNL1        0.1564
      7 C           1.3040    0.3852   29.5367 C.ar    1  UNL1        0.0517
      8 C           2.3668   -0.5573   30.0189 C.ar    1  UNL1        0.0163
      9 C           3.0322   -0.3234   31.3427 C.ar    1  UNL1        0.0222
     10 C           2.6350    0.8530   32.1843 C.ar    1  UNL1        0.0033
     11 C           1.5723    1.7954   31.7023 C.ar    1  UNL1        0.0222
     12 C           0.9068    1.5615   30.3784 C.ar    1  UNL1        0.0163
     13 C           4.0949   -1.2658   31.8247 C.ar    1  UNL1        0.1232
     14 C           5.5198   -1.3018   31.3570 C.ar    1  UNL1        0.0658
     15 C           6.2249   -2.3959   32.1024 C.ar    1  UNL1        0.2138
     16 O           5.2359   -3.0363   33.0308 O.2     1  UNL1       -0.3502
     17 N           3.9195   -2.3378   32.8592 N.ar    1  UNL1       -0.0768
     18 C           1.1751    2.9717   32.5440 C.ar    1  UNL1        0.1232
     19 C           0.1881    4.0353   32.1631 C.ar    1  UNL1        0.0658
     20 C           0.0982    5.0119   33.2981 C.ar    1  UNL1        0.2138
     21 O           1.0294    4.5520   34.3803 O.2     1  UNL1       -0.3502
     22 N           1.6949    3.2911   33.9142 N.ar    1  UNL1       -0.0768
     23 C           0.0563    2.4130   23.8046 C.3     1  UNL1        0.0214
     24 C           0.9300    1.3788   24.4502 C.3     1  UNL1        0.0770
     25 C           2.2823    1.0752   23.8764 C.3     1  UNL1        0.0661
     26 C           2.8869   -0.2851   24.0603 C.3     1  UNL1        0.1738
     27 O           3.0699   -0.8443   25.4401 O.3     1  UNL1       -0.3697
     28 H           3.4706   -1.7257   25.3812 H       1  UNL1        0.2119
     29 N           3.3085   -1.0864   22.8643 N.3     1  UNL1       -0.2511
     30 C           4.0714   -2.3646   23.0489 C.3     1  UNL1        0.0742
     31 C           4.4930   -3.1658   21.8530 C.3     1  UNL1        0.0175
     32 C           4.1516   -2.6889   20.4724 C.3     1  UNL1        0.0031
     33 C           3.3887   -1.4107   20.2878 C.3     1  UNL1        0.0205
     34 C           2.9671   -0.6095   21.4837 C.3     1  UNL1        0.0745
     35 C           3.0473   -0.9337   18.9072 C.3     1  UNL1        0.0277
     36 C           2.5698    0.4725   18.6963 C.ar    1  UNL1       -0.0220
     37 C           3.5609    1.5937   18.5931 C.ar    1  UNL1       -0.0020
     38 C           3.0834    2.9999   18.3821 C.ar    1  UNL1        0.0293
     39 C           1.6147    3.2849   18.2743 C.ar    1  UNL1        0.1401
     40 F           1.1371    4.6912   18.0633 F       1  UNL1       -0.2042
     41 C           0.6235    2.1638   18.3775 C.ar    1  UNL1        0.0293
     42 C           1.1011    0.7576   18.5885 C.ar    1  UNL1       -0.0020
@<TRIPOS>BOND
     1    24    23    1
     2    24    25    1
     3    25    26    1
     4    26    27    1
     5    26    29    1
     6    29    30    1
     7    30    31    1
     8    31    32    1
     9    32    33    1
    10    33    35    1
    11    35    36    1
    12    36    37   ar
    13    37    38   ar
    14    38    39   ar
    15    39    40    1
    16    39    41   ar
    17    41    42   ar
    18    33    34    1
    19    24     1    1
    20     1     2   am
    21     2     3    2
    22     2     4   am
    23     4     7    1
    24     7     8   ar
    25     8     9   ar
    26     9    13    1
    27    13    14   ar
    28    14    15   ar
    29    15    16   ar
    30    16    17   ar
    31     9    10   ar
    32    10    11   ar
    33    11    18    1
    34    18    19   ar
    35    19    20   ar
    36    20    21   ar
    37    21    22   ar
    38    11    12   ar
    39    34    29    1
    40    12     7   ar
    41    42    36   ar
    42    17    13   ar
    43    22    18   ar
    44    27    28    1
    45     1     5    1
    46     4     6    1
@<TRIPOS>MOLECULE
*****
 42 46 0 0 0
SMALL
GASTEIGER

@<TRIPOS>ATOM
      1 N           8.5957   -4.5361   28.6435 N.am    1  UNL1       -0.2902
      2 C           7.2876   -3.9430   28.2110 C.2     1  UNL1        0.3044
      3 O           6.0101   -4.6935   28.4447 O.2     1  UNL1       -0.2525
      4 N           7.2571   -2.5994   27.5448 N.am    1  UNL1       -0.2683
      5 H           9.4342   -4.0435   28.4902 H       1  UNL1        0.1509
      6 H           8.0956   -2.1068   27.3914 H       1  UNL1        0.1564
      7 C           5.9490   -2.0063   27.1123 C.ar    1  UNL1        0.0517
      8 C           5.0264   -1.4025   28.1293 C.ar    1  UNL1        0.0163
      9 C           3.7183   -0.8094   27.6968 C.ar    1  UNL1        0.0222
     10 C           3.3327   -0.8201   26.2472 C.ar    1  UNL1        0.0033
     11 C           4.2553   -1.4238   25.2302 C.ar    1  UNL1        0.0222
     12 C           5.5634   -2.0169   25.6627 C.ar    1  UNL1        0.0163
     13 C           2.7958   -0.2056   28.7138 C.ar    1  UNL1        0.1232
     14 C           3.1757    0.7952   29.7647 C.ar    1  UNL1        0.0658
     15 C           1.9461    1.1227   30.5590 C.ar    1  UNL1        0.2138
     16 O           0.8062    0.3244   29.9990 O.2     1  UNL1       -0.3502
     17 N           1.3314   -0.4966   28.8586 N.ar    1  UNL1       -0.0768
     18 C           3.8697   -1.4345   23.7806 C.ar    1  UNL1        0.1232
     19 C           2.9154   -0.4875   23.1151 C.ar    1  UNL1        0.0658
     20 C           2.8267   -0.8618   21.6652 C.ar    1  UNL1        0.2138
     21 O           3.7260   -2.0400   21.4347 O.2     1  UNL1       -0.3502
     22 N           4.3706   -2.3939   22.7421 N.ar    1  UNL1       -0.0768
     23 C           8.6335   -7.1286   28.4791 C.3     1  UNL1        0.0214
     24 C           8.6263   -5.8796   29.3097 C.3     1  UNL1        0.0770
     25 C           8.6496   -5.9742   30.8066 C.3     1  UNL1        0.0661
     26 C           7.5211   -5.4017   31.6120 C.3     1  UNL1        0.1738
     27 O           6.4832   -6.3107   32.2007 O.3     1  UNL1       -0.3697
     28 H           5.8303   -5.7836   32.6873 H       1  UNL1        0.2119
     29 N           7.4304   -3.9202   31.8286 N.3     1  UNL1       -0.2511
     30 C           8.6726   -3.0801   31.7965 C.3     1  UNL1        0.0742
     31 C           8.5818   -1.5986   32.0132 C.3     1  UNL1        0.0175
     32 C           7.2489   -0.9572   32.2619 C.3     1  UNL1        0.0031
     33 C           6.0066   -1.7974   32.2940 C.3     1  UNL1        0.0205
     34 C           6.0974   -3.2788   32.0774 C.3     1  UNL1        0.0745
     35 C           4.6737   -1.1560   32.5428 C.3     1  UNL1        0.0277
     36 C           4.4454   -0.3618   33.7946 C.ar    1  UNL1       -0.0220
     37 C           4.9743   -0.8611   35.1065 C.ar    1  UNL1       -0.0020
     38 C           4.7461   -0.0668   36.3583 C.ar    1  UNL1        0.0293
     39 C           3.9890    1.2267   36.2983 C.ar    1  UNL1        0.1401
     40 F           3.7608    2.0210   37.5502 F       1  UNL1       -0.2042
     41 C           3.4602    1.7260   34.9864 C.ar    1  UNL1        0.0293
     42 C           3.6884    0.9318   33.7345 C.ar    1  UNL1       -0.0020
@<TRIPOS>BOND
     1    24    23    1
     2    24    25    1
     3    25    26    1
     4    26    27    1
     5    26    29    1
     6    29    30    1
     7    30    31    1
     8    31    32    1
     9    32    33    1
    10    33    35    1
    11    35    36    1
    12    36    37   ar
    13    37    38   ar
    14    38    39   ar
    15    39    40    1
    16    39    41   ar
    17    41    42   ar
    18    33    34    1
    19    24     1    1
    20     1     2   am
    21     2     3    2
    22     2     4   am
    23     4     7    1
    24     7     8   ar
    25     8     9   ar
    26     9    13    1
    27    13    14   ar
    28    14    15   ar
    29    15    16   ar
    30    16    17   ar
    31     9    10   ar
    32    10    11   ar
    33    11    18    1
    34    18    19   ar
    35    19    20   ar
    36    20    21   ar
    37    21    22   ar
    38    11    12   ar
    39    34    29    1
    40    12     7   ar
    41    42    36   ar
    42    17    13   ar
    43    22    18   ar
    44    27    28    1
    45     1     5    1
    46     4     6    1
