@<TRIPOS>MOLECULE
*****
 27 30 0 0 0
SMALL
GASTEIGER

@<TRIPOS>ATOM
      1 C          -7.6983  -17.0794   23.8452 C.3     1  UNL1        0.0358
      2 C          -8.4752  -16.6413   25.0513 C.3     1  UNL1        0.0872
      3 C          -9.1974  -17.0485   23.8013 C.3     1  UNL1        0.0358
      4 C          -3.7563  -17.8917   21.8326 C.ar    1  UNL1        0.0362
      5 C          -3.8544  -16.8321   22.8898 C.ar    1  UNL1        0.0028
      6 C          -5.1684  -16.5614   23.5606 C.ar    1  UNL1       -0.0042
      7 C          -6.3843  -17.3502   23.1743 C.ar    1  UNL1       -0.0217
      8 C          -6.2863  -18.4098   22.1172 C.ar    1  UNL1       -0.0042
      9 C          -4.9723  -18.6806   21.4463 C.ar    1  UNL1        0.0028
     10 C           1.1321  -17.2807   19.9323 C.3     1  UNL1        0.0950
     11 C          -0.1954  -17.8817   20.2882 C.ar    1  UNL1        0.2062
     12 N          -0.6452  -19.2769   19.9703 N.ar    1  UNL1       -0.2104
     13 C          -2.0339  -19.4505   20.5101 C.ar    1  UNL1        0.1391
     14 C          -2.4423  -18.1625   21.1617 C.ar    1  UNL1        0.1659
     15 O          -1.3060  -17.1930   21.0245 O.2     1  UNL1       -0.4383
     16 C          -8.5067  -16.1532   26.4693 C.2     1  UNL1        0.2445
     17 O          -8.9909  -17.0581   27.5633 O.2     1  UNL1       -0.2730
     18 N          -8.0541  -14.7604   26.7933 N.am    1  UNL1       -0.1970
     19 O          -8.0856  -14.2723   28.2113 O.3     1  UNL1       -0.2952
     20 H          -7.7363  -14.1665   26.0753 H       1  UNL1        0.1822
     21 H          -8.4222  -14.9759   28.7880 H       1  UNL1        0.2414
     22 C         -10.4798  -17.2658   23.0542 C.ar    1  UNL1       -0.0217
     23 C         -11.6674  -17.8530   23.7576 C.ar    1  UNL1       -0.0043
     24 C         -12.9498  -18.0702   23.0104 C.ar    1  UNL1       -0.0003
     25 C         -13.0446  -17.7003   21.5599 C.ar    1  UNL1       -0.0000
     26 C         -11.8570  -17.1132   20.8564 C.ar    1  UNL1       -0.0003
     27 C         -10.5746  -16.8959   21.6035 C.ar    1  UNL1       -0.0043
@<TRIPOS>BOND
     1    10    11    1
     2    11    12   ar
     3    12    13   ar
     4    13    14   ar
     5    14     4    1
     6     4     5   ar
     7     5     6   ar
     8     6     7   ar
     9     1     7    1
    10     1     2    1
    11     2    16    1
    12    16    17    2
    13    16    18   am
    14    18    19    1
    15     2     3    1
    16     3    22    1
    17    22    23   ar
    18    23    24   ar
    19    24    25   ar
    20    25    26   ar
    21    26    27   ar
    22     7     8   ar
    23     8     9   ar
    24    14    15   ar
    25    15    11   ar
    26     9     4   ar
    27     3     1    1
    28    27    22   ar
    29    18    20    1
    30    19    21    1
@<TRIPOS>MOLECULE
*****
 27 30 0 0 0
SMALL
GASTEIGER

@<TRIPOS>ATOM
      1 C           0.0821    1.5288   25.2270 C.3     1  UNL1        0.0358
      2 C          -0.1185    1.5908   26.7122 C.3     1  UNL1        0.0872
      3 C          -1.0631    2.3120   25.7971 C.3     1  UNL1        0.0358
      4 C           2.4131    0.0647   21.6671 C.ar    1  UNL1        0.0362
      5 C           2.8802   -0.2607   23.0548 C.ar    1  UNL1        0.0028
      6 C           2.1032    0.2273   24.2414 C.ar    1  UNL1       -0.0042
      7 C           0.8591    1.0408   24.0403 C.ar    1  UNL1       -0.0217
      8 C           0.3920    1.3662   22.6525 C.ar    1  UNL1       -0.0042
      9 C           1.1690    0.8782   21.4659 C.ar    1  UNL1        0.0028
     10 C           3.9120   -0.8975   16.6963 C.3     1  UNL1        0.0950
     11 C           3.8791   -0.8656   18.1956 C.ar    1  UNL1        0.2062
     12 N           4.8926   -1.4830   19.1131 N.ar    1  UNL1       -0.2104
     13 C           4.4667   -1.2096   20.5252 C.ar    1  UNL1        0.1391
     14 C           3.1901   -0.4233   20.4804 C.ar    1  UNL1        0.1659
     15 O           2.8270   -0.2107   19.0406 O.2     1  UNL1       -0.4383
     16 C           0.3112    1.2101   28.0980 C.2     1  UNL1        0.2445
     17 O           0.5292    2.2728   29.1341 O.2     1  UNL1       -0.2730
     18 N           0.5227   -0.2330   28.4478 N.am    1  UNL1       -0.1970
     19 O           0.9523   -0.6137   29.8336 O.3     1  UNL1       -0.2952
     20 H           0.3796   -0.9305   27.7678 H       1  UNL1        0.1822
     21 H           1.0472    0.1863   30.3739 H       1  UNL1        0.2414
     22 C          -2.2696    3.1807   25.5979 C.ar    1  UNL1       -0.0217
     23 C          -2.6259    3.6659   24.2240 C.ar    1  UNL1       -0.0043
     24 C          -3.8325    4.5346   24.0249 C.ar    1  UNL1       -0.0003
     25 C          -4.6828    4.9179   25.1996 C.ar    1  UNL1       -0.0000
     26 C          -4.3265    4.4327   26.5735 C.ar    1  UNL1       -0.0003
     27 C          -3.1200    3.5641   26.7727 C.ar    1  UNL1       -0.0043
@<TRIPOS>BOND
     1    10    11    1
     2    11    12   ar
     3    12    13   ar
     4    13    14   ar
     5    14     4    1
     6     4     5   ar
     7     5     6   ar
     8     6     7   ar
     9     1     7    1
    10     1     2    1
    11     2    16    1
    12    16    17    2
    13    16    18   am
    14    18    19    1
    15     2     3    1
    16     3    22    1
    17    22    23   ar
    18    23    24   ar
    19    24    25   ar
    20    25    26   ar
    21    26    27   ar
    22     7     8   ar
    23     8     9   ar
    24    14    15   ar
    25    15    11   ar
    26     9     4   ar
    27     3     1    1
    28    27    22   ar
    29    18    20    1
    30    19    21    1
@<TRIPOS>MOLECULE
*****
 27 30 0 0 0
SMALL
GASTEIGER

@<TRIPOS>ATOM
      1 C           5.0364   -1.5991   31.5800 C.3     1  UNL1        0.0358
      2 C           5.9720   -2.6785   32.0377 C.3     1  UNL1        0.0872
      3 C           5.6525   -1.5282   32.9458 C.3     1  UNL1        0.0358
      4 C           2.3486    0.1478   28.4219 C.ar    1  UNL1        0.0362
      5 C           1.8297   -0.0684   29.8125 C.ar    1  UNL1        0.0028
      6 C           2.7256   -0.6507   30.8652 C.ar    1  UNL1       -0.0042
      7 C           4.1404   -1.0168   30.5272 C.ar    1  UNL1       -0.0217
      8 C           4.6594   -0.8006   29.1366 C.ar    1  UNL1       -0.0042
      9 C           3.7634   -0.2183   28.0839 C.ar    1  UNL1        0.0028
     10 C           0.4977    1.8270   23.7704 C.3     1  UNL1        0.0950
     11 C           0.6019    1.5019   25.2311 C.ar    1  UNL1        0.2062
     12 N          -0.4540    1.7504   26.2671 N.ar    1  UNL1       -0.2104
     13 C           0.0718    1.2733   27.5885 C.ar    1  UNL1        0.1391
     14 C           1.4526    0.7301   27.3691 C.ar    1  UNL1        0.1659
     15 O           1.7803    0.8714   25.9121 O.2     1  UNL1       -0.4383
     16 C           6.6966   -3.9658   31.7775 C.2     1  UNL1        0.2445
     17 O           7.7808   -4.0203   30.7423 O.2     1  UNL1       -0.2730
     18 N           6.3371   -5.1987   32.5526 N.am    1  UNL1       -0.1970
     19 O           7.0617   -6.4860   32.2925 O.3     1  UNL1       -0.2952
     20 H           5.6255   -5.1629   33.2321 H       1  UNL1        0.1822
     21 H           7.7261   -6.3487   31.5992 H       1  UNL1        0.2414
     22 C           5.8238   -0.8232   34.2586 C.ar    1  UNL1       -0.0217
     23 C           7.1475   -0.2149   34.6162 C.ar    1  UNL1       -0.0043
     24 C           7.3188    0.4902   35.9291 C.ar    1  UNL1       -0.0003
     25 C           6.1664    0.5869   36.8843 C.ar    1  UNL1       -0.0000
     26 C           4.8427   -0.0214   36.5268 C.ar    1  UNL1       -0.0003
     27 C           4.6714   -0.7264   35.2140 C.ar    1  UNL1       -0.0043
@<TRIPOS>BOND
     1    10    11    1
     2    11    12   ar
     3    12    13   ar
     4    13    14   ar
     5    14     4    1
     6     4     5   ar
     7     5     6   ar
     8     6     7   ar
     9     1     7    1
    10     1     2    1
    11     2    16    1
    12    16    17    2
    13    16    18   am
    14    18    19    1
    15     2     3    1
    16     3    22    1
    17    22    23   ar
    18    23    24   ar
    19    24    25   ar
    20    25    26   ar
    21    26    27   ar
    22     7     8   ar
    23     8     9   ar
    24    14    15   ar
    25    15    11   ar
    26     9     4   ar
    27     3     1    1
    28    27    22   ar
    29    18    20    1
    30    19    21    1
@<TRIPOS>MOLECULE
*****
 27 30 0 0 0
SMALL
GASTEIGER

@<TRIPOS>ATOM
      1 C           4.4401   -1.7937   21.1067 C.3     1  UNL1        0.0358
      2 C           4.9991   -2.1912   19.7727 C.3     1  UNL1        0.0872
      3 C           5.5663   -2.7815   21.0296 C.3     1  UNL1        0.0358
      4 C           1.5214    0.6058   23.5506 C.ar    1  UNL1        0.0362
      5 C           1.4221    0.6030   22.0540 C.ar    1  UNL1        0.0028
      6 C           2.3950   -0.1968   21.2393 C.ar    1  UNL1       -0.0042
      7 C           3.4672   -0.9938   21.9214 C.ar    1  UNL1       -0.0217
      8 C           3.5664   -0.9911   23.4181 C.ar    1  UNL1       -0.0042
      9 C           2.5935   -0.1912   24.2327 C.ar    1  UNL1        0.0028
     10 C          -2.2476    4.0390   24.9254 C.3     1  UNL1        0.0950
     11 C          -1.1839    2.9837   24.9973 C.ar    1  UNL1        0.2062
     12 N          -0.7135    2.2892   26.2409 N.ar    1  UNL1       -0.2104
     13 C           0.3571    1.3140   25.8503 C.ar    1  UNL1        0.1391
     14 C           0.5484    1.4057   24.3654 C.ar    1  UNL1        0.1659
     15 O          -0.4040    2.4376   23.8382 O.2     1  UNL1       -0.4383
     16 C           4.9943   -2.0799   18.2769 C.2     1  UNL1        0.2445
     17 O           6.2103   -2.4735   17.4916 O.2     1  UNL1       -0.2730
     18 N           3.7737   -1.5750   17.5663 N.am    1  UNL1       -0.1970
     19 O           3.7689   -1.4636   16.0704 O.3     1  UNL1       -0.2952
     20 H           2.9756   -1.3166   18.0816 H       1  UNL1        0.1822
     21 H           4.6256   -1.7559   15.7217 H       1  UNL1        0.2414
     22 C           6.5439   -3.6927   21.7107 C.ar    1  UNL1       -0.0217
     23 C           6.3914   -3.9994   23.1711 C.ar    1  UNL1       -0.0043
     24 C           7.3691   -4.9106   23.8522 C.ar    1  UNL1       -0.0003
     25 C           8.4993   -5.5150   23.0730 C.ar    1  UNL1       -0.0000
     26 C           8.6519   -5.2083   21.6126 C.ar    1  UNL1       -0.0003
     27 C           7.6742   -4.2972   20.9315 C.ar    1  UNL1       -0.0043
@<TRIPOS>BOND
     1    10    11    1
     2    11    12   ar
     3    12    13   ar
     4    13    14   ar
     5    14     4    1
     6     4     5   ar
     7     5     6   ar
     8     6     7   ar
     9     1     7    1
    10     1     2    1
    11     2    16    1
    12    16    17    2
    13    16    18   am
    14    18    19    1
    15     2     3    1
    16     3    22    1
    17    22    23   ar
    18    23    24   ar
    19    24    25   ar
    20    25    26   ar
    21    26    27   ar
    22     7     8   ar
    23     8     9   ar
    24    14    15   ar
    25    15    11   ar
    26     9     4   ar
    27     3     1    1
    28    27    22   ar
    29    18    20    1
    30    19    21    1
@<TRIPOS>MOLECULE
*****
 27 30 0 0 0
SMALL
GASTEIGER

@<TRIPOS>ATOM
      1 C           3.3618   -1.4948   22.0013 C.3     1  UNL1        0.0358
      2 C           4.2577   -2.6420   21.6390 C.3     1  UNL1        0.0872
      3 C           4.2528   -2.1080   23.0407 C.3     1  UNL1        0.0358
      4 C           0.2670    1.5542   20.8286 C.ar    1  UNL1        0.0362
      5 C           0.4647    0.3258   19.9908 C.ar    1  UNL1        0.0028
      6 C           1.4963   -0.6905   20.3817 C.ar    1  UNL1       -0.0042
      7 C           2.3302   -0.4784   21.6104 C.ar    1  UNL1       -0.0217
      8 C           2.1325    0.7500   22.4482 C.ar    1  UNL1       -0.0042
      9 C           1.1009    1.7663   22.0572 C.ar    1  UNL1        0.0028
     10 C          -4.3429    4.0620   20.2444 C.3     1  UNL1        0.0950
     11 C          -2.8836    3.7233   20.1691 C.ar    1  UNL1        0.2062
     12 N          -1.8207    4.5460   19.5031 N.ar    1  UNL1       -0.2104
     13 C          -0.5112    3.8335   19.6691 C.ar    1  UNL1        0.1391
     14 C          -0.7647    2.5706   20.4377 C.ar    1  UNL1        0.1659
     15 O          -2.2309    2.5024   20.7467 O.2     1  UNL1       -0.4383
     16 C           4.7778   -3.6127   20.6205 C.2     1  UNL1        0.2445
     17 O           6.0928   -4.2996   20.8421 O.2     1  UNL1       -0.2730
     18 N           3.9830   -3.8964   19.3805 N.am    1  UNL1       -0.1970
     19 O           4.5031   -4.8671   18.3620 O.3     1  UNL1       -0.2952
     20 H           3.1200   -3.4456   19.2351 H       1  UNL1        0.1822
     21 H           5.3578   -5.2182   18.6569 H       1  UNL1        0.2414
     22 C           4.7643   -2.1537   24.4500 C.ar    1  UNL1       -0.0217
     23 C           4.0429   -1.4094   25.5342 C.ar    1  UNL1       -0.0043
     24 C           4.5544   -1.4551   26.9436 C.ar    1  UNL1       -0.0003
     25 C           5.7874   -2.2451   27.2687 C.ar    1  UNL1       -0.0000
     26 C           6.5088   -2.9894   26.1845 C.ar    1  UNL1       -0.0003
     27 C           5.9973   -2.9437   24.7751 C.ar    1  UNL1       -0.0043
@<TRIPOS>BOND
     1    10    11    1
     2    11    12   ar
     3    12    13   ar
     4    13    14   ar
     5    14     4    1
     6     4     5   ar
     7     5     6   ar
     8     6     7   ar
     9     1     7    1
    10     1     2    1
    11     2    16    1
    12    16    17    2
    13    16    18   am
    14    18    19    1
    15     2     3    1
    16     3    22    1
    17    22    23   ar
    18    23    24   ar
    19    24    25   ar
    20    25    26   ar
    21    26    27   ar
    22     7     8   ar
    23     8     9   ar
    24    14    15   ar
    25    15    11   ar
    26     9     4   ar
    27     3     1    1
    28    27    22   ar
    29    18    20    1
    30    19    21    1
@<TRIPOS>MOLECULE
*****
 27 30 0 0 0
SMALL
GASTEIGER

@<TRIPOS>ATOM
      1 C         -15.8096   -0.5958   19.8238 C.3     1  UNL1        0.0358
      2 C         -17.2515   -0.3003   20.1128 C.3     1  UNL1        0.0872
      3 C         -16.2834    0.8254   19.8998 C.3     1  UNL1        0.0358
      4 C         -12.4915   -3.5690   19.1915 C.ar    1  UNL1        0.0362
      5 C         -12.5834   -2.3512   18.3205 C.ar    1  UNL1        0.0028
      6 C         -13.6894   -1.3602   18.5313 C.ar    1  UNL1       -0.0042
      7 C         -14.7035   -1.5869   19.6130 C.ar    1  UNL1       -0.0217
      8 C         -14.6117   -2.8047   20.4840 C.ar    1  UNL1       -0.0042
      9 C         -13.5056   -3.7957   20.2732 C.ar    1  UNL1        0.0028
     10 C          -9.8882   -8.0844   18.3455 C.3     1  UNL1        0.0950
     11 C         -10.1888   -6.6356   18.5919 C.ar    1  UNL1        0.2062
     12 N          -9.1779   -5.5349   18.7209 N.ar    1  UNL1       -0.2104
     13 C          -9.9175   -4.2522   18.9612 C.ar    1  UNL1        0.1391
     14 C         -11.3854   -4.5601   18.9807 C.ar    1  UNL1        0.1659
     15 O         -11.5531   -6.0331   18.7524 O.2     1  UNL1       -0.4383
     16 C         -18.6430   -0.7797   20.4027 C.2     1  UNL1        0.2445
     17 O         -19.8114    0.1366   20.1904 O.2     1  UNL1       -0.2730
     18 N         -18.8660   -2.1754   20.9049 N.am    1  UNL1       -0.1970
     19 O         -20.2574   -2.6548   21.1948 O.3     1  UNL1       -0.2952
     20 H         -18.0991   -2.7769   21.0443 H       1  UNL1        0.1822
     21 H         -20.8902   -1.9443   21.0058 H       1  UNL1        0.2414
     22 C         -15.9980    2.2958   19.8207 C.ar    1  UNL1       -0.0217
     23 C         -16.3543    3.1919   20.9696 C.ar    1  UNL1       -0.0043
     24 C         -16.0688    4.6624   20.8905 C.ar    1  UNL1       -0.0003
     25 C         -15.4271    5.2368   19.6624 C.ar    1  UNL1       -0.0000
     26 C         -15.0708    4.3407   18.5134 C.ar    1  UNL1       -0.0003
     27 C         -15.3563    2.8703   18.5925 C.ar    1  UNL1       -0.0043
@<TRIPOS>BOND
     1    10    11    1
     2    11    12   ar
     3    12    13   ar
     4    13    14   ar
     5    14     4    1
     6     4     5   ar
     7     5     6   ar
     8     6     7   ar
     9     1     7    1
    10     1     2    1
    11     2    16    1
    12    16    17    2
    13    16    18   am
    14    18    19    1
    15     2     3    1
    16     3    22    1
    17    22    23   ar
    18    23    24   ar
    19    24    25   ar
    20    25    26   ar
    21    26    27   ar
    22     7     8   ar
    23     8     9   ar
    24    14    15   ar
    25    15    11   ar
    26     9     4   ar
    27     3     1    1
    28    27    22   ar
    29    18    20    1
    30    19    21    1
@<TRIPOS>MOLECULE
*****
 27 30 0 0 0
SMALL
GASTEIGER

@<TRIPOS>ATOM
      1 C           3.6398   -1.4035   23.3177 C.3     1  UNL1        0.0358
      2 C           4.3525   -2.3677   22.4164 C.3     1  UNL1        0.0872
      3 C           3.4397   -1.3302   21.8329 C.3     1  UNL1        0.0358
      4 C           2.7520    0.1392   27.4507 C.ar    1  UNL1        0.0362
      5 C           3.6084   -1.0794   27.2730 C.ar    1  UNL1        0.0028
      6 C           3.9043   -1.5936   25.8953 C.ar    1  UNL1       -0.0042
      7 C           3.3439   -0.8893   24.6954 C.ar    1  UNL1       -0.0217
      8 C           2.4875    0.3293   24.8732 C.ar    1  UNL1       -0.0042
      9 C           2.1915    0.8435   26.2508 C.ar    1  UNL1        0.0028
     10 C           1.7413    3.3879   31.4887 C.3     1  UNL1        0.0950
     11 C           1.9915    2.1467   30.6845 C.ar    1  UNL1        0.2062
     12 N           2.0098    0.7428   31.2125 N.ar    1  UNL1       -0.2104
     13 C           2.2969   -0.1801   30.0654 C.ar    1  UNL1        0.1391
     14 C           2.4561    0.6534   28.8285 C.ar    1  UNL1        0.1659
     15 O           2.2673    2.0914   29.2111 O.2     1  UNL1       -0.4383
     16 C           5.2910   -3.5233   22.2328 C.2     1  UNL1        0.2445
     17 O           5.3207   -4.2656   20.9296 O.2     1  UNL1       -0.2730
     18 N           6.1997   -3.9367   23.3523 N.am    1  UNL1       -0.1970
     19 O           7.1381   -5.0924   23.1687 O.3     1  UNL1       -0.2952
     20 H           6.1801   -3.4495   24.2076 H       1  UNL1        0.1822
     21 H           7.0311   -5.4572   22.2764 H       1  UNL1        0.2414
     22 C           2.7972   -0.6888   20.6389 C.ar    1  UNL1       -0.0217
     23 C           3.5751   -0.5234   19.3670 C.ar    1  UNL1       -0.0043
     24 C           2.9325    0.1181   18.1730 C.ar    1  UNL1       -0.0003
     25 C           1.5122    0.5940   18.2508 C.ar    1  UNL1       -0.0000
     26 C           0.7344    0.4286   19.5227 C.ar    1  UNL1       -0.0003
     27 C           1.3769   -0.2127   20.7167 C.ar    1  UNL1       -0.0043
@<TRIPOS>BOND
     1    10    11    1
     2    11    12   ar
     3    12    13   ar
     4    13    14   ar
     5    14     4    1
     6     4     5   ar
     7     5     6   ar
     8     6     7   ar
     9     1     7    1
    10     1     2    1
    11     2    16    1
    12    16    17    2
    13    16    18   am
    14    18    19    1
    15     2     3    1
    16     3    22    1
    17    22    23   ar
    18    23    24   ar
    19    24    25   ar
    20    25    26   ar
    21    26    27   ar
    22     7     8   ar
    23     8     9   ar
    24    14    15   ar
    25    15    11   ar
    26     9     4   ar
    27     3     1    1
    28    27    22   ar
    29    18    20    1
    30    19    21    1
@<TRIPOS>MOLECULE
*****
 27 30 0 0 0
SMALL
GASTEIGER

@<TRIPOS>ATOM
      1 C          -0.8119    2.6366   20.7647 C.3     1  UNL1        0.0358
      2 C          -1.2412    3.6973   21.7344 C.3     1  UNL1        0.0872
      3 C          -2.1224    3.3411   20.5740 C.3     1  UNL1        0.0358
      4 C           2.2014   -0.4210   19.4152 C.ar    1  UNL1        0.0362
      5 C           1.7293    0.6377   18.4633 C.ar    1  UNL1        0.0028
      6 C           0.7249    1.6568   18.9131 C.ar    1  UNL1       -0.0042
      7 C           0.1925    1.6173   20.3149 C.ar    1  UNL1       -0.0217
      8 C           0.6646    0.5586   21.2669 C.ar    1  UNL1       -0.0042
      9 C           1.6691   -0.4605   20.8170 C.ar    1  UNL1        0.0028
     10 C           4.8064   -4.9724   18.7983 C.3     1  UNL1        0.0950
     11 C           4.4032   -3.5323   18.6819 C.ar    1  UNL1        0.2062
     12 N           5.1000   -2.4850   17.8646 N.ar    1  UNL1       -0.2104
     13 C           4.3599   -1.1921   18.0399 C.ar    1  UNL1        0.1391
     14 C           3.2059   -1.4403   18.9654 C.ar    1  UNL1        0.1659
     15 O           3.2327   -2.8866   19.3622 O.2     1  UNL1       -0.4383
     16 C          -0.9803    4.5155   22.9643 C.2     1  UNL1        0.2445
     17 O          -1.7828    4.2758   24.2087 O.2     1  UNL1       -0.2730
     18 N           0.0831    5.5733   22.9497 N.am    1  UNL1       -0.1970
     19 O           0.3440    6.3914   24.1796 O.3     1  UNL1       -0.2952
     20 H           0.6098    5.7306   22.1330 H       1  UNL1        0.1822
     21 H          -0.2566    6.1110   24.8879 H       1  UNL1        0.2414
     22 C          -3.3877    3.5421   19.7940 C.ar    1  UNL1       -0.0217
     23 C          -4.7178    3.3394   20.4571 C.ar    1  UNL1       -0.0043
     24 C          -5.9832    3.5404   19.6769 C.ar    1  UNL1       -0.0003
     25 C          -5.9184    3.9443   18.2338 C.ar    1  UNL1       -0.0000
     26 C          -4.5882    4.1470   17.5707 C.ar    1  UNL1       -0.0003
     27 C          -3.3229    3.9460   18.3508 C.ar    1  UNL1       -0.0043
@<TRIPOS>BOND
     1    10    11    1
     2    11    12   ar
     3    12    13   ar
     4    13    14   ar
     5    14     4    1
     6     4     5   ar
     7     5     6   ar
     8     6     7   ar
     9     1     7    1
    10     1     2    1
    11     2    16    1
    12    16    17    2
    13    16    18   am
    14    18    19    1
    15     2     3    1
    16     3    22    1
    17    22    23   ar
    18    23    24   ar
    19    24    25   ar
    20    25    26   ar
    21    26    27   ar
    22     7     8   ar
    23     8     9   ar
    24    14    15   ar
    25    15    11   ar
    26     9     4   ar
    27     3     1    1
    28    27    22   ar
    29    18    20    1
    30    19    21    1
@<TRIPOS>MOLECULE
*****
 27 30 0 0 0
SMALL
GASTEIGER

@<TRIPOS>ATOM
      1 C           3.8283   -1.8192   21.9220 C.3     1  UNL1        0.0358
      2 C           3.8537   -2.3858   20.5334 C.3     1  UNL1        0.0872
      3 C           3.0020   -1.1896   20.8399 C.3     1  UNL1        0.0358
      4 C           5.2156   -1.9283   26.2014 C.ar    1  UNL1        0.0362
      5 C           5.9510   -2.7111   25.1545 C.ar    1  UNL1        0.0028
      6 C           5.4886   -2.6748   23.7280 C.ar    1  UNL1       -0.0042
      7 C           4.2907   -1.8555   23.3486 C.ar    1  UNL1       -0.0217
      8 C           3.5553   -1.0727   24.3956 C.ar    1  UNL1       -0.0042
      9 C           4.0177   -1.1091   25.8220 C.ar    1  UNL1        0.0028
     10 C           6.8362   -3.6787   30.9122 C.3     1  UNL1        0.0950
     11 C           6.4229   -2.7692   29.7932 C.ar    1  UNL1        0.2062
     12 N           6.3562   -1.2718   29.8530 N.ar    1  UNL1       -0.2104
     13 C           5.8958   -0.7746   28.5148 C.ar    1  UNL1        0.1391
     14 C           5.6780   -1.9646   27.6280 C.ar    1  UNL1        0.1659
     15 O           6.0038   -3.1973   28.4181 O.2     1  UNL1       -0.4383
     16 C           4.3600   -3.4035   19.5547 C.2     1  UNL1        0.2445
     17 O           5.0378   -2.9582   18.2928 O.2     1  UNL1       -0.2730
     18 N           4.1885   -4.8665   19.8379 N.am    1  UNL1       -0.1970
     19 O           4.6949   -5.8842   18.8592 O.3     1  UNL1       -0.2952
     20 H           3.7436   -5.1588   20.6661 H       1  UNL1        0.1822
     21 H           5.1030   -5.4319   18.1044 H       1  UNL1        0.2414
     22 C           2.0333   -0.1356   20.3921 C.ar    1  UNL1       -0.0217
     23 C           1.1288    0.5244   21.3902 C.ar    1  UNL1       -0.0043
     24 C           0.1601    1.5785   20.9424 C.ar    1  UNL1       -0.0003
     25 C           0.0959    1.9725   19.4965 C.ar    1  UNL1       -0.0000
     26 C           1.0004    1.3125   18.4984 C.ar    1  UNL1       -0.0003
     27 C           1.9691    0.2585   18.9462 C.ar    1  UNL1       -0.0043
@<TRIPOS>BOND
     1    10    11    1
     2    11    12   ar
     3    12    13   ar
     4    13    14   ar
     5    14     4    1
     6     4     5   ar
     7     5     6   ar
     8     6     7   ar
     9     1     7    1
    10     1     2    1
    11     2    16    1
    12    16    17    2
    13    16    18   am
    14    18    19    1
    15     2     3    1
    16     3    22    1
    17    22    23   ar
    18    23    24   ar
    19    24    25   ar
    20    25    26   ar
    21    26    27   ar
    22     7     8   ar
    23     8     9   ar
    24    14    15   ar
    25    15    11   ar
    26     9     4   ar
    27     3     1    1
    28    27    22   ar
    29    18    20    1
    30    19    21    1
