@<TRIPOS>MOLECULE
*****
 22 24 0 0 0
SMALL
GASTEIGER

@<TRIPOS>ATOM
      1 C          -7.7798  -18.5679   22.5004 C.ar    1  UNL1        0.0164
      2 C          -7.2406  -17.3034   23.1007 C.ar    1  UNL1        0.1206
      3 O          -5.7863  -17.2056   22.7466 O.2     1  UNL1       -0.4580
      4 C          -5.4267  -18.4097   21.9274 C.ar    1  UNL1        0.1445
      5 C          -4.1365  -18.8481   21.3004 C.ar    1  UNL1        0.0375
      6 C          -4.0785  -20.1286   20.5212 C.ar    1  UNL1        0.0031
      7 C          -5.3105  -20.9705   20.3691 C.ar    1  UNL1        0.0002
      8 C          -6.6007  -20.5320   20.9961 C.ar    1  UNL1        0.0028
      9 C          -6.6587  -19.2516   21.7753 C.ar    1  UNL1        0.0335
     10 C          -9.4882  -20.3341   23.3443 C.3     1  UNL1        0.0111
     11 C          -9.1921  -19.0619   22.6066 C.3     1  UNL1        0.0652
     12 C         -10.3083  -18.2840   21.9752 C.ar    1  UNL1        0.0628
     13 C         -11.6811  -18.3176   22.5790 C.ar    1  UNL1        0.0151
     14 C         -12.7974  -17.5396   21.9476 C.ar    1  UNL1        0.0028
     15 C         -12.5410  -16.7280   20.7124 C.ar    1  UNL1        0.0207
     16 C         -11.1683  -16.6944   20.1087 C.ar    1  UNL1        0.0985
     17 N         -10.0520  -17.4724   20.7401 N.ar    1  UNL1       -0.2478
     18 C          -8.0190  -16.3110   23.9126 C.3     1  UNL1        0.0815
     19 C          -7.3093  -15.1804   24.5967 C.3     1  UNL1        0.0802
     20 N          -6.6640  -15.3990   25.9330 N.3     1  UNL1       -0.2699
     21 C          -5.1707  -15.4952   26.0380 C.3     1  UNL1        0.0897
     22 C          -7.5118  -15.5215   27.1643 C.3     1  UNL1        0.0897
@<TRIPOS>BOND
     1    11    10    1
     2    11    12    1
     3    12    13   ar
     4    13    14   ar
     5    14    15   ar
     6    15    16   ar
     7    16    17   ar
     8    11     1    1
     9     1     2   ar
    10     2    18    1
    11    18    19    1
    12    19    20    1
    13    20    21    1
    14    20    22    1
    15     2     3   ar
    16     3     4   ar
    17     4     5   ar
    18     5     6   ar
    19     6     7   ar
    20     7     8   ar
    21     8     9   ar
    22    17    12   ar
    23     9     1   ar
    24     9     4   ar
@<TRIPOS>MOLECULE
*****
 22 24 0 0 0
SMALL
GASTEIGER

@<TRIPOS>ATOM
      1 C          -7.1687  -18.5381   21.8199 C.ar    1  UNL1        0.0164
      2 C          -6.8091  -17.4292   22.7639 C.ar    1  UNL1        0.1206
      3 O          -5.3145  -17.3898   22.8847 O.2     1  UNL1       -0.4580
      4 C          -4.7504  -18.4744   22.0155 C.ar    1  UNL1        0.1445
      5 C          -3.3413  -18.9074   21.7382 C.ar    1  UNL1        0.0375
      6 C          -3.0782  -20.0501   20.8028 C.ar    1  UNL1        0.0031
      7 C          -4.2242  -20.7598   20.1447 C.ar    1  UNL1        0.0002
      8 C          -5.6333  -20.3267   20.4220 C.ar    1  UNL1        0.0028
      9 C          -5.8964  -19.1841   21.3574 C.ar    1  UNL1        0.0335
     10 C          -8.8381  -19.3193   19.9887 C.3     1  UNL1        0.0111
     11 C          -8.5569  -18.9319   21.4104 C.3     1  UNL1        0.0652
     12 C          -9.6641  -18.9384   22.4224 C.ar    1  UNL1        0.0628
     13 C          -9.5650  -19.8133   23.6368 C.ar    1  UNL1        0.0151
     14 C         -10.6721  -19.8199   24.6488 C.ar    1  UNL1        0.0028
     15 C         -11.8784  -18.9515   24.4464 C.ar    1  UNL1        0.0207
     16 C         -11.9774  -18.0766   23.2321 C.ar    1  UNL1        0.0985
     17 N         -10.8703  -18.0700   22.2200 N.ar    1  UNL1       -0.2478
     18 C          -7.7745  -16.5194   23.4640 C.3     1  UNL1        0.0815
     19 C          -7.2704  -15.3112   24.1961 C.3     1  UNL1        0.0802
     20 N          -6.8644  -15.4219   25.6359 N.3     1  UNL1       -0.2699
     21 C          -5.4124  -15.3855   26.0106 C.3     1  UNL1        0.0897
     22 C          -7.9104  -15.5688   26.7009 C.3     1  UNL1        0.0897
@<TRIPOS>BOND
     1    11    10    1
     2    11    12    1
     3    12    13   ar
     4    13    14   ar
     5    14    15   ar
     6    15    16   ar
     7    16    17   ar
     8    11     1    1
     9     1     2   ar
    10     2    18    1
    11    18    19    1
    12    19    20    1
    13    20    21    1
    14    20    22    1
    15     2     3   ar
    16     3     4   ar
    17     4     5   ar
    18     5     6   ar
    19     6     7   ar
    20     7     8   ar
    21     8     9   ar
    22    17    12   ar
    23     9     1   ar
    24     9     4   ar
@<TRIPOS>MOLECULE
*****
 22 24 0 0 0
SMALL
GASTEIGER

@<TRIPOS>ATOM
      1 C          -8.6526  -17.1027   22.5505 C.ar    1  UNL1        0.0164
      2 C          -8.0508  -18.4296   22.1939 C.ar    1  UNL1        0.1206
      3 O          -9.1648  -19.3517   21.7955 O.2     1  UNL1       -0.4580
      4 C         -10.4551  -18.5947   21.9060 C.ar    1  UNL1        0.1445
      5 C         -11.8773  -18.9915   21.6419 C.ar    1  UNL1        0.0375
      6 C         -12.9830  -17.9984   21.8445 C.ar    1  UNL1        0.0031
      7 C         -12.6664  -16.6084   22.3111 C.ar    1  UNL1        0.0002
      8 C         -11.2442  -16.2116   22.5752 C.ar    1  UNL1        0.0028
      9 C         -10.1385  -17.2047   22.3726 C.ar    1  UNL1        0.0335
     10 C          -7.5340  -14.8190   22.0178 C.3     1  UNL1        0.0111
     11 C          -7.9005  -15.8871   23.0052 C.3     1  UNL1        0.0652
     12 C          -7.5149  -15.7396   24.4472 C.ar    1  UNL1        0.0628
     13 C          -8.5704  -15.7689   25.5127 C.ar    1  UNL1        0.0151
     14 C          -8.1849  -15.6213   26.9547 C.ar    1  UNL1        0.0028
     15 C          -6.7437  -15.4445   27.3314 C.ar    1  UNL1        0.0207
     16 C          -5.6882  -15.4153   26.2660 C.ar    1  UNL1        0.0985
     17 N          -6.0738  -15.5628   24.8240 N.ar    1  UNL1       -0.2478
     18 C          -6.5913  -18.7739   22.2294 C.3     1  UNL1        0.0815
     19 C          -5.8681  -19.1068   20.9581 C.3     1  UNL1        0.0802
     20 N          -4.4003  -18.8238   20.8340 N.3     1  UNL1       -0.2699
     21 C          -3.5868  -18.5307   22.0597 C.3     1  UNL1        0.0897
     22 C          -3.7460  -18.8339   19.4843 C.3     1  UNL1        0.0897
@<TRIPOS>BOND
     1    11    10    1
     2    11    12    1
     3    12    13   ar
     4    13    14   ar
     5    14    15   ar
     6    15    16   ar
     7    16    17   ar
     8    11     1    1
     9     1     2   ar
    10     2    18    1
    11    18    19    1
    12    19    20    1
    13    20    21    1
    14    20    22    1
    15     2     3   ar
    16     3     4   ar
    17     4     5   ar
    18     5     6   ar
    19     6     7   ar
    20     7     8   ar
    21     8     9   ar
    22    17    12   ar
    23     9     1   ar
    24     9     4   ar
@<TRIPOS>MOLECULE
*****
 22 24 0 0 0
SMALL
GASTEIGER

@<TRIPOS>ATOM
      1 C          -7.9063  -18.0078   22.8325 C.ar    1  UNL1        0.0164
      2 C          -6.6538  -18.2552   22.0452 C.ar    1  UNL1        0.1206
      3 O          -5.5705  -17.3866   22.6127 O.2     1  UNL1       -0.4580
      4 C          -6.1536  -16.6025   23.7508 C.ar    1  UNL1        0.1445
      5 C          -5.5565  -15.5885   24.6809 C.ar    1  UNL1        0.0375
      6 C          -6.4030  -14.9584   25.7468 C.ar    1  UNL1        0.0031
      7 C          -7.8467  -15.3423   25.8827 C.ar    1  UNL1        0.0002
      8 C          -8.4438  -16.3563   24.9525 C.ar    1  UNL1        0.0028
      9 C          -7.5972  -16.9864   23.8866 C.ar    1  UNL1        0.0335
     10 C          -9.4578  -20.0800   23.0550 C.3     1  UNL1        0.0111
     11 C          -9.2349  -18.6663   22.6055 C.3     1  UNL1        0.0652
     12 C         -10.3404  -17.9112   21.9293 C.ar    1  UNL1        0.0628
     13 C         -11.7683  -18.3145   22.1498 C.ar    1  UNL1        0.0151
     14 C         -12.8740  -17.5594   21.4735 C.ar    1  UNL1        0.0028
     15 C         -12.5518  -16.4010   20.5766 C.ar    1  UNL1        0.0207
     16 C         -11.1240  -15.9977   20.3561 C.ar    1  UNL1        0.0985
     17 N         -10.0183  -16.7528   21.0324 N.ar    1  UNL1       -0.2478
     18 C          -6.5098  -19.2044   20.8927 C.3     1  UNL1        0.0815
     19 C          -5.3169  -20.1102   20.8117 C.3     1  UNL1        0.0802
     20 N          -3.9491  -19.5321   20.6000 N.3     1  UNL1       -0.2699
     21 C          -3.6523  -18.7426   19.3595 C.3     1  UNL1        0.0897
     22 C          -2.8781  -19.7433   21.6287 C.3     1  UNL1        0.0897
@<TRIPOS>BOND
     1    11    10    1
     2    11    12    1
     3    12    13   ar
     4    13    14   ar
     5    14    15   ar
     6    15    16   ar
     7    16    17   ar
     8    11     1    1
     9     1     2   ar
    10     2    18    1
    11    18    19    1
    12    19    20    1
    13    20    21    1
    14    20    22    1
    15     2     3   ar
    16     3     4   ar
    17     4     5   ar
    18     5     6   ar
    19     6     7   ar
    20     7     8   ar
    21     8     9   ar
    22    17    12   ar
    23     9     1   ar
    24     9     4   ar
@<TRIPOS>MOLECULE
*****
 22 24 0 0 0
SMALL
GASTEIGER

@<TRIPOS>ATOM
      1 C          -9.6676  -18.4183   22.8660 C.ar    1  UNL1        0.0164
      2 C          -8.6863  -18.9353   21.8561 C.ar    1  UNL1        0.1206
      3 O          -9.1312  -18.4747   20.4997 O.2     1  UNL1       -0.4580
      4 C         -10.3874  -17.6732   20.6712 C.ar    1  UNL1        0.1445
      5 C         -11.2722  -16.9705   19.6846 C.ar    1  UNL1        0.0375
      6 C         -12.4885  -16.2330   20.1605 C.ar    1  UNL1        0.0031
      7 C         -12.8201  -16.1982   21.6230 C.ar    1  UNL1        0.0002
      8 C         -11.9353  -16.9008   22.6095 C.ar    1  UNL1        0.0028
      9 C         -10.7189  -17.6383   22.1336 C.ar    1  UNL1        0.0335
     10 C         -10.0866  -19.9391   24.9305 C.3     1  UNL1        0.0111
     11 C          -9.6081  -18.6421   24.3480 C.3     1  UNL1        0.0652
     12 C          -9.0702  -17.5692   25.2476 C.ar    1  UNL1        0.0628
     13 C          -8.5660  -16.2831   24.6627 C.ar    1  UNL1        0.0151
     14 C          -8.0281  -15.2101   25.5623 C.ar    1  UNL1        0.0028
     15 C          -7.9943  -15.4231   27.0467 C.ar    1  UNL1        0.0207
     16 C          -8.4985  -16.7090   27.6315 C.ar    1  UNL1        0.0985
     17 N          -9.0364  -17.7821   26.7320 N.ar    1  UNL1       -0.2478
     18 C          -7.4732  -19.7668   22.1510 C.3     1  UNL1        0.0815
     19 C          -6.5182  -20.1174   21.0487 C.3     1  UNL1        0.0802
     20 N          -5.0468  -19.8899   21.2305 N.3     1  UNL1       -0.2699
     21 C          -4.0776  -20.3909   20.2010 C.3     1  UNL1        0.0897
     22 C          -4.5445  -19.1615   22.4417 C.3     1  UNL1        0.0897
@<TRIPOS>BOND
     1    11    10    1
     2    11    12    1
     3    12    13   ar
     4    13    14   ar
     5    14    15   ar
     6    15    16   ar
     7    16    17   ar
     8    11     1    1
     9     1     2   ar
    10     2    18    1
    11    18    19    1
    12    19    20    1
    13    20    21    1
    14    20    22    1
    15     2     3   ar
    16     3     4   ar
    17     4     5   ar
    18     5     6   ar
    19     6     7   ar
    20     7     8   ar
    21     8     9   ar
    22    17    12   ar
    23     9     1   ar
    24     9     4   ar
@<TRIPOS>MOLECULE
*****
 22 24 0 0 0
SMALL
GASTEIGER

@<TRIPOS>ATOM
      1 C          -7.8346  -19.3036   21.7382 C.ar    1  UNL1        0.0164
      2 C          -8.4934  -19.6521   20.4365 C.ar    1  UNL1        0.1206
      3 O          -7.4209  -20.0496   19.4661 O.2     1  UNL1       -0.4580
      4 C          -6.0993  -19.9468   20.1681 C.ar    1  UNL1        0.1445
      5 C          -4.6961  -20.2134   19.7100 C.ar    1  UNL1        0.0375
      6 C          -3.5486  -20.0190   20.6562 C.ar    1  UNL1        0.0031
      7 C          -3.8043  -19.5579   22.0605 C.ar    1  UNL1        0.0002
      8 C          -5.2075  -19.2913   22.5186 C.ar    1  UNL1        0.0028
      9 C          -6.3550  -19.4857   21.5723 C.ar    1  UNL1        0.0335
     10 C          -9.4519  -19.7896   23.7127 C.3     1  UNL1        0.0111
     11 C          -8.5329  -18.8522   22.9867 C.3     1  UNL1        0.0652
     12 C          -8.3123  -17.4637   23.5092 C.ar    1  UNL1        0.0628
     13 C          -9.0162  -17.0100   24.7537 C.ar    1  UNL1        0.0151
     14 C          -8.7956  -15.6213   25.2763 C.ar    1  UNL1        0.0028
     15 C          -7.8711  -14.6864   24.5543 C.ar    1  UNL1        0.0207
     16 C          -7.1673  -15.1401   23.3098 C.ar    1  UNL1        0.0985
     17 N          -7.3879  -16.5287   22.7873 N.ar    1  UNL1       -0.2478
     18 C          -9.9661  -19.6105   20.1546 C.3     1  UNL1        0.0815
     19 C         -10.5910  -18.3589   19.6133 C.3     1  UNL1        0.0802
     20 N         -11.4951  -17.5357   20.4821 N.3     1  UNL1       -0.2699
     21 C         -11.8266  -16.1248   20.0952 C.3     1  UNL1        0.0897
     22 C         -12.0677  -18.1232   21.7378 C.3     1  UNL1        0.0897
@<TRIPOS>BOND
     1    11    10    1
     2    11    12    1
     3    12    13   ar
     4    13    14   ar
     5    14    15   ar
     6    15    16   ar
     7    16    17   ar
     8    11     1    1
     9     1     2   ar
    10     2    18    1
    11    18    19    1
    12    19    20    1
    13    20    21    1
    14    20    22    1
    15     2     3   ar
    16     3     4   ar
    17     4     5   ar
    18     5     6   ar
    19     6     7   ar
    20     7     8   ar
    21     8     9   ar
    22    17    12   ar
    23     9     1   ar
    24     9     4   ar
@<TRIPOS>MOLECULE
*****
 22 24 0 0 0
SMALL
GASTEIGER

@<TRIPOS>ATOM
      1 C          -7.1844  -17.7051   22.4958 C.ar    1  UNL1        0.0164
      2 C          -8.0689  -18.7819   21.9409 C.ar    1  UNL1        0.1206
      3 O          -7.1944  -19.9159   21.4945 O.2     1  UNL1       -0.4580
      4 C          -5.7693  -19.5399   21.7736 C.ar    1  UNL1        0.1445
      5 C          -4.4766  -20.2652   21.5441 C.ar    1  UNL1        0.0375
      6 C          -3.1776  -19.6241   21.9335 C.ar    1  UNL1        0.0031
      7 C          -3.1714  -18.2577   22.5524 C.ar    1  UNL1        0.0002
      8 C          -4.4642  -17.5325   22.7818 C.ar    1  UNL1        0.0028
      9 C          -5.7631  -18.1735   22.3924 C.ar    1  UNL1        0.0335
     10 C          -8.3055  -15.3850   22.1628 C.3     1  UNL1        0.0111
     11 C          -7.6408  -16.3906   23.0559 C.3     1  UNL1        0.0652
     12 C          -7.4328  -16.0814   24.5088 C.ar    1  UNL1        0.0628
     13 C          -8.5374  -16.3271   25.4935 C.ar    1  UNL1        0.0151
     14 C          -8.3294  -16.0180   26.9465 C.ar    1  UNL1        0.0028
     15 C          -7.0167  -15.4632   27.4148 C.ar    1  UNL1        0.0207
     16 C          -5.9122  -15.2175   26.4301 C.ar    1  UNL1        0.0985
     17 N          -6.1202  -15.5266   24.9771 N.ar    1  UNL1       -0.2478
     18 C          -9.5653  -18.7333   21.8485 C.3     1  UNL1        0.0815
     19 C         -10.2239  -18.2646   20.5850 C.3     1  UNL1        0.0802
     20 N         -11.4283  -17.3731   20.6532 N.3     1  UNL1       -0.2699
     21 C         -11.4409  -16.0713   19.9078 C.3     1  UNL1        0.0897
     22 C         -12.6200  -17.7832   21.4665 C.3     1  UNL1        0.0897
@<TRIPOS>BOND
     1    11    10    1
     2    11    12    1
     3    12    13   ar
     4    13    14   ar
     5    14    15   ar
     6    15    16   ar
     7    16    17   ar
     8    11     1    1
     9     1     2   ar
    10     2    18    1
    11    18    19    1
    12    19    20    1
    13    20    21    1
    14    20    22    1
    15     2     3   ar
    16     3     4   ar
    17     4     5   ar
    18     5     6   ar
    19     6     7   ar
    20     7     8   ar
    21     8     9   ar
    22    17    12   ar
    23     9     1   ar
    24     9     4   ar
@<TRIPOS>MOLECULE
*****
 22 24 0 0 0
SMALL
GASTEIGER

@<TRIPOS>ATOM
      1 C         -13.2765   -4.8703   19.4535 C.ar    1  UNL1        0.0164
      2 C         -14.3063   -5.9426   19.2545 C.ar    1  UNL1        0.1206
      3 O         -13.5985   -7.1881   18.8100 O.2     1  UNL1       -0.4580
      4 C         -12.1313   -6.8856   18.7342 C.ar    1  UNL1        0.1445
      5 C         -10.9507   -7.7294   18.3545 C.ar    1  UNL1        0.0375
      6 C          -9.5712   -7.1407   18.3725 C.ar    1  UNL1        0.0031
      7 C          -9.3723   -5.7081   18.7702 C.ar    1  UNL1        0.0002
      8 C         -10.5528   -4.8643   19.1499 C.ar    1  UNL1        0.0028
      9 C         -11.9323   -5.4530   19.1320 C.ar    1  UNL1        0.0335
     10 C         -13.9396   -3.1850   21.3165 C.3     1  UNL1        0.0111
     11 C         -13.5440   -3.4623   19.8963 C.3     1  UNL1        0.0652
     12 C         -13.4160   -2.3316   18.9191 C.ar    1  UNL1        0.0628
     13 C         -12.1509   -1.5274   18.8641 C.ar    1  UNL1        0.0151
     14 C         -12.0228   -0.3967   17.8869 C.ar    1  UNL1        0.0028
     15 C         -13.1599   -0.0700   16.9647 C.ar    1  UNL1        0.0207
     16 C         -14.4249   -0.8741   17.0197 C.ar    1  UNL1        0.0985
     17 N         -14.5530   -2.0048   17.9969 N.ar    1  UNL1       -0.2478
     18 C         -15.7844   -5.7953   19.4634 C.3     1  UNL1        0.0815
     19 C         -16.7296   -6.7946   18.8652 C.3     1  UNL1        0.0802
     20 N         -17.3219   -7.8735   19.7226 N.3     1  UNL1       -0.2699
     21 C         -18.7391   -7.7584   20.2006 C.3     1  UNL1        0.0897
     22 C         -16.4970   -9.0674   20.1021 C.3     1  UNL1        0.0897
@<TRIPOS>BOND
     1    11    10    1
     2    11    12    1
     3    12    13   ar
     4    13    14   ar
     5    14    15   ar
     6    15    16   ar
     7    16    17   ar
     8    11     1    1
     9     1     2   ar
    10     2    18    1
    11    18    19    1
    12    19    20    1
    13    20    21    1
    14    20    22    1
    15     2     3   ar
    16     3     4   ar
    17     4     5   ar
    18     5     6   ar
    19     6     7   ar
    20     7     8   ar
    21     8     9   ar
    22    17    12   ar
    23     9     1   ar
    24     9     4   ar
@<TRIPOS>MOLECULE
*****
 22 24 0 0 0
SMALL
GASTEIGER

@<TRIPOS>ATOM
      1 C           4.1011   -2.1871   19.2755 C.ar    1  UNL1        0.0164
      2 C           5.1099   -1.6912   18.2823 C.ar    1  UNL1        0.1206
      3 O           4.6201   -0.3819   17.7386 O.2     1  UNL1       -0.4580
      4 C           3.3086   -0.0685   18.3957 C.ar    1  UNL1        0.1445
      5 C           2.3651    1.0886   18.2519 C.ar    1  UNL1        0.0375
      6 C           1.1008    1.1300   19.0580 C.ar    1  UNL1        0.0031
      7 C           0.7800    0.0143   20.0078 C.ar    1  UNL1        0.0002
      8 C           1.7236   -1.1428   20.1517 C.ar    1  UNL1        0.0028
      9 C           2.9879   -1.1842   19.3456 C.ar    1  UNL1        0.0335
     10 C           3.5895   -4.7232   19.5137 C.3     1  UNL1        0.0111
     11 C           4.1900   -3.4621   20.0607 C.3     1  UNL1        0.0652
     12 C           4.8791   -3.4760   21.3929 C.ar    1  UNL1        0.0628
     13 C           4.2843   -2.7340   22.5529 C.ar    1  UNL1        0.0151
     14 C           4.9734   -2.7479   23.8852 C.ar    1  UNL1        0.0028
     15 C           6.2575   -3.5039   24.0574 C.ar    1  UNL1        0.0207
     16 C           6.8524   -4.2459   22.8974 C.ar    1  UNL1        0.0985
     17 N           6.1632   -4.2320   21.5652 N.ar    1  UNL1       -0.2478
     18 C           6.3847   -2.3832   17.9000 C.3     1  UNL1        0.0815
     19 C           7.6408   -2.1248   18.6779 C.3     1  UNL1        0.0802
     20 N           7.7792   -0.8664   19.4825 N.3     1  UNL1       -0.2699
     21 C           8.1731    0.4148   18.8090 C.3     1  UNL1        0.0897
     22 C           7.5239   -0.8892   20.9604 C.3     1  UNL1        0.0897
@<TRIPOS>BOND
     1    11    10    1
     2    11    12    1
     3    12    13   ar
     4    13    14   ar
     5    14    15   ar
     6    15    16   ar
     7    16    17   ar
     8    11     1    1
     9     1     2   ar
    10     2    18    1
    11    18    19    1
    12    19    20    1
    13    20    21    1
    14    20    22    1
    15     2     3   ar
    16     3     4   ar
    17     4     5   ar
    18     5     6   ar
    19     6     7   ar
    20     7     8   ar
    21     8     9   ar
    22    17    12   ar
    23     9     1   ar
    24     9     4   ar
