@<TRIPOS>MOLECULE
*****
 35 38 0 0 0
SMALL
GASTEIGER

@<TRIPOS>ATOM
      1 N           2.3273    0.9429   22.9555 N.ar    1  UNL1       -0.2459
      2 C           2.7173    0.5141   24.3390 C.ar    1  UNL1        0.1116
      3 C           1.5655    0.8024   25.2557 C.ar    1  UNL1        0.0908
      4 C           0.4637    1.4095   24.4387 C.ar    1  UNL1        0.1363
      5 N           0.9345    1.4962   23.0171 N.ar    1  UNL1       -0.1661
      6 N           1.5231    0.5314   26.7303 N.am    1  UNL1       -0.2766
      7 C           2.1206    1.5159   27.6914 C.2     1  UNL1        0.2706
      8 O           2.7605    2.7716   27.1777 O.2     1  UNL1       -0.2680
      9 H           1.1031   -0.2928   27.0675 H       1  UNL1        0.1553
     10 C           2.0781    1.2449   29.1660 C.ar    1  UNL1        0.1765
     11 C           3.1129    0.4994   29.9556 C.ar    1  UNL1        0.0704
     12 C           2.6677    0.4655   31.3876 C.ar    1  UNL1        0.2113
     13 O           1.3578    1.1900   31.4831 O.2     1  UNL1       -0.3501
     14 N           0.9933    1.6717   30.1100 N.ar    1  UNL1       -0.0722
     15 C           3.4033   -0.1797   32.5246 C.ar    1  UNL1        0.1824
     16 C           4.0085    0.5303   33.6992 C.ar    1  UNL1        0.0440
     17 C           4.6421   -0.4993   34.5870 C.ar    1  UNL1        0.0439
     18 C           4.4286   -1.8457   33.9611 C.ar    1  UNL1        0.1798
     19 O           3.6630   -1.6481   32.6865 O.2     1  UNL1       -0.4472
     20 C           3.7368    2.0762   21.0904 C.3     1  UNL1        0.0312
     21 C           3.1804    0.8369   21.7262 C.3     1  UNL1        0.1274
     22 C           3.4770   -0.5085   21.1329 C.ar    1  UNL1        0.0038
     23 C           4.5825   -1.3502   21.6979 C.ar    1  UNL1       -0.0025
     24 C           4.8790   -2.6955   21.1046 C.ar    1  UNL1        0.0036
     25 C           4.0700   -3.1991   19.9461 C.ar    1  UNL1        0.0714
     26 C           2.9645   -2.3574   19.3811 C.ar    1  UNL1        0.0074
     27 C           2.6680   -1.0121   19.9744 C.ar    1  UNL1        0.0692
     28 C           4.3666   -4.5445   19.3528 C.3     1  UNL1        0.4186
     29 F           4.6633   -5.8899   18.7594 F       1  UNL1       -0.1659
     30 F           2.9134   -4.7207   19.0256 F       1  UNL1       -0.1659
     31 F           5.8199   -4.3684   19.6799 F       1  UNL1       -0.1659
     32 C           1.5624   -0.1703   19.4094 C.3     1  UNL1        0.4183
     33 F           0.4570    0.6714   18.8443 F       1  UNL1       -0.1659
     34 F           2.5176    0.4141   18.4114 F       1  UNL1       -0.1659
     35 F           0.6073   -0.7548   20.4074 F       1  UNL1       -0.1659
@<TRIPOS>BOND
     1    21    20    1
     2    21    22    1
     3    22    23   ar
     4    23    24   ar
     5    24    25   ar
     6    25    28    1
     7    28    29    1
     8    28    30    1
     9    28    31    1
    10    25    26   ar
    11    26    27   ar
    12    27    32    1
    13    32    33    1
    14    32    34    1
    15    32    35    1
    16    21     1    1
    17     1     2   ar
    18     2     3   ar
    19     3     6    1
    20     6     7   am
    21     7     8    2
    22     7    10    1
    23    10    11   ar
    24    11    12   ar
    25    12    15    1
    26    15    16   ar
    27    16    17   ar
    28    17    18   ar
    29    18    19   ar
    30    12    13   ar
    31    13    14   ar
    32     3     4   ar
    33     4     5   ar
    34    27    22   ar
    35     5     1   ar
    36    14    10   ar
    37    19    15   ar
    38     6     9    1
@<TRIPOS>MOLECULE
*****
 35 38 0 0 0
SMALL
GASTEIGER

@<TRIPOS>ATOM
      1 N           4.4798   -2.3446   21.1659 N.ar    1  UNL1       -0.2459
      2 C           4.5510   -3.4456   22.1821 C.ar    1  UNL1        0.1116
      3 C           5.5719   -3.0609   23.2116 C.ar    1  UNL1        0.0908
      4 C           6.1317   -1.7222   22.8316 C.ar    1  UNL1        0.1363
      5 N           5.4567   -1.2795   21.5673 N.ar    1  UNL1       -0.1661
      6 N           5.9641   -3.8725   24.4106 N.am    1  UNL1       -0.2766
      7 C           6.9644   -4.9815   24.2709 C.2     1  UNL1        0.2706
      8 O           7.5724   -5.2789   22.9323 O.2     1  UNL1       -0.2680
      9 H           5.5651   -3.6772   25.2891 H       1  UNL1        0.1553
     10 C           7.3566   -5.7931   25.4699 C.ar    1  UNL1        0.1765
     11 C           7.3690   -5.3159   26.8919 C.ar    1  UNL1        0.0704
     12 C           7.8254   -6.4523   27.7581 C.ar    1  UNL1        0.2113
     13 O           8.0951   -7.6317   26.8715 O.2     1  UNL1       -0.3501
     14 N           7.8054   -7.2243   25.4572 N.ar    1  UNL1       -0.0722
     15 C           7.9842   -6.4156   29.2493 C.ar    1  UNL1        0.1824
     16 C           9.1756   -6.8996   30.0213 C.ar    1  UNL1        0.0440
     17 C           8.9072   -6.6716   31.4793 C.ar    1  UNL1        0.0439
     18 C           7.5497   -6.0466   31.6084 C.ar    1  UNL1        0.1798
     19 O           6.9793   -5.8883   30.2302 O.2     1  UNL1       -0.4472
     20 C           3.5369   -3.4940   19.0352 C.3     1  UNL1        0.0312
     21 C           3.5883   -2.3142   19.9600 C.3     1  UNL1        0.1274
     22 C           2.7480   -1.1038   19.6789 C.ar    1  UNL1        0.0038
     23 C           1.4859   -0.8702   20.4550 C.ar    1  UNL1       -0.0025
     24 C           0.6457    0.3402   20.1739 C.ar    1  UNL1        0.0036
     25 C           1.0677    1.3170   19.1166 C.ar    1  UNL1        0.0714
     26 C           2.3298    1.0834   18.3405 C.ar    1  UNL1        0.0074
     27 C           3.1700   -0.1270   18.6216 C.ar    1  UNL1        0.0692
     28 C           0.2274    2.5274   18.8355 C.3     1  UNL1        0.4186
     29 F          -0.6128    3.7377   18.5545 F       1  UNL1       -0.1659
     30 F           1.1888    2.9457   17.7628 F       1  UNL1       -0.1659
     31 F          -0.7339    2.1091   19.9083 F       1  UNL1       -0.1659
     32 C           4.4322   -0.3606   17.8454 C.3     1  UNL1        0.4183
     33 F           5.6943   -0.5942   17.0693 F       1  UNL1       -0.1659
     34 F           5.2177    0.3455   18.9105 F       1  UNL1       -0.1659
     35 F           3.6466   -1.0667   16.7804 F       1  UNL1       -0.1659
@<TRIPOS>BOND
     1    21    20    1
     2    21    22    1
     3    22    23   ar
     4    23    24   ar
     5    24    25   ar
     6    25    28    1
     7    28    29    1
     8    28    30    1
     9    28    31    1
    10    25    26   ar
    11    26    27   ar
    12    27    32    1
    13    32    33    1
    14    32    34    1
    15    32    35    1
    16    21     1    1
    17     1     2   ar
    18     2     3   ar
    19     3     6    1
    20     6     7   am
    21     7     8    2
    22     7    10    1
    23    10    11   ar
    24    11    12   ar
    25    12    15    1
    26    15    16   ar
    27    16    17   ar
    28    17    18   ar
    29    18    19   ar
    30    12    13   ar
    31    13    14   ar
    32     3     4   ar
    33     4     5   ar
    34    27    22   ar
    35     5     1   ar
    36    14    10   ar
    37    19    15   ar
    38     6     9    1
@<TRIPOS>MOLECULE
*****
 35 38 0 0 0
SMALL
GASTEIGER

@<TRIPOS>ATOM
      1 N           6.8419   -3.7308   22.3154 N.ar    1  UNL1       -0.2459
      2 C           6.2693   -3.3654   23.6528 C.ar    1  UNL1        0.1116
      3 C           6.7097   -4.4013   24.6443 C.ar    1  UNL1        0.0908
      4 C           7.5545   -5.4069   23.9196 C.ar    1  UNL1        0.1363
      5 N           7.6362   -4.9925   22.4803 N.ar    1  UNL1       -0.1661
      6 N           6.3657   -4.4271   26.1041 N.am    1  UNL1       -0.2766
      7 C           7.3992   -4.0531   27.1248 C.2     1  UNL1        0.2706
      8 O           8.7767   -3.6534   26.6858 O.2     1  UNL1       -0.2680
      9 H           5.4616   -4.6894   26.3922 H       1  UNL1        0.1553
     10 C           7.0553   -4.0788   28.5846 C.ar    1  UNL1        0.1765
     11 C           6.7117   -2.8888   29.4306 C.ar    1  UNL1        0.0704
     12 C           6.4385   -3.3737   30.8236 C.ar    1  UNL1        0.2113
     13 O           6.6133   -4.8634   30.8385 O.2     1  UNL1       -0.3501
     14 N           6.9945   -5.2993   29.4547 N.ar    1  UNL1       -0.0722
     15 C           6.0575   -2.5189   31.9958 C.ar    1  UNL1        0.1824
     16 C           4.8413   -2.6936   32.8561 C.ar    1  UNL1        0.0440
     17 C           4.8580   -1.6220   33.9055 C.ar    1  UNL1        0.0439
     18 C           6.0846   -0.7850   33.6939 C.ar    1  UNL1        0.1798
     19 O           6.8260   -1.3393   32.5136 O.2     1  UNL1       -0.4472
     20 C           7.7465   -2.9432   20.0108 C.3     1  UNL1        0.0312
     21 C           6.6533   -2.9683   21.0375 C.3     1  UNL1        0.1274
     22 C           5.3714   -2.2309   20.7863 C.ar    1  UNL1        0.0038
     23 C           5.1765   -0.8532   21.3464 C.ar    1  UNL1       -0.0025
     24 C           3.8946   -0.1159   21.0952 C.ar    1  UNL1        0.0036
     25 C           2.8076   -0.7563   20.2839 C.ar    1  UNL1        0.0714
     26 C           3.0025   -2.1341   19.7238 C.ar    1  UNL1        0.0074
     27 C           4.2844   -2.8714   19.9750 C.ar    1  UNL1        0.0692
     28 C           1.5257   -0.0190   20.0327 C.3     1  UNL1        0.4186
     29 F           0.2438    0.7183   19.7815 F       1  UNL1       -0.1659
     30 F           2.2916    1.2622   19.8846 F       1  UNL1       -0.1659
     31 F           0.7598   -1.3001   20.1808 F       1  UNL1       -0.1659
     32 C           4.4793   -4.2492   19.4149 C.3     1  UNL1        0.4183
     33 F           4.6742   -5.6270   18.8548 F       1  UNL1       -0.1659
     34 F           3.9026   -4.8399   20.6673 F       1  UNL1       -0.1659
     35 F           5.0559   -3.6586   18.1625 F       1  UNL1       -0.1659
@<TRIPOS>BOND
     1    21    20    1
     2    21    22    1
     3    22    23   ar
     4    23    24   ar
     5    24    25   ar
     6    25    28    1
     7    28    29    1
     8    28    30    1
     9    28    31    1
    10    25    26   ar
    11    26    27   ar
    12    27    32    1
    13    32    33    1
    14    32    34    1
    15    32    35    1
    16    21     1    1
    17     1     2   ar
    18     2     3   ar
    19     3     6    1
    20     6     7   am
    21     7     8    2
    22     7    10    1
    23    10    11   ar
    24    11    12   ar
    25    12    15    1
    26    15    16   ar
    27    16    17   ar
    28    17    18   ar
    29    18    19   ar
    30    12    13   ar
    31    13    14   ar
    32     3     4   ar
    33     4     5   ar
    34    27    22   ar
    35     5     1   ar
    36    14    10   ar
    37    19    15   ar
    38     6     9    1
@<TRIPOS>MOLECULE
*****
 35 38 0 0 0
SMALL
GASTEIGER

@<TRIPOS>ATOM
      1 N           5.4216   -3.8605   21.4801 N.ar    1  UNL1       -0.2459
      2 C           4.9853   -3.5992   22.8913 C.ar    1  UNL1        0.1116
      3 C           6.1529   -3.8660   23.7944 C.ar    1  UNL1        0.0908
      4 C           7.3108   -4.2922   22.9414 C.ar    1  UNL1        0.1363
      5 N           6.8588   -4.2888   21.5111 N.ar    1  UNL1       -0.1661
      6 N           6.1612   -3.7304   25.2882 N.am    1  UNL1       -0.2766
      7 C           6.7080   -4.8383   26.1389 C.2     1  UNL1        0.2706
      8 O           7.2466   -6.0818   25.4956 O.2     1  UNL1       -0.2680
      9 H           5.8077   -2.9143   25.7104 H       1  UNL1        0.1553
     10 C           6.7162   -4.7027   27.6327 C.ar    1  UNL1        0.1765
     11 C           6.4090   -3.4549   28.4065 C.ar    1  UNL1        0.0704
     12 C           6.5361   -3.7722   29.8670 C.ar    1  UNL1        0.2113
     13 O           6.9218   -5.2160   29.9959 O.2     1  UNL1       -0.3501
     14 N           7.0331   -5.7911   28.6150 N.ar    1  UNL1       -0.0722
     15 C           6.3160   -2.8138   30.9998 C.ar    1  UNL1        0.1824
     16 C           5.7944   -3.1636   32.3619 C.ar    1  UNL1        0.0440
     17 C           5.7350   -1.9034   33.1732 C.ar    1  UNL1        0.0439
     18 C           6.2198   -0.7747   32.3124 C.ar    1  UNL1        0.1798
     19 O           6.5789   -1.3373   30.9692 O.2     1  UNL1       -0.4472
     20 C           4.1318   -4.9387   19.4992 C.3     1  UNL1        0.0312
     21 C           4.5701   -3.7185   20.2534 C.3     1  UNL1        0.1274
     22 C           4.1569   -2.3561   19.7809 C.ar    1  UNL1        0.0038
     23 C           2.7840   -1.8386   20.0925 C.ar    1  UNL1       -0.0025
     24 C           2.3708   -0.4763   19.6200 C.ar    1  UNL1        0.0036
     25 C           3.3307    0.3686   18.8359 C.ar    1  UNL1        0.0714
     26 C           4.7037   -0.1488   18.5243 C.ar    1  UNL1        0.0074
     27 C           5.1168   -1.5112   18.9968 C.ar    1  UNL1        0.0692
     28 C           2.9175    1.7310   18.3633 C.3     1  UNL1        0.4186
     29 F           2.5044    3.0934   17.8909 F       1  UNL1       -0.1659
     30 F           1.4878    1.2803   18.3137 F       1  UNL1       -0.1659
     31 F           4.3473    2.1818   18.4130 F       1  UNL1       -0.1659
     32 C           6.4898   -2.0287   18.6852 C.3     1  UNL1        0.4183
     33 F           7.8628   -2.5461   18.3737 F       1  UNL1       -0.1659
     34 F           7.0317   -1.3151   19.8882 F       1  UNL1       -0.1659
     35 F           5.9480   -2.7422   17.4823 F       1  UNL1       -0.1659
@<TRIPOS>BOND
     1    21    20    1
     2    21    22    1
     3    22    23   ar
     4    23    24   ar
     5    24    25   ar
     6    25    28    1
     7    28    29    1
     8    28    30    1
     9    28    31    1
    10    25    26   ar
    11    26    27   ar
    12    27    32    1
    13    32    33    1
    14    32    34    1
    15    32    35    1
    16    21     1    1
    17     1     2   ar
    18     2     3   ar
    19     3     6    1
    20     6     7   am
    21     7     8    2
    22     7    10    1
    23    10    11   ar
    24    11    12   ar
    25    12    15    1
    26    15    16   ar
    27    16    17   ar
    28    17    18   ar
    29    18    19   ar
    30    12    13   ar
    31    13    14   ar
    32     3     4   ar
    33     4     5   ar
    34    27    22   ar
    35     5     1   ar
    36    14    10   ar
    37    19    15   ar
    38     6     9    1
@<TRIPOS>MOLECULE
*****
 35 38 0 0 0
SMALL
GASTEIGER

@<TRIPOS>ATOM
      1 N           4.6357   -3.2213   20.7930 N.ar    1  UNL1       -0.2459
      2 C           4.4004   -3.1265   22.2714 C.ar    1  UNL1        0.1116
      3 C           5.6968   -3.4195   22.9668 C.ar    1  UNL1        0.0908
      4 C           6.7333   -3.6954   21.9182 C.ar    1  UNL1        0.1363
      5 N           6.0775   -3.5729   20.5747 N.ar    1  UNL1       -0.1661
      6 N           5.9178   -3.4341   24.4504 N.am    1  UNL1       -0.2766
      7 C           6.4090   -2.2001   25.1476 C.2     1  UNL1        0.2706
      8 O           6.6791   -0.9516   24.3612 O.2     1  UNL1       -0.2680
      9 H           5.7405   -4.2535   24.9664 H       1  UNL1        0.1553
     10 C           6.6300   -2.2147   26.6311 C.ar    1  UNL1        0.1765
     11 C           6.4620   -3.3992   27.5360 C.ar    1  UNL1        0.0704
     12 C           6.7861   -2.9638   28.9344 C.ar    1  UNL1        0.2113
     13 O           7.1544   -1.5103   28.8938 O.2     1  UNL1       -0.3501
     14 N           7.0579   -1.0473   27.4702 N.ar    1  UNL1       -0.0722
     15 C           6.7484   -3.8300   30.1585 C.ar    1  UNL1        0.1824
     16 C           7.2049   -5.2562   30.2438 C.ar    1  UNL1        0.0440
     17 C           6.9863   -5.7296   31.6502 C.ar    1  UNL1        0.0439
     18 C           6.3946   -4.5959   32.4341 C.ar    1  UNL1        0.1798
     19 O           6.2475   -3.4219   31.5122 O.2     1  UNL1       -0.4472
     20 C           3.1226   -4.1610   18.9016 C.3     1  UNL1        0.0312
     21 C           3.6094   -3.0028   19.7211 C.3     1  UNL1        0.1274
     22 C           3.0699   -1.6261   19.4687 C.ar    1  UNL1        0.0038
     23 C           1.7578   -1.2134   20.0669 C.ar    1  UNL1       -0.0025
     24 C           1.2184    0.1633   19.8145 C.ar    1  UNL1        0.0036
     25 C           1.9911    1.1273   18.9638 C.ar    1  UNL1        0.0714
     26 C           3.3032    0.7146   18.3656 C.ar    1  UNL1        0.0074
     27 C           3.8426   -0.6621   18.6180 C.ar    1  UNL1        0.0692
     28 C           1.4516    2.5040   18.7114 C.3     1  UNL1        0.4186
     29 F           0.9121    3.8806   18.4590 F       1  UNL1       -0.1659
     30 F           2.5617    3.0896   19.5327 F       1  UNL1       -0.1659
     31 F           0.3414    1.9183   17.8901 F       1  UNL1       -0.1659
     32 C           5.1548   -1.0748   18.0197 C.3     1  UNL1        0.4183
     33 F           6.4669   -1.4876   17.4215 F       1  UNL1       -0.1659
     34 F           4.4475   -1.5157   16.7727 F       1  UNL1       -0.1659
     35 F           5.8621   -0.6340   19.2668 F       1  UNL1       -0.1659
@<TRIPOS>BOND
     1    21    20    1
     2    21    22    1
     3    22    23   ar
     4    23    24   ar
     5    24    25   ar
     6    25    28    1
     7    28    29    1
     8    28    30    1
     9    28    31    1
    10    25    26   ar
    11    26    27   ar
    12    27    32    1
    13    32    33    1
    14    32    34    1
    15    32    35    1
    16    21     1    1
    17     1     2   ar
    18     2     3   ar
    19     3     6    1
    20     6     7   am
    21     7     8    2
    22     7    10    1
    23    10    11   ar
    24    11    12   ar
    25    12    15    1
    26    15    16   ar
    27    16    17   ar
    28    17    18   ar
    29    18    19   ar
    30    12    13   ar
    31    13    14   ar
    32     3     4   ar
    33     4     5   ar
    34    27    22   ar
    35     5     1   ar
    36    14    10   ar
    37    19    15   ar
    38     6     9    1
@<TRIPOS>MOLECULE
*****
 35 38 0 0 0
SMALL
GASTEIGER

@<TRIPOS>ATOM
      1 N           1.4989    2.2797   19.6930 N.ar    1  UNL1       -0.2459
      2 C           0.4825    2.1445   20.7878 C.ar    1  UNL1        0.1116
      3 C          -0.8115    2.7193   20.2928 C.ar    1  UNL1        0.0908
      4 C          -0.5949    3.2099   18.8919 C.ar    1  UNL1        0.1363
      5 N           0.8330    2.9382   18.5212 N.ar    1  UNL1       -0.1661
      6 N          -2.0965    2.7911   21.0633 N.am    1  UNL1       -0.2766
      7 C          -2.5906    4.1111   21.5764 C.2     1  UNL1        0.2706
      8 O          -1.7997    5.3595   21.3189 O.2     1  UNL1       -0.2680
      9 H          -2.6155    1.9718   21.2322 H       1  UNL1        0.1553
     10 C          -3.8755    4.1829   22.3469 C.ar    1  UNL1        0.1765
     11 C          -4.1203    5.0028   23.5789 C.ar    1  UNL1        0.0704
     12 C          -5.5374    4.7739   24.0141 C.ar    1  UNL1        0.2113
     13 O          -6.1685    3.8124   23.0511 O.2     1  UNL1       -0.3501
     14 N          -5.1414    3.4471   22.0207 N.ar    1  UNL1       -0.0722
     15 C          -6.2060    5.3971   25.2034 C.ar    1  UNL1        0.1824
     16 C          -7.4307    6.2626   25.1735 C.ar    1  UNL1        0.0440
     17 C          -7.7488    6.6645   26.5831 C.ar    1  UNL1        0.0439
     18 C          -6.7208    6.0474   27.4844 C.ar    1  UNL1        0.1798
     19 O          -5.7672    5.2641   26.6317 O.2     1  UNL1       -0.4472
     20 C           4.0041    2.8148   20.1261 C.3     1  UNL1        0.0312
     21 C           2.9298    1.8347   19.7584 C.3     1  UNL1        0.1274
     22 C           3.2865    0.4093   19.4561 C.ar    1  UNL1        0.0038
     23 C           3.6518    0.0080   18.0577 C.ar    1  UNL1       -0.0025
     24 C           4.0084   -1.4172   17.7555 C.ar    1  UNL1        0.0036
     25 C           3.9999   -2.4412   18.8516 C.ar    1  UNL1        0.0714
     26 C           3.6346   -2.0398   20.2500 C.ar    1  UNL1        0.0074
     27 C           3.2779   -0.6146   20.5522 C.ar    1  UNL1        0.0692
     28 C           4.3565   -3.8665   18.5493 C.3     1  UNL1        0.4186
     29 F           4.7132   -5.2917   18.2470 F       1  UNL1       -0.1659
     30 F           5.6011   -3.4067   17.8495 F       1  UNL1       -0.1659
     31 F           3.1120   -4.3263   19.2491 F       1  UNL1       -0.1659
     32 C           2.9127   -0.2132   21.9506 C.3     1  UNL1        0.4183
     33 F           2.5474    0.1882   23.3490 F       1  UNL1       -0.1659
     34 F           1.4806   -0.5663   21.6779 F       1  UNL1       -0.1659
     35 F           4.3447    0.1399   22.2234 F       1  UNL1       -0.1659
@<TRIPOS>BOND
     1    21    20    1
     2    21    22    1
     3    22    23   ar
     4    23    24   ar
     5    24    25   ar
     6    25    28    1
     7    28    29    1
     8    28    30    1
     9    28    31    1
    10    25    26   ar
    11    26    27   ar
    12    27    32    1
    13    32    33    1
    14    32    34    1
    15    32    35    1
    16    21     1    1
    17     1     2   ar
    18     2     3   ar
    19     3     6    1
    20     6     7   am
    21     7     8    2
    22     7    10    1
    23    10    11   ar
    24    11    12   ar
    25    12    15    1
    26    15    16   ar
    27    16    17   ar
    28    17    18   ar
    29    18    19   ar
    30    12    13   ar
    31    13    14   ar
    32     3     4   ar
    33     4     5   ar
    34    27    22   ar
    35     5     1   ar
    36    14    10   ar
    37    19    15   ar
    38     6     9    1
@<TRIPOS>MOLECULE
*****
 35 38 0 0 0
SMALL
GASTEIGER

@<TRIPOS>ATOM
      1 N           2.8676    0.7615   18.3648 N.ar    1  UNL1       -0.2459
      2 C           1.3794    0.9204   18.4648 C.ar    1  UNL1        0.1116
      3 C           1.0885    2.3483   18.8205 C.ar    1  UNL1        0.0908
      4 C           2.3969    3.0719   18.9403 C.ar    1  UNL1        0.1363
      5 N           3.4964    2.0912   18.6587 N.ar    1  UNL1       -0.1661
      6 N          -0.2720    2.9473   19.0211 N.am    1  UNL1       -0.2766
      7 C          -1.0296    2.6804   20.2879 C.2     1  UNL1        0.2706
      8 O          -0.4267    1.8145   21.3541 O.2     1  UNL1       -0.2680
      9 H          -0.6677    3.5156   18.3213 H       1  UNL1        0.1553
     10 C          -2.3900    3.2795   20.4885 C.ar    1  UNL1        0.1765
     11 C          -3.1189    3.3946   21.7944 C.ar    1  UNL1        0.0704
     12 C          -4.4399    4.0548   21.5313 C.ar    1  UNL1        0.2113
     13 O          -4.5274    4.3478   20.0629 O.2     1  UNL1       -0.3501
     14 N          -3.2605    3.8686   19.4183 N.ar    1  UNL1       -0.0722
     15 C          -5.4891    4.3673   22.5568 C.ar    1  UNL1        0.1824
     16 C          -6.9729    4.2904   22.3517 C.ar    1  UNL1        0.0440
     17 C          -7.6395    4.6870   23.6355 C.ar    1  UNL1        0.0439
     18 C          -6.5676    5.0090   24.6342 C.ar    1  UNL1        0.1798
     19 O          -5.2385    4.8114   23.9675 O.2     1  UNL1       -0.4472
     20 C           3.7192   -0.9456   16.6012 C.3     1  UNL1        0.0312
     21 C           3.5986   -0.5048   18.0298 C.3     1  UNL1        0.1274
     22 C           4.2091   -1.3302   19.1236 C.ar    1  UNL1        0.0038
     23 C           3.3438   -2.2275   19.9579 C.ar    1  UNL1       -0.0025
     24 C           3.9543   -3.0528   21.0516 C.ar    1  UNL1        0.0036
     25 C           5.4299   -2.9808   21.3109 C.ar    1  UNL1        0.0714
     26 C           6.2952   -2.0835   20.4765 C.ar    1  UNL1        0.0074
     27 C           5.6847   -1.2582   19.3829 C.ar    1  UNL1        0.0692
     28 C           6.0404   -3.8062   22.4046 C.3     1  UNL1        0.4186
     29 F           6.6507   -4.6316   23.4983 F       1  UNL1       -0.1659
     30 F           7.2792   -3.9854   21.5780 F       1  UNL1       -0.1659
     31 F           4.8016   -3.6271   23.2311 F       1  UNL1       -0.1659
     32 C           6.5499   -0.3608   18.5485 C.3     1  UNL1        0.4183
     33 F           7.4151    0.5366   17.7141 F       1  UNL1       -0.1659
     34 F           6.2897    0.7718   19.4968 F       1  UNL1       -0.1659
     35 F           6.8102   -1.4934   17.6001 F       1  UNL1       -0.1659
@<TRIPOS>BOND
     1    21    20    1
     2    21    22    1
     3    22    23   ar
     4    23    24   ar
     5    24    25   ar
     6    25    28    1
     7    28    29    1
     8    28    30    1
     9    28    31    1
    10    25    26   ar
    11    26    27   ar
    12    27    32    1
    13    32    33    1
    14    32    34    1
    15    32    35    1
    16    21     1    1
    17     1     2   ar
    18     2     3   ar
    19     3     6    1
    20     6     7   am
    21     7     8    2
    22     7    10    1
    23    10    11   ar
    24    11    12   ar
    25    12    15    1
    26    15    16   ar
    27    16    17   ar
    28    17    18   ar
    29    18    19   ar
    30    12    13   ar
    31    13    14   ar
    32     3     4   ar
    33     4     5   ar
    34    27    22   ar
    35     5     1   ar
    36    14    10   ar
    37    19    15   ar
    38     6     9    1
@<TRIPOS>MOLECULE
*****
 35 38 0 0 0
SMALL
GASTEIGER

@<TRIPOS>ATOM
      1 N           4.7527   -0.1572   18.7801 N.ar    1  UNL1       -0.2459
      2 C           3.2567   -0.0702   18.7124 C.ar    1  UNL1        0.1116
      3 C           2.8826    1.3749   18.5648 C.ar    1  UNL1        0.0908
      4 C           4.1473    2.1810   18.5412 C.ar    1  UNL1        0.1363
      5 N           5.3031    1.2341   18.6743 N.ar    1  UNL1       -0.1661
      6 N           1.4885    1.9183   18.4593 N.am    1  UNL1       -0.2766
      7 C           0.7810    2.4117   19.6865 C.2     1  UNL1        0.2706
      8 O           1.4676    2.3616   21.0192 O.2     1  UNL1       -0.2680
      9 H           1.0379    1.9512   17.5846 H       1  UNL1        0.1553
     10 C          -0.6131    2.9552   19.5810 C.ar    1  UNL1        0.1765
     11 C          -1.6509    2.9367   20.6639 C.ar    1  UNL1        0.0704
     12 C          -2.8933    3.5827   20.1262 C.ar    1  UNL1        0.2113
     13 O          -2.6234    4.0004   18.7110 O.2     1  UNL1       -0.3501
     14 N          -1.2140    3.6125   18.3740 N.ar    1  UNL1       -0.0722
     15 C          -4.1798    3.7769   20.8726 C.ar    1  UNL1        0.1824
     16 C          -4.4624    3.3255   22.2748 C.ar    1  UNL1        0.0440
     17 C          -5.8668    3.7262   22.6167 C.ar    1  UNL1        0.0439
     18 C          -6.4523    4.4252   21.4257 C.ar    1  UNL1        0.1798
     19 O          -5.4097    4.4566   20.3478 O.2     1  UNL1       -0.4472
     20 C           6.1809   -2.0518   17.7215 C.3     1  UNL1        0.0312
     21 C           5.5569   -1.4147   18.9276 C.3     1  UNL1        0.1274
     22 C           5.7373   -2.0352   20.2814 C.ar    1  UNL1        0.0038
     23 C           6.7576   -1.4804   21.2308 C.ar    1  UNL1       -0.0025
     24 C           6.9379   -2.1008   22.5844 C.ar    1  UNL1        0.0036
     25 C           6.0979   -3.2760   22.9888 C.ar    1  UNL1        0.0714
     26 C           5.0777   -3.8308   22.0394 C.ar    1  UNL1        0.0074
     27 C           4.8974   -3.2103   20.6858 C.ar    1  UNL1        0.0692
     28 C           6.2783   -3.8964   24.3426 C.3     1  UNL1        0.4186
     29 F           6.4586   -4.5168   25.6963 F       1  UNL1       -0.1659
     30 F           7.1876   -4.9304   23.7476 F       1  UNL1       -0.1659
     31 F           5.3689   -2.8625   24.9375 F       1  UNL1       -0.1659
     32 C           3.8771   -3.7651   19.7363 C.3     1  UNL1        0.4183
     33 F           2.8569   -4.3198   18.7869 F       1  UNL1       -0.1659
     34 F           4.8784   -4.7688   19.2467 F       1  UNL1       -0.1659
     35 F           2.8757   -2.7614   20.2259 F       1  UNL1       -0.1659
@<TRIPOS>BOND
     1    21    20    1
     2    21    22    1
     3    22    23   ar
     4    23    24   ar
     5    24    25   ar
     6    25    28    1
     7    28    29    1
     8    28    30    1
     9    28    31    1
    10    25    26   ar
    11    26    27   ar
    12    27    32    1
    13    32    33    1
    14    32    34    1
    15    32    35    1
    16    21     1    1
    17     1     2   ar
    18     2     3   ar
    19     3     6    1
    20     6     7   am
    21     7     8    2
    22     7    10    1
    23    10    11   ar
    24    11    12   ar
    25    12    15    1
    26    15    16   ar
    27    16    17   ar
    28    17    18   ar
    29    18    19   ar
    30    12    13   ar
    31    13    14   ar
    32     3     4   ar
    33     4     5   ar
    34    27    22   ar
    35     5     1   ar
    36    14    10   ar
    37    19    15   ar
    38     6     9    1
@<TRIPOS>MOLECULE
*****
 35 38 0 0 0
SMALL
GASTEIGER

@<TRIPOS>ATOM
      1 N           4.7985   -0.3809   29.9127 N.ar    1  UNL1       -0.2459
      2 C           5.0068   -0.7809   28.4821 C.ar    1  UNL1        0.1116
      3 C           3.6588   -0.9268   27.8406 C.ar    1  UNL1        0.0908
      4 C           2.6173   -0.6170   28.8747 C.ar    1  UNL1        0.1363
      5 N           3.3217   -0.2797   30.1553 N.ar    1  UNL1       -0.1661
      6 N           3.3980   -1.3145   26.4152 N.am    1  UNL1       -0.2766
      7 C           3.7984   -0.3923   25.3019 C.2     1  UNL1        0.2706
      8 O           4.4595    0.9174   25.6141 O.2     1  UNL1       -0.2680
      9 H           2.9641   -2.1741   26.2103 H       1  UNL1        0.1553
     10 C           3.5377   -0.7800   23.8766 C.ar    1  UNL1        0.1765
     11 C           4.3620   -1.7266   23.0554 C.ar    1  UNL1        0.0704
     12 C           3.7405   -1.8207   21.6934 C.ar    1  UNL1        0.2113
     13 O           2.5322   -0.9322   21.6728 O.2     1  UNL1       -0.3501
     14 N           2.4067   -0.2890   23.0221 N.ar    1  UNL1       -0.0722
     15 C           4.2398   -2.6566   20.5523 C.ar    1  UNL1        0.1824
     16 C           3.9305   -4.1057   20.3194 C.ar    1  UNL1        0.0440
     17 C           4.6356   -4.5348   19.0670 C.ar    1  UNL1        0.0439
     18 C           5.3808   -3.3508   18.5258 C.ar    1  UNL1        0.1798
     19 O           5.1362   -2.1900   19.4438 O.2     1  UNL1       -0.4472
     20 C           7.3100   -0.0443   30.4862 C.3     1  UNL1        0.0312
     21 C           5.8775   -0.1268   30.9233 C.3     1  UNL1        0.1274
     22 C           5.5239    0.0447   32.3709 C.ar    1  UNL1        0.0038
     23 C           5.1902    1.4060   32.9052 C.ar    1  UNL1       -0.0025
     24 C           4.8366    1.5775   34.3528 C.ar    1  UNL1        0.0036
     25 C           4.8168    0.3877   35.2661 C.ar    1  UNL1        0.0714
     26 C           5.1506   -0.9735   34.7318 C.ar    1  UNL1        0.0074
     27 C           5.5041   -1.1450   33.2842 C.ar    1  UNL1        0.0692
     28 C           4.4633    0.5593   36.7137 C.3     1  UNL1        0.4186
     29 F           4.1097    0.7308   38.1613 F       1  UNL1       -0.1659
     30 F           3.3319    1.4662   36.3300 F       1  UNL1       -0.1659
     31 F           5.5946   -0.3477   37.0975 F       1  UNL1       -0.1659
     32 C           5.8379   -2.5064   32.7498 C.3     1  UNL1        0.4183
     33 F           6.1717   -3.8676   32.2155 F       1  UNL1       -0.1659
     34 F           4.3882   -2.7423   32.4455 F       1  UNL1       -0.1659
     35 F           7.2876   -2.2704   33.0541 F       1  UNL1       -0.1659
@<TRIPOS>BOND
     1    21    20    1
     2    21    22    1
     3    22    23   ar
     4    23    24   ar
     5    24    25   ar
     6    25    28    1
     7    28    29    1
     8    28    30    1
     9    28    31    1
    10    25    26   ar
    11    26    27   ar
    12    27    32    1
    13    32    33    1
    14    32    34    1
    15    32    35    1
    16    21     1    1
    17     1     2   ar
    18     2     3   ar
    19     3     6    1
    20     6     7   am
    21     7     8    2
    22     7    10    1
    23    10    11   ar
    24    11    12   ar
    25    12    15    1
    26    15    16   ar
    27    16    17   ar
    28    17    18   ar
    29    18    19   ar
    30    12    13   ar
    31    13    14   ar
    32     3     4   ar
    33     4     5   ar
    34    27    22   ar
    35     5     1   ar
    36    14    10   ar
    37    19    15   ar
    38     6     9    1
