@<TRIPOS>MOLECULE
*****
 35 39 0 0 0
SMALL
GASTEIGER

@<TRIPOS>ATOM
      1 N           2.2005    1.6276   32.2010 N.ar    1  UNL1       -0.2937
      2 C           1.8217    2.5179   33.3473 C.ar    1  UNL1        0.1798
      3 N           2.6069    2.0847   34.5497 N.ar    1  UNL1       -0.2195
      4 C           3.4709    0.9267   34.1466 C.ar    1  UNL1        0.1483
      5 C           4.4539    0.0930   34.9138 C.ar    1  UNL1        0.1516
      6 N           5.1858   -1.0233   34.2293 N.ar    1  UNL1       -0.2031
      7 C           4.9347   -1.3057   32.7777 C.ar    1  UNL1        0.2093
      8 N           3.9516   -0.4720   32.0106 N.ar    1  UNL1       -0.2003
      9 C           3.2197    0.6442   32.6950 C.ar    1  UNL1        0.1678
     10 C           0.7834    2.5759   28.7142 C.3     1  UNL1        0.0977
     11 C           0.8303    4.0211   29.1132 C.3     1  UNL1        0.0136
     12 C           1.2806    2.9624   30.0757 C.3     1  UNL1        0.0344
     13 C           1.6556    1.7068   30.8057 C.3     1  UNL1        0.1180
     14 C           1.3903    0.5445   29.8955 C.3     1  UNL1        0.1582
     15 O           1.6231   -0.9012   30.2208 O.3     1  UNL1       -0.3800
     16 C           0.8512    1.0816   28.6028 C.3     1  UNL1        0.1471
     17 O           0.4503    0.2674   27.4086 O.3     1  UNL1       -0.3814
     18 H           1.3702   -1.4484   29.4609 H       1  UNL1        0.2105
     19 H           0.5926   -0.6736   27.5963 H       1  UNL1        0.2105
     20 C          -1.7978    3.1012   25.7457 C.3     1  UNL1        0.1107
     21 N          -1.2489    2.8663   27.1218 N.am    1  UNL1       -0.3026
     22 C           0.2344    2.8109   27.3381 C.2     1  UNL1        0.2240
     23 O           1.1688    2.9905   26.1785 O.2     1  UNL1       -0.2750
     24 H          -1.8621    2.7484   27.8830 H       1  UNL1        0.1495
     25 N           4.7051    0.3755   36.3653 N.pl3   1  UNL1       -0.3153
     26 C           6.0695    0.1531   36.9475 C.3     1  UNL1        0.1097
     27 H           3.9744    0.7068   36.9360 H       1  UNL1        0.1483
     28 C           5.6665   -2.4219   32.0933 C.1     1  UNL1       -0.0205
     29 C           6.3983   -3.5381   31.4089 C.1     1  UNL1       -0.0502
     30 C           7.1302   -4.6544   30.7244 C.ar    1  UNL1        0.0721
     31 C           8.2962   -5.4161   31.2812 C.ar    1  UNL1        0.0162
     32 C           8.7111   -6.4374   30.2639 C.ar    1  UNL1        0.0191
     33 C           7.8015   -6.3068   29.0783 C.ar    1  UNL1        0.0875
     34 CL          7.8589   -7.1331   27.8278 Cl      1  UNL1       -0.0751
     35 S           6.8244   -5.2048   29.3630 S.2     1  UNL1       -0.0671
@<TRIPOS>BOND
     1    20    21    1
     2    21    22   am
     3    22    23    2
     4    10    22    1
     5    10    11    1
     6    12    11    1
     7    12    13    1
     8    13     1    1
     9     1     2   ar
    10     2     3   ar
    11     3     4   ar
    12     4     5   ar
    13     5    25    1
    14    25    26    1
    15     5     6   ar
    16     6     7   ar
    17     7    28    1
    18    28    29    3
    19    29    30    1
    20    30    31   ar
    21    31    32   ar
    22    32    33   ar
    23    33    34    1
    24    33    35   ar
    25     7     8   ar
    26     8     9   ar
    27    13    14    1
    28    14    15    1
    29    14    16    1
    30    16    17    1
    31    12    10    1
    32     9     1   ar
    33    16    10    1
    34     9     4   ar
    35    35    30   ar
    36    21    24    1
    37    25    27    1
    38    15    18    1
    39    17    19    1
@<TRIPOS>MOLECULE
*****
 35 39 0 0 0
SMALL
GASTEIGER

@<TRIPOS>ATOM
      1 N           5.0065   -0.3765   34.0374 N.ar    1  UNL1       -0.2937
      2 C           5.1996   -0.0096   35.4790 C.ar    1  UNL1        0.1798
      3 N           4.2308    1.0861   35.8121 N.ar    1  UNL1       -0.2195
      4 C           3.4390    1.3963   34.5764 C.ar    1  UNL1        0.1483
      5 C           2.3434    2.3851   34.3083 C.ar    1  UNL1        0.1516
      6 N           1.7272    2.4700   32.9433 N.ar    1  UNL1       -0.2031
      7 C           2.2066    1.5661   31.8465 C.ar    1  UNL1        0.2093
      8 N           3.3023    0.5772   32.1146 N.ar    1  UNL1       -0.2003
      9 C           3.9184    0.4924   33.4796 C.ar    1  UNL1        0.1678
     10 C           7.5148   -2.5709   32.0478 C.3     1  UNL1        0.0977
     11 C           8.4817   -1.4242   32.0460 C.3     1  UNL1        0.0136
     12 C           7.1462   -1.2779   32.7129 C.3     1  UNL1        0.0344
     13 C           5.7679   -1.4277   33.2856 C.3     1  UNL1        0.1180
     14 C           5.2847   -2.8133   32.9745 C.3     1  UNL1        0.1582
     15 O           3.9553   -3.3909   33.3606 O.3     1  UNL1       -0.3800
     16 C           6.3644   -3.5199   32.2095 C.3     1  UNL1        0.1471
     17 O           6.3042   -4.9280   31.6963 O.3     1  UNL1       -0.3814
     18 H           3.8935   -4.3037   33.0384 H       1  UNL1        0.2105
     19 H           5.4509   -5.3228   31.9349 H       1  UNL1        0.2105
     20 C           9.1081   -4.6025   29.0338 C.3     1  UNL1        0.1107
     21 N           8.2306   -3.6562   29.7984 N.am    1  UNL1       -0.3026
     22 C           8.3923   -3.5172   31.2832 C.2     1  UNL1        0.2240
     23 O           9.4314   -4.3245   32.0033 O.2     1  UNL1       -0.2750
     24 H           7.5486   -3.1263   29.3258 H       1  UNL1        0.1495
     25 N           1.8639    3.2890   35.4051 N.pl3   1  UNL1       -0.3153
     26 C           1.3099    4.6428   35.0729 C.3     1  UNL1        0.1097
     27 H           1.9128    2.9937   36.3431 H       1  UNL1        0.1483
     28 C           1.5905    1.6509   30.4815 C.1     1  UNL1       -0.0205
     29 C           0.9744    1.7358   29.1166 C.1     1  UNL1       -0.0502
     30 C           0.3582    1.8206   27.7516 C.ar    1  UNL1        0.0721
     31 C           0.7812    1.0392   26.5431 C.ar    1  UNL1        0.0162
     32 C          -0.1048    1.4374   25.4001 C.ar    1  UNL1        0.0191
     33 C          -1.0754    2.4650   25.9022 C.ar    1  UNL1        0.0875
     34 CL         -2.1445    3.1376   25.0930 Cl      1  UNL1       -0.0751
     35 S          -0.7893    2.7018   27.3554 S.2     1  UNL1       -0.0671
@<TRIPOS>BOND
     1    20    21    1
     2    21    22   am
     3    22    23    2
     4    10    22    1
     5    10    11    1
     6    12    11    1
     7    12    13    1
     8    13     1    1
     9     1     2   ar
    10     2     3   ar
    11     3     4   ar
    12     4     5   ar
    13     5    25    1
    14    25    26    1
    15     5     6   ar
    16     6     7   ar
    17     7    28    1
    18    28    29    3
    19    29    30    1
    20    30    31   ar
    21    31    32   ar
    22    32    33   ar
    23    33    34    1
    24    33    35   ar
    25     7     8   ar
    26     8     9   ar
    27    13    14    1
    28    14    15    1
    29    14    16    1
    30    16    17    1
    31    12    10    1
    32     9     1   ar
    33    16    10    1
    34     9     4   ar
    35    35    30   ar
    36    21    24    1
    37    25    27    1
    38    15    18    1
    39    17    19    1
@<TRIPOS>MOLECULE
*****
 35 39 0 0 0
SMALL
GASTEIGER

@<TRIPOS>ATOM
      1 N           6.8989   -4.4764   24.9417 N.ar    1  UNL1       -0.2937
      2 C           7.7680   -5.3210   24.0578 C.ar    1  UNL1        0.1798
      3 N           7.4260   -5.0038   22.6321 N.ar    1  UNL1       -0.2195
      4 C           6.3456   -3.9632   22.6350 C.ar    1  UNL1        0.1483
      5 C           5.6165   -3.2705   21.5222 C.ar    1  UNL1        0.1516
      6 N           4.5614   -2.2516   21.8369 N.ar    1  UNL1       -0.2031
      7 C           4.2357   -1.9256   23.2643 C.ar    1  UNL1        0.2093
      8 N           4.9649   -2.6184   24.3771 N.ar    1  UNL1       -0.2003
      9 C           6.0199   -3.6372   24.0624 C.ar    1  UNL1        0.1678
     10 C           7.0683   -3.7291   28.7468 C.3     1  UNL1        0.0977
     11 C           7.3559   -2.2917   28.4287 C.3     1  UNL1        0.0136
     12 C           7.1517   -3.2792   27.3183 C.3     1  UNL1        0.0344
     13 C           6.9074   -4.4717   26.4417 C.3     1  UNL1        0.1180
     14 C           6.6731   -5.6586   27.3284 C.3     1  UNL1        0.1582
     15 O           6.3891   -7.0586   26.8709 O.3     1  UNL1       -0.3800
     16 C           6.7725   -5.1997   28.7531 C.3     1  UNL1        0.1471
     17 O           6.6056   -6.0602   29.9703 O.3     1  UNL1       -0.3814
     18 H           6.2771   -7.6347   27.6432 H       1  UNL1        0.2105
     19 H           6.4206   -6.9727   29.6982 H       1  UNL1        0.2105
     20 C           5.9016   -3.0378   32.4765 C.3     1  UNL1        0.1107
     21 N           5.8623   -3.1961   30.9854 N.am    1  UNL1       -0.3026
     22 C           7.1077   -3.5707   30.2379 C.2     1  UNL1        0.2240
     23 O           8.3924   -3.7870   30.9815 O.2     1  UNL1       -0.2750
     24 H           5.0191   -3.0542   30.4973 H       1  UNL1        0.1495
     25 N           5.9422   -3.5965   20.0948 N.pl3   1  UNL1       -0.3153
     26 C           4.8494   -3.9984   19.1491 C.3     1  UNL1        0.1097
     27 H           6.8732   -3.5466   19.7786 H       1  UNL1        0.1483
     28 C           3.1807   -0.9068   23.5790 C.1     1  UNL1       -0.0205
     29 C           2.1258    0.1120   23.8937 C.1     1  UNL1       -0.0502
     30 C           1.0708    1.1309   24.2084 C.ar    1  UNL1        0.0721
     31 C           0.5339    2.1648   23.2637 C.ar    1  UNL1        0.0162
     32 C          -0.5012    2.9676   23.9945 C.ar    1  UNL1        0.0191
     33 C          -0.6040    2.4298   25.3911 C.ar    1  UNL1        0.0875
     34 CL         -1.5178    2.9380   26.4665 Cl      1  UNL1       -0.0751
     35 S           0.3676    1.2947   25.5232 S.2     1  UNL1       -0.0671
@<TRIPOS>BOND
     1    20    21    1
     2    21    22   am
     3    22    23    2
     4    10    22    1
     5    10    11    1
     6    12    11    1
     7    12    13    1
     8    13     1    1
     9     1     2   ar
    10     2     3   ar
    11     3     4   ar
    12     4     5   ar
    13     5    25    1
    14    25    26    1
    15     5     6   ar
    16     6     7   ar
    17     7    28    1
    18    28    29    3
    19    29    30    1
    20    30    31   ar
    21    31    32   ar
    22    32    33   ar
    23    33    34    1
    24    33    35   ar
    25     7     8   ar
    26     8     9   ar
    27    13    14    1
    28    14    15    1
    29    14    16    1
    30    16    17    1
    31    12    10    1
    32     9     1   ar
    33    16    10    1
    34     9     4   ar
    35    35    30   ar
    36    21    24    1
    37    25    27    1
    38    15    18    1
    39    17    19    1
@<TRIPOS>MOLECULE
*****
 35 39 0 0 0
SMALL
GASTEIGER

@<TRIPOS>ATOM
      1 N           4.2266   -0.1692   33.1293 N.ar    1  UNL1       -0.2937
      2 C           4.0235    0.3728   34.5131 C.ar    1  UNL1        0.1798
      3 N           3.0156    1.4809   34.4335 N.ar    1  UNL1       -0.2195
      4 C           2.5959    1.6237   33.0005 C.ar    1  UNL1        0.1483
      5 C           1.6288    2.5506   32.3255 C.ar    1  UNL1        0.1516
      6 N           1.4102    2.4576   30.8444 N.ar    1  UNL1       -0.2031
      7 C           2.1587    1.4378   30.0383 C.ar    1  UNL1        0.2093
      8 N           3.1257    0.5109   30.7134 N.ar    1  UNL1       -0.2003
      9 C           3.3443    0.6038   32.1944 C.ar    1  UNL1        0.1678
     10 C           7.0368   -2.5159   31.8405 C.3     1  UNL1        0.0977
     11 C           7.7564   -1.3179   31.2957 C.3     1  UNL1        0.0136
     12 C           6.4467   -1.1470   32.0066 C.3     1  UNL1        0.0344
     13 C           5.1500   -1.2880   32.7473 C.3     1  UNL1        0.1180
     14 C           4.9387   -2.7441   33.0391 C.3     1  UNL1        0.1582
     15 O           3.7671   -3.3371   33.7640 O.3     1  UNL1       -0.3800
     16 C           6.1049   -3.5031   32.4786 C.3     1  UNL1        0.1471
     17 O           6.3041   -4.9882   32.5447 O.3     1  UNL1       -0.3814
     18 H           3.8743   -4.2996   33.8190 H       1  UNL1        0.2105
     19 H           5.5565   -5.3943   33.0105 H       1  UNL1        0.2105
     20 C           8.8755   -5.2714   29.6549 C.3     1  UNL1        0.1107
     21 N           7.8598   -4.2619   30.1015 N.am    1  UNL1       -0.3026
     22 C           8.0526   -3.5254   31.3939 C.2     1  UNL1        0.2240
     23 O           9.2609   -3.7983   32.2398 O.2     1  UNL1       -0.2750
     24 H           7.0667   -4.0828   29.5463 H       1  UNL1        0.1495
     25 N           0.8804    3.5705   33.1315 N.pl3   1  UNL1       -0.3153
     26 C          -0.1658    4.4232   32.4769 C.3     1  UNL1        0.1097
     27 H           1.0758    3.6802   34.0902 H       1  UNL1        0.1483
     28 C           1.9401    1.3448   28.5573 C.1     1  UNL1       -0.0205
     29 C           1.7215    1.2518   27.0762 C.1     1  UNL1       -0.0502
     30 C           1.5029    1.1589   25.5951 C.ar    1  UNL1        0.0721
     31 C           0.3094    1.6733   24.8460 C.ar    1  UNL1        0.0162
     32 C           0.5083    1.3675   23.3911 C.ar    1  UNL1        0.0191
     33 C           1.8247    0.6642   23.2409 C.ar    1  UNL1        0.0875
     34 CL          2.4216    0.1756   21.9544 Cl      1  UNL1       -0.0751
     35 S           2.4394    0.5353   24.6031 S.2     1  UNL1       -0.0671
@<TRIPOS>BOND
     1    20    21    1
     2    21    22   am
     3    22    23    2
     4    10    22    1
     5    10    11    1
     6    12    11    1
     7    12    13    1
     8    13     1    1
     9     1     2   ar
    10     2     3   ar
    11     3     4   ar
    12     4     5   ar
    13     5    25    1
    14    25    26    1
    15     5     6   ar
    16     6     7   ar
    17     7    28    1
    18    28    29    3
    19    29    30    1
    20    30    31   ar
    21    31    32   ar
    22    32    33   ar
    23    33    34    1
    24    33    35   ar
    25     7     8   ar
    26     8     9   ar
    27    13    14    1
    28    14    15    1
    29    14    16    1
    30    16    17    1
    31    12    10    1
    32     9     1   ar
    33    16    10    1
    34     9     4   ar
    35    35    30   ar
    36    21    24    1
    37    25    27    1
    38    15    18    1
    39    17    19    1
@<TRIPOS>MOLECULE
*****
 35 39 0 0 0
SMALL
GASTEIGER

@<TRIPOS>ATOM
      1 N          -0.8081    2.9851   24.8794 N.ar    1  UNL1       -0.2937
      2 C          -1.9269    3.9819   24.8111 C.ar    1  UNL1        0.1798
      3 N          -2.3289    4.1297   23.3735 N.ar    1  UNL1       -0.2195
      4 C          -1.4586    3.2242   22.5534 C.ar    1  UNL1        0.1483
      5 C          -1.4005    2.9525   21.0794 C.ar    1  UNL1        0.1516
      6 N          -0.4025    1.9733   20.5360 N.ar    1  UNL1       -0.2031
      7 C           0.5374    1.2659   21.4666 C.ar    1  UNL1        0.2093
      8 N           0.4793    1.5377   22.9407 N.ar    1  UNL1       -0.2003
      9 C          -0.5187    2.5168   23.4841 C.ar    1  UNL1        0.1678
     10 C           0.4367    1.3464   28.1703 C.3     1  UNL1        0.0977
     11 C          -0.7786    0.4673   28.1657 C.3     1  UNL1        0.0136
     12 C          -0.5719    1.4668   27.0665 C.3     1  UNL1        0.0344
     13 C          -0.1026    2.5355   26.1244 C.3     1  UNL1        0.1180
     14 C           1.1959    3.0757   26.6459 C.3     1  UNL1        0.1582
     15 O           2.0170    4.1603   26.0139 O.3     1  UNL1       -0.3800
     16 C           1.5293    2.3408   27.9104 C.3     1  UNL1        0.1471
     17 O           2.7422    2.5615   28.7648 O.3     1  UNL1       -0.3814
     18 H           2.8089    4.3207   26.5506 H       1  UNL1        0.2105
     19 H           3.2897    3.2606   28.3745 H       1  UNL1        0.2105
     20 C           2.6603   -0.8265   30.6370 C.3     1  UNL1        0.1107
     21 N           2.0728   -0.2754   29.3716 N.am    1  UNL1       -0.3026
     22 C           1.0242    0.7953   29.4358 C.2     1  UNL1        0.2240
     23 O           0.5630    1.3149   30.7652 O.2     1  UNL1       -0.2750
     24 H           2.3754   -0.6164   28.4990 H       1  UNL1        0.1495
     25 N          -2.3404    3.6599   20.1487 N.pl3   1  UNL1       -0.3153
     26 C          -3.8067    3.3447   20.1812 C.3     1  UNL1        0.1097
     27 H          -1.9950    4.3310   19.5166 H       1  UNL1        0.1483
     28 C           1.5354    0.2867   20.9233 C.1     1  UNL1       -0.0205
     29 C           2.5333   -0.6924   20.3800 C.1     1  UNL1       -0.0502
     30 C           3.5314   -1.6716   19.8366 C.ar    1  UNL1        0.0721
     31 C           4.9533   -1.3684   19.4678 C.ar    1  UNL1        0.0162
     32 C           5.5834   -2.6353   18.9699 C.ar    1  UNL1        0.0191
     33 C           4.5507   -3.7216   19.0309 C.ar    1  UNL1        0.0875
     34 CL          4.7512   -5.1523   18.6272 Cl      1  UNL1       -0.0751
     35 S           3.2826   -3.1260   19.5665 S.2     1  UNL1       -0.0671
@<TRIPOS>BOND
     1    20    21    1
     2    21    22   am
     3    22    23    2
     4    10    22    1
     5    10    11    1
     6    12    11    1
     7    12    13    1
     8    13     1    1
     9     1     2   ar
    10     2     3   ar
    11     3     4   ar
    12     4     5   ar
    13     5    25    1
    14    25    26    1
    15     5     6   ar
    16     6     7   ar
    17     7    28    1
    18    28    29    3
    19    29    30    1
    20    30    31   ar
    21    31    32   ar
    22    32    33   ar
    23    33    34    1
    24    33    35   ar
    25     7     8   ar
    26     8     9   ar
    27    13    14    1
    28    14    15    1
    29    14    16    1
    30    16    17    1
    31    12    10    1
    32     9     1   ar
    33    16    10    1
    34     9     4   ar
    35    35    30   ar
    36    21    24    1
    37    25    27    1
    38    15    18    1
    39    17    19    1
@<TRIPOS>MOLECULE
*****
 35 39 0 0 0
SMALL
GASTEIGER

@<TRIPOS>ATOM
      1 N           0.3863    2.4020   19.2784 N.ar    1  UNL1       -0.2937
      2 C          -0.1777    3.2110   18.1482 C.ar    1  UNL1        0.1798
      3 N          -1.1668    4.1820   18.7217 N.ar    1  UNL1       -0.2195
      4 C          -1.2141    3.9731   20.2063 C.ar    1  UNL1        0.1483
      5 C          -2.0071    4.6426   21.2893 C.ar    1  UNL1        0.1516
      6 N          -1.8404    4.2118   22.7165 N.ar    1  UNL1       -0.2031
      7 C          -0.8805    3.1117   23.0606 C.ar    1  UNL1        0.2093
      8 N          -0.0875    2.4423   21.9775 N.ar    1  UNL1       -0.2003
      9 C          -0.2542    2.8730   20.5504 C.ar    1  UNL1        0.1678
     10 C           3.4342    0.1005   18.5866 C.3     1  UNL1        0.0977
     11 C           4.0947    1.2325   17.8572 C.3     1  UNL1        0.0136
     12 C           2.7357    1.4221   18.4629 C.3     1  UNL1        0.0344
     13 C           1.4109    1.3131   19.1579 C.3     1  UNL1        0.1180
     14 C           1.2905   -0.0759   19.7111 C.3     1  UNL1        0.1582
     15 O           0.1244   -0.6200   20.4820 O.3     1  UNL1       -0.3800
     16 C           2.5410   -0.8255   19.3581 C.3     1  UNL1        0.1471
     17 O           2.8450   -2.2505   19.7139 O.3     1  UNL1       -0.3814
     18 H           0.2989   -1.5431   20.7236 H       1  UNL1        0.2105
     19 H           2.1027   -2.6241   20.2143 H       1  UNL1        0.2105
     20 C           6.6803   -2.0798   19.2643 C.3     1  UNL1        0.1107
     21 N           5.5679   -1.0936   19.4648 N.am    1  UNL1       -0.3026
     22 C           4.5466   -0.8857   18.3861 C.2     1  UNL1        0.2240
     23 O           4.6375   -1.6639   17.1070 O.2     1  UNL1       -0.2750
     24 H           5.5082   -0.5828   20.3043 H       1  UNL1        0.1495
     25 N          -2.9670    5.7427   20.9452 N.pl3   1  UNL1       -0.3153
     26 C          -4.3066    5.4124   20.3565 C.3     1  UNL1        0.1097
     27 H          -2.7178    6.6815   21.1057 H       1  UNL1        0.1483
     28 C          -0.7138    2.6810   24.4876 C.1     1  UNL1       -0.0205
     29 C          -0.5470    2.2503   25.9147 C.1     1  UNL1       -0.0502
     30 C          -0.3802    1.8195   27.3419 C.ar    1  UNL1        0.0721
     31 C          -0.9640    0.5861   27.9646 C.ar    1  UNL1        0.0162
     32 C          -0.5449    0.5508   29.4044 C.ar    1  UNL1        0.0191
     33 C           0.2981    1.7625   29.6716 C.ar    1  UNL1        0.0875
     34 CL          0.9285    2.1263   30.9831 Cl      1  UNL1       -0.0751
     35 S           0.3998    2.5466   28.3969 S.2     1  UNL1       -0.0671
@<TRIPOS>BOND
     1    20    21    1
     2    21    22   am
     3    22    23    2
     4    10    22    1
     5    10    11    1
     6    12    11    1
     7    12    13    1
     8    13     1    1
     9     1     2   ar
    10     2     3   ar
    11     3     4   ar
    12     4     5   ar
    13     5    25    1
    14    25    26    1
    15     5     6   ar
    16     6     7   ar
    17     7    28    1
    18    28    29    3
    19    29    30    1
    20    30    31   ar
    21    31    32   ar
    22    32    33   ar
    23    33    34    1
    24    33    35   ar
    25     7     8   ar
    26     8     9   ar
    27    13    14    1
    28    14    15    1
    29    14    16    1
    30    16    17    1
    31    12    10    1
    32     9     1   ar
    33    16    10    1
    34     9     4   ar
    35    35    30   ar
    36    21    24    1
    37    25    27    1
    38    15    18    1
    39    17    19    1
@<TRIPOS>MOLECULE
*****
 35 39 0 0 0
SMALL
GASTEIGER

@<TRIPOS>ATOM
      1 N           1.9324    0.3004   19.5310 N.ar    1  UNL1       -0.2937
      2 C           1.2753    0.9370   18.3423 C.ar    1  UNL1        0.1798
      3 N           0.2828    1.9431   18.8449 N.ar    1  UNL1       -0.2195
      4 C           0.3265    1.9283   20.3442 C.ar    1  UNL1        0.1483
      5 C          -0.4304    2.7082   21.3781 C.ar    1  UNL1        0.1516
      6 N          -0.1677    2.4728   22.8361 N.ar    1  UNL1       -0.2031
      7 C           0.8518    1.4576   23.2601 C.ar    1  UNL1        0.2093
      8 N           1.6087    0.6777   22.2262 N.ar    1  UNL1       -0.2003
      9 C           1.3460    0.9131   20.7683 C.ar    1  UNL1        0.1678
     10 C           4.5068   -2.5366   20.1549 C.3     1  UNL1        0.0977
     11 C           4.0693   -2.5875   21.5887 C.3     1  UNL1        0.0136
     12 C           3.4320   -1.6118   20.6444 C.3     1  UNL1        0.0344
     13 C           2.9902   -0.7623   19.4897 C.3     1  UNL1        0.1180
     14 C           3.7919   -1.1620   18.2866 C.3     1  UNL1        0.1582
     15 O           3.6766   -0.5693   16.9136 O.3     1  UNL1       -0.3800
     16 C           4.7293   -2.2587   18.6977 C.3     1  UNL1        0.1471
     17 O           5.7157   -2.9550   17.8079 O.3     1  UNL1       -0.3814
     18 H           4.3070   -1.0054   16.3191 H       1  UNL1        0.2105
     19 H           5.6590   -2.5872   16.9121 H       1  UNL1        0.2105
     20 C           7.9291   -4.3963   20.9161 C.3     1  UNL1        0.1107
     21 N           6.9003   -3.3104   20.8048 N.am    1  UNL1       -0.3026
     22 C           5.5356   -3.6226   20.2661 C.2     1  UNL1        0.2240
     23 O           5.1997   -5.0206   19.8388 O.2     1  UNL1       -0.2750
     24 H           7.1207   -2.3928   21.0853 H       1  UNL1        0.1495
     25 N          -1.4499    3.7234   20.9541 N.pl3   1  UNL1       -0.3153
     26 C          -2.8073    3.2775   20.4969 C.3     1  UNL1        0.1097
     27 H          -1.2283    4.6824   20.9758 H       1  UNL1        0.1483
     28 C           1.1145    1.2222   24.7180 C.1     1  UNL1       -0.0205
     29 C           1.3772    0.9868   26.1759 C.1     1  UNL1       -0.0502
     30 C           1.6399    0.7514   27.6339 C.ar    1  UNL1        0.0721
     31 C           2.3460   -0.4340   28.2224 C.ar    1  UNL1        0.0162
     32 C           2.3850   -0.2579   29.7116 C.ar    1  UNL1        0.0191
     33 C           1.7031    1.0363   30.0434 C.ar    1  UNL1        0.0875
     34 CL          1.5147    1.6065   31.4179 Cl      1  UNL1       -0.0751
     35 S           1.2426    1.6600   28.7593 S.2     1  UNL1       -0.0671
@<TRIPOS>BOND
     1    20    21    1
     2    21    22   am
     3    22    23    2
     4    10    22    1
     5    10    11    1
     6    12    11    1
     7    12    13    1
     8    13     1    1
     9     1     2   ar
    10     2     3   ar
    11     3     4   ar
    12     4     5   ar
    13     5    25    1
    14    25    26    1
    15     5     6   ar
    16     6     7   ar
    17     7    28    1
    18    28    29    3
    19    29    30    1
    20    30    31   ar
    21    31    32   ar
    22    32    33   ar
    23    33    34    1
    24    33    35   ar
    25     7     8   ar
    26     8     9   ar
    27    13    14    1
    28    14    15    1
    29    14    16    1
    30    16    17    1
    31    12    10    1
    32     9     1   ar
    33    16    10    1
    34     9     4   ar
    35    35    30   ar
    36    21    24    1
    37    25    27    1
    38    15    18    1
    39    17    19    1
@<TRIPOS>MOLECULE
*****
 35 39 0 0 0
SMALL
GASTEIGER

@<TRIPOS>ATOM
      1 N           4.0473   -0.5017   31.6622 N.ar    1  UNL1       -0.2937
      2 C           3.5547    0.2277   32.8768 C.ar    1  UNL1        0.1798
      3 N           2.5734    1.2688   32.4260 N.ar    1  UNL1       -0.2195
      4 C           2.4594    1.1827   30.9328 C.ar    1  UNL1        0.1483
      5 C           1.6439    1.9593   29.9420 C.ar    1  UNL1        0.1516
      6 N           1.7392    1.6417   28.4791 N.ar    1  UNL1       -0.2031
      7 C           2.6502    0.5474   28.0070 C.ar    1  UNL1        0.2093
      8 N           3.4657   -0.2292   28.9979 N.ar    1  UNL1       -0.2003
      9 C           3.3703    0.0884   30.4608 C.ar    1  UNL1        0.1678
     10 C           6.9813   -2.9848   31.1228 C.3     1  UNL1        0.0977
     11 C           7.5733   -2.0335   30.1255 C.3     1  UNL1        0.0136
     12 C           6.2876   -1.6904   30.8177 C.3     1  UNL1        0.0344
     13 C           5.0421   -1.6243   31.6510 C.3     1  UNL1        0.1180
     14 C           4.9661   -2.8780   32.4712 C.3     1  UNL1        0.1582
     15 O           3.8820   -3.2291   33.4466 O.3     1  UNL1       -0.3800
     16 C           6.1647   -3.7188   32.1447 C.3     1  UNL1        0.1471
     17 O           6.4895   -5.0584   32.7363 O.3     1  UNL1       -0.3814
     18 H           4.0713   -4.0940   33.8428 H       1  UNL1        0.2105
     19 H           5.8001   -5.3068   33.3719 H       1  UNL1        0.2105
     20 C           8.9765   -6.1955   29.9138 C.3     1  UNL1        0.1107
     21 N           7.9017   -5.1557   30.0318 N.am    1  UNL1       -0.3026
     22 C           8.0561   -4.0246   31.0048 C.2     1  UNL1        0.2240
     23 O           9.2852   -3.9332   31.8598 O.2     1  UNL1       -0.2750
     24 H           7.0950   -5.2156   29.4706 H       1  UNL1        0.1495
     25 N           0.7330    3.0535   30.4141 N.pl3   1  UNL1       -0.3153
     26 C           1.3015    4.3837   30.8109 C.3     1  UNL1        0.1097
     27 H          -0.2380    2.8987   30.4635 H       1  UNL1        0.1483
     28 C           2.7455    0.2298   26.5442 C.1     1  UNL1       -0.0205
     29 C           2.8409   -0.0879   25.0814 C.1     1  UNL1       -0.0502
     30 C           2.9363   -0.4056   23.6184 C.ar    1  UNL1        0.0721
     31 C           3.7386   -1.5162   23.0079 C.ar    1  UNL1        0.0162
     32 C           3.5443   -1.4654   21.5214 C.ar    1  UNL1        0.0191
     33 C           2.6220   -0.3233   21.2132 C.ar    1  UNL1        0.0875
     34 CL          2.1570    0.0911   19.8486 Cl      1  UNL1       -0.0751
     35 S           2.2463    0.3317   22.5093 S.2     1  UNL1       -0.0671
@<TRIPOS>BOND
     1    20    21    1
     2    21    22   am
     3    22    23    2
     4    10    22    1
     5    10    11    1
     6    12    11    1
     7    12    13    1
     8    13     1    1
     9     1     2   ar
    10     2     3   ar
    11     3     4   ar
    12     4     5   ar
    13     5    25    1
    14    25    26    1
    15     5     6   ar
    16     6     7   ar
    17     7    28    1
    18    28    29    3
    19    29    30    1
    20    30    31   ar
    21    31    32   ar
    22    32    33   ar
    23    33    34    1
    24    33    35   ar
    25     7     8   ar
    26     8     9   ar
    27    13    14    1
    28    14    15    1
    29    14    16    1
    30    16    17    1
    31    12    10    1
    32     9     1   ar
    33    16    10    1
    34     9     4   ar
    35    35    30   ar
    36    21    24    1
    37    25    27    1
    38    15    18    1
    39    17    19    1
@<TRIPOS>MOLECULE
*****
 35 39 0 0 0
SMALL
GASTEIGER

@<TRIPOS>ATOM
      1 N          -2.1462    3.2073   25.0231 N.ar    1  UNL1       -0.2937
      2 C          -2.2680    3.6307   26.4570 C.ar    1  UNL1        0.1798
      3 N          -1.0417    3.1639   27.1838 N.ar    1  UNL1       -0.2195
      4 C          -0.1621    2.4519   26.1992 C.ar    1  UNL1        0.1483
      5 C           1.1722    1.7827   26.3461 C.ar    1  UNL1        0.1516
      6 N           1.8240    1.1402   25.1576 N.ar    1  UNL1       -0.2031
      7 C           1.1414    1.1670   23.8222 C.ar    1  UNL1        0.2093
      8 N          -0.1931    1.8363   23.6754 N.ar    1  UNL1       -0.2003
      9 C          -0.8447    2.4787   24.8638 C.ar    1  UNL1        0.1678
     10 C          -4.1374    3.9437   21.7738 C.3     1  UNL1        0.0977
     11 C          -2.8399    4.0415   21.0277 C.3     1  UNL1        0.0136
     12 C          -2.8390    3.7448   22.4981 C.3     1  UNL1        0.0344
     13 C          -3.1498    3.4667   23.9389 C.3     1  UNL1        0.1180
     14 C          -4.6403    3.4937   24.1052 C.3     1  UNL1        0.1582
     15 O          -5.3890    3.2659   25.3849 O.3     1  UNL1       -0.3800
     16 C          -5.2508    3.7885   22.7671 C.3     1  UNL1        0.1471
     17 O          -6.7169    3.9072   22.4737 O.3     1  UNL1       -0.3814
     18 H          -6.3420    3.3380   25.2192 H       1  UNL1        0.2105
     19 H          -7.2224    3.7632   23.2890 H       1  UNL1        0.2105
     20 C          -6.3915    3.3571   18.5605 C.3     1  UNL1        0.1107
     21 N          -5.5098    3.0828   19.7427 N.am    1  UNL1       -0.3026
     22 C          -5.0192    4.2180   20.5917 C.2     1  UNL1        0.2240
     23 O          -5.4102    5.6273   20.2586 O.2     1  UNL1       -0.2750
     24 H          -5.2531    2.1579   19.9613 H       1  UNL1        0.1495
     25 N           1.8549    1.7559   27.6815 N.pl3   1  UNL1       -0.3153
     26 C           1.9371    0.4740   28.4562 C.3     1  UNL1        0.1097
     27 H           2.2490    2.5797   28.0495 H       1  UNL1        0.1483
     28 C           1.7931    0.5246   22.6338 C.1     1  UNL1       -0.0205
     29 C           2.4447   -0.1178   21.4453 C.1     1  UNL1       -0.0502
     30 C           3.0965   -0.7603   20.2567 C.ar    1  UNL1        0.0721
     31 C           3.1571   -0.1918   18.8699 C.ar    1  UNL1        0.0162
     32 C           3.9000   -1.1641   18.0025 C.ar    1  UNL1        0.0191
     33 C           4.2986   -2.3336   18.8531 C.ar    1  UNL1        0.0875
     34 CL          5.0601   -3.5407   18.3916 Cl      1  UNL1       -0.0751
     35 S           3.8020   -2.0840   20.2463 S.2     1  UNL1       -0.0671
@<TRIPOS>BOND
     1    20    21    1
     2    21    22   am
     3    22    23    2
     4    10    22    1
     5    10    11    1
     6    12    11    1
     7    12    13    1
     8    13     1    1
     9     1     2   ar
    10     2     3   ar
    11     3     4   ar
    12     4     5   ar
    13     5    25    1
    14    25    26    1
    15     5     6   ar
    16     6     7   ar
    17     7    28    1
    18    28    29    3
    19    29    30    1
    20    30    31   ar
    21    31    32   ar
    22    32    33   ar
    23    33    34    1
    24    33    35   ar
    25     7     8   ar
    26     8     9   ar
    27    13    14    1
    28    14    15    1
    29    14    16    1
    30    16    17    1
    31    12    10    1
    32     9     1   ar
    33    16    10    1
    34     9     4   ar
    35    35    30   ar
    36    21    24    1
    37    25    27    1
    38    15    18    1
    39    17    19    1
