@<TRIPOS>MOLECULE
*****
 29 32 0 0 0
SMALL
GASTEIGER

@<TRIPOS>ATOM
      1 C          -3.1115  -20.4586   20.5834 C.3     1  UNL1        0.0061
      2 C          -4.5090  -19.9141   20.5602 C.3     1  UNL1        0.0373
      3 C          -4.7550  -21.2865   20.0069 C.3     1  UNL1        0.0075
      4 C          -6.1444  -21.7034   19.6255 C.3     1  UNL1        0.0219
      5 C          -7.2879  -20.7480   19.7973 C.3     1  UNL1        0.0950
      6 N          -7.0420  -19.3756   20.3506 N.am    1  UNL1       -0.2639
      7 C          -8.1855  -18.4202   20.5224 C.2     1  UNL1        0.3040
      8 O          -7.9395  -17.0479   21.0757 O.2     1  UNL1       -0.2526
      9 N          -9.5750  -18.8371   20.1409 N.am    1  UNL1       -0.2884
     10 C          -5.6525  -18.9587   20.7320 C.3     1  UNL1        0.0989
     11 H          -9.7364  -19.7378   19.7778 H       1  UNL1        0.1510
     12 C          -3.7776  -18.7309   21.1215 C.ar    1  UNL1       -0.0212
     13 C          -2.7057  -18.0600   20.3148 C.ar    1  UNL1       -0.0042
     14 C          -1.9743  -16.8767   20.8761 C.ar    1  UNL1       -0.0003
     15 C          -2.3150  -16.3643   22.2441 C.ar    1  UNL1       -0.0000
     16 C          -3.3869  -17.0352   23.0508 C.ar    1  UNL1       -0.0003
     17 C          -4.1183  -18.2185   22.4895 C.ar    1  UNL1       -0.0042
     18 C         -10.7185  -17.8817   20.3127 C.3     1  UNL1        0.0956
     19 C         -11.5464  -17.9199   21.5630 C.3     1  UNL1        0.0477
     20 C         -10.8793  -17.8756   22.9059 C.ar    1  UNL1       -0.0189
     21 C         -10.9197  -19.0769   23.8033 C.ar    1  UNL1       -0.0026
     22 C         -10.2527  -19.0326   25.1461 C.ar    1  UNL1        0.0203
     23 C          -9.5454  -17.7871   25.5915 C.ar    1  UNL1        0.0989
     24 N          -8.8784  -17.7428   26.9343 N.ar    1  UNL1       -0.2407
     25 C          -8.1711  -16.4973   27.3797 C.ar    1  UNL1        0.1195
     26 C          -8.1308  -15.2961   26.4823 C.ar    1  UNL1        0.1195
     27 N          -8.7978  -15.3403   25.1395 N.ar    1  UNL1       -0.2407
     28 C          -9.5050  -16.5858   24.6941 C.ar    1  UNL1        0.0986
     29 C         -10.1721  -16.6301   23.3512 C.ar    1  UNL1        0.0164
@<TRIPOS>BOND
     1     1     2    1
     2     2    12    1
     3    12    13   ar
     4    13    14   ar
     5    14    15   ar
     6    15    16   ar
     7    16    17   ar
     8     2     3    1
     9     3     4    1
    10     4     5    1
    11     5     6    1
    12     6     7   am
    13     7     8    2
    14     7     9   am
    15     9    18    1
    16    18    19    1
    17    19    20    1
    18    20    21   ar
    19    21    22   ar
    20    22    23   ar
    21    23    24   ar
    22    24    25   ar
    23    25    26   ar
    24    26    27   ar
    25    27    28   ar
    26    28    29   ar
    27     6    10    1
    28    10     2    1
    29    17    12   ar
    30    29    20   ar
    31    28    23   ar
    32     9    11    1
@<TRIPOS>MOLECULE
*****
 29 32 0 0 0
SMALL
GASTEIGER

@<TRIPOS>ATOM
      1 C         -12.5339  -18.1922   22.8130 C.3     1  UNL1        0.0061
      2 C         -11.1909  -17.6436   23.1939 C.3     1  UNL1        0.0373
      3 C         -11.4463  -18.5440   24.3661 C.3     1  UNL1        0.0075
      4 C         -10.4320  -18.6493   25.4661 C.3     1  UNL1        0.0219
      5 C          -9.1622  -17.8541   25.3940 C.3     1  UNL1        0.0950
      6 N          -8.9067  -16.9536   24.2218 N.am    1  UNL1       -0.2639
      7 C          -7.6369  -16.1584   24.1497 C.2     1  UNL1        0.3040
      8 O          -7.3814  -15.2579   22.9776 O.2     1  UNL1       -0.2526
      9 N          -6.6225  -16.2636   25.2497 N.am    1  UNL1       -0.2884
     10 C          -9.9210  -16.8483   23.1218 C.3     1  UNL1        0.0989
     11 H          -6.7902  -16.8546   26.0190 H       1  UNL1        0.1510
     12 C         -11.4019  -16.9337   21.8895 C.ar    1  UNL1       -0.0212
     13 C         -10.2732  -16.1738   21.2580 C.ar    1  UNL1       -0.0042
     14 C         -10.4842  -15.4639   19.9536 C.ar    1  UNL1       -0.0003
     15 C         -11.8238  -15.5139   19.2807 C.ar    1  UNL1       -0.0000
     16 C         -12.9524  -16.2737   19.9121 C.ar    1  UNL1       -0.0003
     17 C         -12.7415  -16.9836   21.2166 C.ar    1  UNL1       -0.0042
     18 C          -5.3528  -15.4684   25.1776 C.3     1  UNL1        0.0956
     19 C          -4.7308  -15.1675   23.8462 C.3     1  UNL1        0.0477
     20 C          -3.9552  -16.2289   23.1237 C.ar    1  UNL1       -0.0189
     21 C          -4.2920  -17.6759   23.3307 C.ar    1  UNL1       -0.0026
     22 C          -3.5165  -18.7373   22.6082 C.ar    1  UNL1        0.0203
     23 C          -2.4040  -18.3517   21.6788 C.ar    1  UNL1        0.0989
     24 N          -1.6285  -19.4131   20.9563 N.ar    1  UNL1       -0.2407
     25 C          -0.5161  -19.0275   20.0269 C.ar    1  UNL1        0.1195
     26 C          -0.1793  -17.5805   19.8199 C.ar    1  UNL1        0.1195
     27 N          -0.9548  -16.5192   20.5423 N.ar    1  UNL1       -0.2407
     28 C          -2.0672  -16.9048   21.4718 C.ar    1  UNL1        0.0986
     29 C          -2.8428  -15.8434   22.1943 C.ar    1  UNL1        0.0164
@<TRIPOS>BOND
     1     1     2    1
     2     2    12    1
     3    12    13   ar
     4    13    14   ar
     5    14    15   ar
     6    15    16   ar
     7    16    17   ar
     8     2     3    1
     9     3     4    1
    10     4     5    1
    11     5     6    1
    12     6     7   am
    13     7     8    2
    14     7     9   am
    15     9    18    1
    16    18    19    1
    17    19    20    1
    18    20    21   ar
    19    21    22   ar
    20    22    23   ar
    21    23    24   ar
    22    24    25   ar
    23    25    26   ar
    24    26    27   ar
    25    27    28   ar
    26    28    29   ar
    27     6    10    1
    28    10     2    1
    29    17    12   ar
    30    29    20   ar
    31    28    23   ar
    32     9    11    1
@<TRIPOS>MOLECULE
*****
 29 32 0 0 0
SMALL
GASTEIGER

@<TRIPOS>ATOM
      1 C          -7.1494    4.9409   23.2478 C.3     1  UNL1        0.0061
      2 C          -5.8183    4.4387   22.7727 C.3     1  UNL1        0.0373
      3 C          -6.5928    4.3773   21.4896 C.3     1  UNL1        0.0075
      4 C          -5.9278    3.8955   20.2344 C.3     1  UNL1        0.0219
      5 C          -4.4881    3.4753   20.2622 C.3     1  UNL1        0.0950
      6 N          -3.7135    3.5368   21.5452 N.am    1  UNL1       -0.2639
      7 C          -2.2738    3.1166   21.5730 C.2     1  UNL1        0.3040
      8 O          -1.4993    3.1781   22.8560 O.2     1  UNL1       -0.2526
      9 N          -1.6088    2.6348   20.3178 N.am    1  UNL1       -0.2884
     10 C          -4.3785    4.0185   22.8005 C.3     1  UNL1        0.0989
     11 H          -2.1172    2.5945   19.4757 H       1  UNL1        0.1510
     12 C          -5.5060    4.6746   24.2207 C.ar    1  UNL1       -0.0212
     13 C          -4.6092    3.7254   24.9589 C.ar    1  UNL1       -0.0042
     14 C          -4.2969    3.9613   26.4069 C.ar    1  UNL1       -0.0003
     15 C          -4.8814    5.1464   27.1168 C.ar    1  UNL1       -0.0000
     16 C          -5.7781    6.0956   26.3787 C.ar    1  UNL1       -0.0003
     17 C          -6.0904    5.8597   24.9306 C.ar    1  UNL1       -0.0042
     18 C          -0.1692    2.2146   20.3455 C.3     1  UNL1        0.0956
     19 C           0.1876    0.7739   20.5627 C.3     1  UNL1        0.0477
     20 C           1.3409    0.1667   19.8202 C.ar    1  UNL1       -0.0189
     21 C           1.8126    0.7807   18.5355 C.ar    1  UNL1       -0.0026
     22 C           2.9659    0.1736   17.7931 C.ar    1  UNL1        0.0203
     23 C           3.6476   -1.0475   18.3354 C.ar    1  UNL1        0.0989
     24 N           4.8010   -1.6547   17.5930 N.ar    1  UNL1       -0.2407
     25 C           5.4827   -2.8757   18.1353 C.ar    1  UNL1        0.1195
     26 C           5.0110   -3.4897   19.4201 C.ar    1  UNL1        0.1195
     27 N           3.8577   -2.8826   20.1625 N.ar    1  UNL1       -0.2407
     28 C           3.1760   -1.6615   19.6201 C.ar    1  UNL1        0.0986
     29 C           2.0226   -1.0544   20.3626 C.ar    1  UNL1        0.0164
@<TRIPOS>BOND
     1     1     2    1
     2     2    12    1
     3    12    13   ar
     4    13    14   ar
     5    14    15   ar
     6    15    16   ar
     7    16    17   ar
     8     2     3    1
     9     3     4    1
    10     4     5    1
    11     5     6    1
    12     6     7   am
    13     7     8    2
    14     7     9   am
    15     9    18    1
    16    18    19    1
    17    19    20    1
    18    20    21   ar
    19    21    22   ar
    20    22    23   ar
    21    23    24   ar
    22    24    25   ar
    23    25    26   ar
    24    26    27   ar
    25    27    28   ar
    26    28    29   ar
    27     6    10    1
    28    10     2    1
    29    17    12   ar
    30    29    20   ar
    31    28    23   ar
    32     9    11    1
@<TRIPOS>MOLECULE
*****
 29 32 0 0 0
SMALL
GASTEIGER

@<TRIPOS>ATOM
      1 C         -12.5951  -18.5537   23.0075 C.3     1  UNL1        0.0061
      2 C         -11.2548  -17.9350   23.2736 C.3     1  UNL1        0.0373
      3 C         -11.4803  -18.6390   24.5788 C.3     1  UNL1        0.0075
      4 C         -10.4489  -18.5545   25.6646 C.3     1  UNL1        0.0219
      5 C          -9.1919  -17.7659   25.4453 C.3     1  UNL1        0.0950
      6 N          -8.9663  -17.0618   24.1401 N.am    1  UNL1       -0.2639
      7 C          -7.7094  -16.2733   23.9208 C.2     1  UNL1        0.3040
      8 O          -7.4838  -15.5693   22.6156 O.2     1  UNL1       -0.2526
      9 N          -6.6779  -16.1887   25.0066 N.am    1  UNL1       -0.2884
     10 C          -9.9978  -17.1464   23.0543 C.3     1  UNL1        0.0989
     11 H          -6.8260  -16.6508   25.8632 H       1  UNL1        0.1510
     12 C         -11.4947  -17.4459   21.8760 C.ar    1  UNL1       -0.0212
     13 C         -10.8686  -18.1586   20.7142 C.ar    1  UNL1       -0.0042
     14 C         -11.1085  -17.6694   19.3166 C.ar    1  UNL1       -0.0003
     15 C         -11.9745  -16.4676   19.0809 C.ar    1  UNL1       -0.0000
     16 C         -12.6006  -15.7549   20.2428 C.ar    1  UNL1       -0.0003
     17 C         -12.3607  -16.2440   21.6404 C.ar    1  UNL1       -0.0042
     18 C          -5.4210  -15.4002   24.7873 C.3     1  UNL1        0.0956
     19 C          -4.1079  -16.1091   24.6345 C.3     1  UNL1        0.0477
     20 C          -3.8391  -16.9345   23.4112 C.ar    1  UNL1       -0.0189
     21 C          -2.6571  -16.6236   22.5416 C.ar    1  UNL1       -0.0026
     22 C          -2.3882  -17.4489   21.3183 C.ar    1  UNL1        0.0203
     23 C          -3.3013  -18.5852   20.9646 C.ar    1  UNL1        0.0989
     24 N          -3.0325  -19.4106   19.7413 N.ar    1  UNL1       -0.2407
     25 C          -3.9456  -20.5468   19.3876 C.ar    1  UNL1        0.1195
     26 C          -5.1276  -20.8577   20.2572 C.ar    1  UNL1        0.1195
     27 N          -5.3965  -20.0324   21.4805 N.ar    1  UNL1       -0.2407
     28 C          -4.4833  -18.8961   21.8342 C.ar    1  UNL1        0.0986
     29 C          -4.7522  -18.0707   23.0575 C.ar    1  UNL1        0.0164
@<TRIPOS>BOND
     1     1     2    1
     2     2    12    1
     3    12    13   ar
     4    13    14   ar
     5    14    15   ar
     6    15    16   ar
     7    16    17   ar
     8     2     3    1
     9     3     4    1
    10     4     5    1
    11     5     6    1
    12     6     7   am
    13     7     8    2
    14     7     9   am
    15     9    18    1
    16    18    19    1
    17    19    20    1
    18    20    21   ar
    19    21    22   ar
    20    22    23   ar
    21    23    24   ar
    22    24    25   ar
    23    25    26   ar
    24    26    27   ar
    25    27    28   ar
    26    28    29   ar
    27     6    10    1
    28    10     2    1
    29    17    12   ar
    30    29    20   ar
    31    28    23   ar
    32     9    11    1
@<TRIPOS>MOLECULE
*****
 29 32 0 0 0
SMALL
GASTEIGER

@<TRIPOS>ATOM
      1 C           3.8199   -0.7157   17.2294 C.3     1  UNL1        0.0061
      2 C           4.2296   -1.2794   18.5577 C.3     1  UNL1        0.0373
      3 C           5.3525   -1.7865   17.7022 C.3     1  UNL1        0.0075
      4 C           6.4456   -2.6131   18.3119 C.3     1  UNL1        0.0219
      5 C           6.4158   -2.9327   19.7771 C.3     1  UNL1        0.0950
      6 N           5.2929   -2.4256   20.6327 N.am    1  UNL1       -0.2639
      7 C           5.2631   -2.7452   22.0979 C.2     1  UNL1        0.3040
      8 O           4.1402   -2.2381   22.9534 O.2     1  UNL1       -0.2526
      9 N           6.3562   -3.5719   22.7076 N.am    1  UNL1       -0.2884
     10 C           4.1998   -1.5990   20.0230 C.3     1  UNL1        0.0989
     11 H           7.0932   -3.9047   22.1461 H       1  UNL1        0.1510
     12 C           2.9644   -0.5765   18.9519 C.ar    1  UNL1       -0.0212
     13 C           2.5414    0.6680   18.2292 C.ar    1  UNL1       -0.0042
     14 C           1.2763    1.3709   18.6235 C.ar    1  UNL1       -0.0003
     15 C           0.4341    0.8293   19.7403 C.ar    1  UNL1       -0.0000
     16 C           0.8571   -0.4152   20.4630 C.ar    1  UNL1       -0.0003
     17 C           2.1223   -1.1181   20.0687 C.ar    1  UNL1       -0.0042
     18 C           6.3264   -3.8915   24.1728 C.3     1  UNL1        0.0956
     19 C           7.2390   -4.9437   24.7297 C.3     1  UNL1        0.0477
     20 C           7.2470   -5.2263   26.2028 C.ar    1  UNL1       -0.0189
     21 C           7.6338   -6.5864   26.7035 C.ar    1  UNL1       -0.0026
     22 C           7.6418   -6.8690   28.1766 C.ar    1  UNL1        0.0203
     23 C           7.2630   -5.7916   29.1491 C.ar    1  UNL1        0.0989
     24 N           7.2711   -6.0742   30.6222 N.ar    1  UNL1       -0.2407
     25 C           6.8923   -4.9968   31.5946 C.ar    1  UNL1        0.1195
     26 C           6.5055   -3.6368   31.0939 C.ar    1  UNL1        0.1195
     27 N           6.4975   -3.3541   29.6209 N.ar    1  UNL1       -0.2407
     28 C           6.8762   -4.4315   28.6484 C.ar    1  UNL1        0.0986
     29 C           6.8682   -4.1489   27.1753 C.ar    1  UNL1        0.0164
@<TRIPOS>BOND
     1     1     2    1
     2     2    12    1
     3    12    13   ar
     4    13    14   ar
     5    14    15   ar
     6    15    16   ar
     7    16    17   ar
     8     2     3    1
     9     3     4    1
    10     4     5    1
    11     5     6    1
    12     6     7   am
    13     7     8    2
    14     7     9   am
    15     9    18    1
    16    18    19    1
    17    19    20    1
    18    20    21   ar
    19    21    22   ar
    20    22    23   ar
    21    23    24   ar
    22    24    25   ar
    23    25    26   ar
    24    26    27   ar
    25    27    28   ar
    26    28    29   ar
    27     6    10    1
    28    10     2    1
    29    17    12   ar
    30    29    20   ar
    31    28    23   ar
    32     9    11    1
@<TRIPOS>MOLECULE
*****
 29 32 0 0 0
SMALL
GASTEIGER

@<TRIPOS>ATOM
      1 C          -9.5108   -3.9019   17.1153 C.3     1  UNL1        0.0061
      2 C         -10.8959   -3.8755   17.6906 C.3     1  UNL1        0.0373
      3 C         -10.7275   -2.4243   17.3504 C.3     1  UNL1        0.0075
      4 C         -11.8356   -1.4540   17.6343 C.3     1  UNL1        0.0219
      5 C         -13.1121   -1.9348   18.2583 C.3     1  UNL1        0.0950
      6 N         -13.2805   -3.3861   18.5984 N.am    1  UNL1       -0.2639
      7 C         -14.5570   -3.8669   19.2224 C.2     1  UNL1        0.3040
      8 O         -14.7253   -5.3181   19.5625 O.2     1  UNL1       -0.2526
      9 N         -15.6651   -2.8966   19.5062 N.am    1  UNL1       -0.2884
     10 C         -12.1724   -4.3564   18.3146 C.3     1  UNL1        0.0989
     11 H         -15.5546   -1.9441   19.2830 H       1  UNL1        0.1510
     12 C         -10.5832   -5.3359   17.8309 C.ar    1  UNL1       -0.0212
     13 C          -9.6143   -5.7981   18.8785 C.ar    1  UNL1       -0.0042
     14 C          -9.3016   -7.2584   19.0188 C.ar    1  UNL1       -0.0003
     15 C          -9.9579   -8.2565   18.1116 C.ar    1  UNL1       -0.0000
     16 C         -10.9269   -7.7943   17.0640 C.ar    1  UNL1       -0.0003
     17 C         -11.2395   -6.3339   16.9237 C.ar    1  UNL1       -0.0042
     18 C         -16.9415   -3.3774   20.1302 C.3     1  UNL1        0.0956
     19 C         -18.0766   -3.8317   19.2611 C.3     1  UNL1        0.0477
     20 C         -18.1409   -5.2561   18.7952 C.ar    1  UNL1       -0.0189
     21 C         -18.7965   -5.5886   17.4877 C.ar    1  UNL1       -0.0026
     22 C         -18.8608   -7.0129   17.0217 C.ar    1  UNL1        0.0203
     23 C         -18.2696   -8.1048   17.8634 C.ar    1  UNL1        0.0989
     24 N         -18.3339   -9.5291   17.3974 N.ar    1  UNL1       -0.2407
     25 C         -17.7427  -10.6210   18.2390 C.ar    1  UNL1        0.1195
     26 C         -17.0871  -10.2884   19.5466 C.ar    1  UNL1        0.1195
     27 N         -17.0227   -8.8641   20.0125 N.ar    1  UNL1       -0.2407
     28 C         -17.6140   -7.7723   19.1709 C.ar    1  UNL1        0.0986
     29 C         -17.5497   -6.3479   19.6368 C.ar    1  UNL1        0.0164
@<TRIPOS>BOND
     1     1     2    1
     2     2    12    1
     3    12    13   ar
     4    13    14   ar
     5    14    15   ar
     6    15    16   ar
     7    16    17   ar
     8     2     3    1
     9     3     4    1
    10     4     5    1
    11     5     6    1
    12     6     7   am
    13     7     8    2
    14     7     9   am
    15     9    18    1
    16    18    19    1
    17    19    20    1
    18    20    21   ar
    19    21    22   ar
    20    22    23   ar
    21    23    24   ar
    22    24    25   ar
    23    25    26   ar
    24    26    27   ar
    25    27    28   ar
    26    28    29   ar
    27     6    10    1
    28    10     2    1
    29    17    12   ar
    30    29    20   ar
    31    28    23   ar
    32     9    11    1
@<TRIPOS>MOLECULE
*****
 29 32 0 0 0
SMALL
GASTEIGER

@<TRIPOS>ATOM
      1 C          -4.6938    4.5847   26.6456 C.3     1  UNL1        0.0061
      2 C          -3.8252    4.1393   25.5066 C.3     1  UNL1        0.0373
      3 C          -2.8445    4.0379   26.6370 C.3     1  UNL1        0.0075
      4 C          -1.4407    3.5800   26.3732 C.3     1  UNL1        0.0219
      5 C          -1.0176    3.2236   24.9790 C.3     1  UNL1        0.0950
      6 N          -1.9983    3.3249   23.8485 N.am    1  UNL1       -0.2639
      7 C          -1.5752    2.9684   22.4543 C.2     1  UNL1        0.3040
      8 O          -2.5559    3.0698   21.3239 O.2     1  UNL1       -0.2526
      9 N          -0.1713    2.5106   22.1906 N.am    1  UNL1       -0.2884
     10 C          -3.4021    3.7828   24.1123 C.3     1  UNL1        0.0989
     11 H           0.4724    2.4440   22.9325 H       1  UNL1        0.1510
     12 C          -5.1076    4.3954   24.7717 C.ar    1  UNL1       -0.0212
     13 C          -5.3356    3.7784   23.4237 C.ar    1  UNL1       -0.0042
     14 C          -6.6179    4.0345   22.6888 C.ar    1  UNL1       -0.0003
     15 C          -7.6723    4.9075   23.3019 C.ar    1  UNL1       -0.0000
     16 C          -7.4443    5.5246   24.6500 C.ar    1  UNL1       -0.0003
     17 C          -6.1619    5.2685   25.3849 C.ar    1  UNL1       -0.0042
     18 C           0.2518    2.1541   20.7964 C.3     1  UNL1        0.0956
     19 C           0.2059    0.7257   20.3407 C.3     1  UNL1        0.0477
     20 C           1.3970    0.1161   19.6627 C.ar    1  UNL1       -0.0189
     21 C           1.9739    0.7608   18.4373 C.ar    1  UNL1       -0.0026
     22 C           3.1649    0.1512   17.7592 C.ar    1  UNL1        0.0203
     23 C           3.7792   -1.1031   18.3065 C.ar    1  UNL1        0.0989
     24 N           4.9702   -1.7126   17.6285 N.ar    1  UNL1       -0.2407
     25 C           5.5844   -2.9668   18.1758 C.ar    1  UNL1        0.1195
     26 C           5.0075   -3.6115   19.4012 C.ar    1  UNL1        0.1195
     27 N           3.8165   -3.0020   20.0792 N.ar    1  UNL1       -0.2407
     28 C           3.2023   -1.7478   19.5319 C.ar    1  UNL1        0.0986
     29 C           2.0112   -1.1382   20.2100 C.ar    1  UNL1        0.0164
@<TRIPOS>BOND
     1     1     2    1
     2     2    12    1
     3    12    13   ar
     4    13    14   ar
     5    14    15   ar
     6    15    16   ar
     7    16    17   ar
     8     2     3    1
     9     3     4    1
    10     4     5    1
    11     5     6    1
    12     6     7   am
    13     7     8    2
    14     7     9   am
    15     9    18    1
    16    18    19    1
    17    19    20    1
    18    20    21   ar
    19    21    22   ar
    20    22    23   ar
    21    23    24   ar
    22    24    25   ar
    23    25    26   ar
    24    26    27   ar
    25    27    28   ar
    26    28    29   ar
    27     6    10    1
    28    10     2    1
    29    17    12   ar
    30    29    20   ar
    31    28    23   ar
    32     9    11    1
@<TRIPOS>MOLECULE
*****
 29 32 0 0 0
SMALL
GASTEIGER

@<TRIPOS>ATOM
      1 C           4.0030   -2.8178   19.3461 C.3     1  UNL1        0.0061
      2 C           3.8642   -2.2852   20.7415 C.3     1  UNL1        0.0373
      3 C           4.7601   -3.4603   20.9992 C.3     1  UNL1        0.0075
      4 C           5.2227   -3.7590   22.3945 C.3     1  UNL1        0.0219
      5 C           4.7895   -2.8825   23.5320 C.3     1  UNL1        0.0950
      6 N           3.8936   -1.7073   23.2743 N.am    1  UNL1       -0.2639
      7 C           3.4604   -0.8308   24.4119 C.2     1  UNL1        0.3040
      8 O           2.5645    0.3443   24.1542 O.2     1  UNL1       -0.2526
      9 N           3.9230   -1.1295   25.8072 N.am    1  UNL1       -0.2884
     10 C           3.4309   -1.4087   21.8791 C.3     1  UNL1        0.0989
     11 H           4.5110   -1.9008   25.9763 H       1  UNL1        0.1510
     12 C           3.0165   -1.2950   19.9992 C.ar    1  UNL1       -0.0212
     13 C           1.6664   -0.9157   20.5314 C.ar    1  UNL1       -0.0042
     14 C           0.8187    0.0745   19.7891 C.ar    1  UNL1       -0.0003
     15 C           1.3211    0.6853   18.5146 C.ar    1  UNL1       -0.0000
     16 C           2.6712    0.3060   17.9823 C.ar    1  UNL1       -0.0003
     17 C           3.5189   -0.6842   18.7247 C.ar    1  UNL1       -0.0042
     18 C           3.4898   -0.2530   26.9447 C.3     1  UNL1        0.0956
     19 C           2.6320   -0.8145   28.0396 C.3     1  UNL1        0.0477
     20 C           2.5602   -0.1198   29.3672 C.ar    1  UNL1       -0.0189
     21 C           3.3500   -0.6421   30.5306 C.ar    1  UNL1       -0.0026
     22 C           3.2783    0.0526   31.8581 C.ar    1  UNL1        0.0203
     23 C           2.4168    1.2695   32.0222 C.ar    1  UNL1        0.0989
     24 N           2.3451    1.9642   33.3497 N.ar    1  UNL1       -0.2407
     25 C           1.4836    3.1811   33.5138 C.ar    1  UNL1        0.1195
     26 C           0.6938    3.7033   32.3504 C.ar    1  UNL1        0.1195
     27 N           0.7655    3.0086   31.0229 N.ar    1  UNL1       -0.2407
     28 C           1.6270    1.7918   30.8588 C.ar    1  UNL1        0.0986
     29 C           1.6987    1.0970   29.5313 C.ar    1  UNL1        0.0164
@<TRIPOS>BOND
     1     1     2    1
     2     2    12    1
     3    12    13   ar
     4    13    14   ar
     5    14    15   ar
     6    15    16   ar
     7    16    17   ar
     8     2     3    1
     9     3     4    1
    10     4     5    1
    11     5     6    1
    12     6     7   am
    13     7     8    2
    14     7     9   am
    15     9    18    1
    16    18    19    1
    17    19    20    1
    18    20    21   ar
    19    21    22   ar
    20    22    23   ar
    21    23    24   ar
    22    24    25   ar
    23    25    26   ar
    24    26    27   ar
    25    27    28   ar
    26    28    29   ar
    27     6    10    1
    28    10     2    1
    29    17    12   ar
    30    29    20   ar
    31    28    23   ar
    32     9    11    1
@<TRIPOS>MOLECULE
*****
 29 32 0 0 0
SMALL
GASTEIGER

@<TRIPOS>ATOM
      1 C          -2.7839    3.3190   26.3018 C.3     1  UNL1        0.0061
      2 C          -2.0454    3.2280   24.9994 C.3     1  UNL1        0.0373
      3 C          -3.3936    3.6609   24.5046 C.3     1  UNL1        0.0075
      4 C          -3.6242    3.8634   23.0363 C.3     1  UNL1        0.0219
      5 C          -2.5065    3.6330   22.0628 C.3     1  UNL1        0.0950
      6 N          -1.1582    3.2000   22.5576 N.am    1  UNL1       -0.2639
      7 C          -0.0406    2.9696   21.5841 C.2     1  UNL1        0.3040
      8 O           1.3076    2.5366   22.0789 O.2     1  UNL1       -0.2526
      9 N          -0.2712    3.1721   20.1158 N.am    1  UNL1       -0.2884
     10 C          -0.9277    2.9975   24.0259 C.3     1  UNL1        0.0989
     11 H          -1.1561    3.4563   19.7911 H       1  UNL1        0.1510
     12 C          -0.9537    2.8267   25.9465 C.ar    1  UNL1       -0.0212
     13 C          -0.7267    3.6108   27.2049 C.ar    1  UNL1       -0.0042
     14 C           0.3651    3.2095   28.1521 C.ar    1  UNL1       -0.0003
     15 C           1.2298    2.0241   27.8408 C.ar    1  UNL1       -0.0000
     16 C           1.0029    1.2399   26.5824 C.ar    1  UNL1       -0.0003
     17 C          -0.0889    1.6413   25.6352 C.ar    1  UNL1       -0.0042
     18 C           0.8465    2.9417   19.1423 C.3     1  UNL1        0.0956
     19 C           0.8800    1.6861   18.3224 C.3     1  UNL1        0.0477
     20 C           1.7187    0.5237   18.7645 C.ar    1  UNL1       -0.0189
     21 C           1.3756   -0.2119   20.0259 C.ar    1  UNL1       -0.0026
     22 C           2.2143   -1.3743   20.4681 C.ar    1  UNL1        0.0203
     23 C           3.3962   -1.8010   19.6488 C.ar    1  UNL1        0.0989
     24 N           4.2349   -2.9633   20.0910 N.ar    1  UNL1       -0.2407
     25 C           5.4167   -3.3900   19.2717 C.ar    1  UNL1        0.1195
     26 C           5.7598   -2.6544   18.0103 C.ar    1  UNL1        0.1195
     27 N           4.9211   -1.4921   17.5682 N.ar    1  UNL1       -0.2407
     28 C           3.7393   -1.0654   18.3874 C.ar    1  UNL1        0.0986
     29 C           2.9005    0.0970   17.9453 C.ar    1  UNL1        0.0164
@<TRIPOS>BOND
     1     1     2    1
     2     2    12    1
     3    12    13   ar
     4    13    14   ar
     5    14    15   ar
     6    15    16   ar
     7    16    17   ar
     8     2     3    1
     9     3     4    1
    10     4     5    1
    11     5     6    1
    12     6     7   am
    13     7     8    2
    14     7     9   am
    15     9    18    1
    16    18    19    1
    17    19    20    1
    18    20    21   ar
    19    21    22   ar
    20    22    23   ar
    21    23    24   ar
    22    24    25   ar
    23    25    26   ar
    24    26    27   ar
    25    27    28   ar
    26    28    29   ar
    27     6    10    1
    28    10     2    1
    29    17    12   ar
    30    29    20   ar
    31    28    23   ar
    32     9    11    1
