@<TRIPOS>MOLECULE
*****
 34 36 0 0 0
SMALL
GASTEIGER

@<TRIPOS>ATOM
      1 N           0.0813    3.3240   19.8934 N.pl3   1  UNL1       -0.2150
      2 H           0.4858    4.0983   19.4395 H       1  UNL1        0.1737
      3 C           2.4364   -0.4789   20.3847 C.ar    1  UNL1        0.0002
      4 C           3.1498    0.8357   20.2708 C.ar    1  UNL1        0.0013
      5 C           2.3648    2.1033   20.1070 C.ar    1  UNL1        0.0159
      6 C           0.8663    2.0564   20.0572 C.ar    1  UNL1        0.0648
      7 C           0.1529    0.7418   20.1711 C.ar    1  UNL1        0.0159
      8 C           0.9380   -0.5259   20.3348 C.ar    1  UNL1        0.0013
      9 C           4.7048   -3.3018   22.0083 C.ar    1  UNL1        0.0590
     10 C           3.9197   -2.0342   21.8445 C.ar    1  UNL1        0.0147
     11 C           3.2216   -1.7465   20.5484 C.ar    1  UNL1        0.0027
     12 C           3.3085   -2.7264   19.4161 C.ar    1  UNL1        0.0207
     13 C           4.0936   -3.9940   19.5799 C.ar    1  UNL1        0.0984
     14 N           4.7917   -4.2817   20.8760 N.ar    1  UNL1       -0.2482
     15 C           5.4029   -3.5894   23.3044 C.3     1  UNL1        0.0458
     16 C           7.3850   -5.0286   24.1706 C.3     1  UNL1        0.0004
     17 C           6.8676   -3.9130   23.3117 C.3     1  UNL1        0.0063
     18 S          -1.3200    3.4118   20.4213 S.O2    1  UNL1        0.0736
     19 O          -1.8427    3.5047   19.0183 O.2     1  UNL1       -0.1499
     20 O          -0.7974    3.3190   21.8242 O.2     1  UNL1       -0.1499
     21 C          -2.7213    3.4997   20.9491 C.ar    1  UNL1        0.1251
     22 C          -2.9689    3.4703   22.4282 C.ar    1  UNL1        0.0240
     23 C          -4.3702    3.5581   22.9560 C.ar    1  UNL1        0.0727
     24 C          -5.5240    3.6754   22.0048 C.ar    1  UNL1        0.0078
     25 C          -5.2764    3.7048   20.5256 C.ar    1  UNL1        0.0727
     26 C          -3.8751    3.6169   19.9978 C.ar    1  UNL1        0.0240
     27 C          -4.6177    3.5287   24.4352 C.3     1  UNL1        0.4186
     28 F          -4.8651    3.4993   25.9144 F       1  UNL1       -0.1659
     29 F          -6.0459    3.9246   24.2042 F       1  UNL1       -0.1659
     30 F          -3.1895    3.1328   24.6663 F       1  UNL1       -0.1659
     31 C          -6.4303    3.8220   19.5743 C.3     1  UNL1        0.4186
     32 F          -7.5840    3.9393   18.6230 F       1  UNL1       -0.1659
     33 F          -7.1577    4.6843   20.5628 F       1  UNL1       -0.1659
     34 F          -5.7028    2.9598   18.5857 F       1  UNL1       -0.1659
@<TRIPOS>BOND
     1    16    17    1
     2    17    15    1
     3    15     9    1
     4     9    10   ar
     5    10    11   ar
     6    11     3    1
     7     3     4   ar
     8     4     5   ar
     9     5     6   ar
    10     6     1    1
    11     1    18    1
    12    18    19    2
    13    18    20    2
    14    18    21    1
    15    21    22   ar
    16    22    23   ar
    17    23    27    1
    18    27    28    1
    19    27    29    1
    20    27    30    1
    21    23    24   ar
    22    24    25   ar
    23    25    31    1
    24    31    32    1
    25    31    33    1
    26    31    34    1
    27    25    26   ar
    28     6     7   ar
    29     7     8   ar
    30    11    12   ar
    31    12    13   ar
    32    13    14   ar
    33    14     9   ar
    34     8     3   ar
    35    26    21   ar
    36     1     2    1
@<TRIPOS>MOLECULE
*****
 34 36 0 0 0
SMALL
GASTEIGER

@<TRIPOS>ATOM
      1 N           0.4331    3.2461   20.2935 N.pl3   1  UNL1       -0.2150
      2 H           0.8988    4.0508   19.9697 H       1  UNL1        0.1737
      3 C           2.6222   -0.6784   20.5292 C.ar    1  UNL1        0.0002
      4 C           3.3568    0.6061   20.7750 C.ar    1  UNL1        0.0013
      5 C           2.6271    1.9142   20.6964 C.ar    1  UNL1        0.0159
      6 C           1.1628    1.9380   20.3721 C.ar    1  UNL1        0.0648
      7 C           0.4281    0.6535   20.1263 C.ar    1  UNL1        0.0159
      8 C           1.1579   -0.6548   20.2049 C.ar    1  UNL1        0.0013
      9 C           4.8789   -3.6365   21.9103 C.ar    1  UNL1        0.0590
     10 C           4.1492   -2.3284   21.8316 C.ar    1  UNL1        0.0147
     11 C           3.3519   -1.9867   20.6078 C.ar    1  UNL1        0.0027
     12 C           3.2844   -2.9531   19.4627 C.ar    1  UNL1        0.0207
     13 C           4.0141   -4.2612   19.5413 C.ar    1  UNL1        0.0984
     14 N           4.8114   -4.6029   20.7651 N.ar    1  UNL1       -0.2482
     15 C           5.6761   -3.9782   23.1340 C.3     1  UNL1        0.0458
     16 C           7.8392   -3.1516   21.9561 C.3     1  UNL1        0.0004
     17 C           7.1584   -3.7494   23.1516 C.3     1  UNL1        0.0063
     18 S          -1.0061    3.3283   20.7083 S.O2    1  UNL1        0.0736
     19 O          -1.4144    3.4402   19.2693 O.2     1  UNL1       -0.1499
     20 O          -0.5977    3.2163   22.1473 O.2     1  UNL1       -0.1499
     21 C          -2.4452    3.4105   21.1230 C.ar    1  UNL1        0.1251
     22 C          -3.5240    3.4619   20.0821 C.ar    1  UNL1        0.0240
     23 C          -4.9632    3.5440   20.4968 C.ar    1  UNL1        0.0727
     24 C          -5.3236    3.5748   21.9525 C.ar    1  UNL1        0.0078
     25 C          -4.2448    3.5234   22.9935 C.ar    1  UNL1        0.0727
     26 C          -2.8057    3.4412   22.5787 C.ar    1  UNL1        0.0240
     27 C          -6.0419    3.5954   19.4558 C.3     1  UNL1        0.4186
     28 F          -7.1206    3.6468   18.4148 F       1  UNL1       -0.1659
     29 F          -7.0218    4.0560   20.4939 F       1  UNL1       -0.1659
     30 F          -5.0620    3.1349   18.4177 F       1  UNL1       -0.1659
     31 C          -4.6052    3.5541   24.4493 C.3     1  UNL1        0.4186
     32 F          -4.9656    3.5848   25.9050 F       1  UNL1       -0.1659
     33 F          -3.1977    3.1777   24.8056 F       1  UNL1       -0.1659
     34 F          -6.0128    3.9305   24.0929 F       1  UNL1       -0.1659
@<TRIPOS>BOND
     1    16    17    1
     2    17    15    1
     3    15     9    1
     4     9    10   ar
     5    10    11   ar
     6    11     3    1
     7     3     4   ar
     8     4     5   ar
     9     5     6   ar
    10     6     1    1
    11     1    18    1
    12    18    19    2
    13    18    20    2
    14    18    21    1
    15    21    22   ar
    16    22    23   ar
    17    23    27    1
    18    27    28    1
    19    27    29    1
    20    27    30    1
    21    23    24   ar
    22    24    25   ar
    23    25    31    1
    24    31    32    1
    25    31    33    1
    26    31    34    1
    27    25    26   ar
    28     6     7   ar
    29     7     8   ar
    30    11    12   ar
    31    12    13   ar
    32    13    14   ar
    33    14     9   ar
    34     8     3   ar
    35    26    21   ar
    36     1     2    1
@<TRIPOS>MOLECULE
*****
 34 36 0 0 0
SMALL
GASTEIGER

@<TRIPOS>ATOM
      1 N          -1.2694    3.4575   19.9422 N.pl3   1  UNL1       -0.2150
      2 H          -1.5153    4.0942   19.2327 H       1  UNL1        0.1737
      3 C           1.8966    0.3519   19.1799 C.ar    1  UNL1        0.0002
      4 C           0.8441    0.1101   20.2210 C.ar    1  UNL1        0.0013
      5 C          -0.2112    1.1453   20.4751 C.ar    1  UNL1        0.0159
      6 C          -0.2141    2.4223   19.6881 C.ar    1  UNL1        0.0648
      7 C           0.8384    2.6641   18.6470 C.ar    1  UNL1        0.0159
      8 C           1.8938    1.6288   18.3929 C.ar    1  UNL1        0.0013
      9 C           4.1464   -2.8907   19.5975 C.ar    1  UNL1        0.0590
     10 C           3.0911   -1.8554   19.8516 C.ar    1  UNL1        0.0147
     11 C           2.9520   -0.6834   18.9258 C.ar    1  UNL1        0.0027
     12 C           3.8682   -0.5466   17.7461 C.ar    1  UNL1        0.0207
     13 C           4.9235   -1.5819   17.4920 C.ar    1  UNL1        0.0984
     14 N           5.0626   -2.7539   18.4178 N.ar    1  UNL1       -0.2482
     15 C           4.2856   -4.0627   20.5233 C.3     1  UNL1        0.0458
     16 C           6.0964   -3.9150   22.3804 C.3     1  UNL1        0.0004
     17 C           4.6584   -3.8438   21.9596 C.3     1  UNL1        0.0063
     18 S          -1.9501    3.5226   21.2772 S.O2    1  UNL1        0.0736
     19 O          -0.7488    4.2092   21.8563 O.2     1  UNL1       -0.1499
     20 O          -3.1515    2.8359   20.6981 O.2     1  UNL1       -0.1499
     21 C          -2.6309    3.5876   22.6123 C.ar    1  UNL1        0.1251
     22 C          -1.8315    3.4217   23.8706 C.ar    1  UNL1        0.0240
     23 C          -2.5123    3.4868   25.2057 C.ar    1  UNL1        0.0727
     24 C          -3.9924    3.7178   25.2824 C.ar    1  UNL1        0.0078
     25 C          -4.7917    3.8837   24.0240 C.ar    1  UNL1        0.0727
     26 C          -4.1110    3.8186   22.6890 C.ar    1  UNL1        0.0240
     27 C          -1.7129    3.3208   26.4640 C.3     1  UNL1        0.4186
     28 F          -0.9135    3.1549   27.7223 F       1  UNL1       -0.1659
     29 F          -2.2014    4.6531   26.9501 F       1  UNL1       -0.1659
     30 F          -1.2243    1.9886   25.9780 F       1  UNL1       -0.1659
     31 C          -6.2719    4.1147   24.1007 C.3     1  UNL1        0.4186
     32 F          -7.7520    4.3457   24.1773 F       1  UNL1       -0.1659
     33 F          -6.4263    3.5881   22.7047 F       1  UNL1       -0.1659
     34 F          -6.1175    4.6412   25.4967 F       1  UNL1       -0.1659
@<TRIPOS>BOND
     1    16    17    1
     2    17    15    1
     3    15     9    1
     4     9    10   ar
     5    10    11   ar
     6    11     3    1
     7     3     4   ar
     8     4     5   ar
     9     5     6   ar
    10     6     1    1
    11     1    18    1
    12    18    19    2
    13    18    20    2
    14    18    21    1
    15    21    22   ar
    16    22    23   ar
    17    23    27    1
    18    27    28    1
    19    27    29    1
    20    27    30    1
    21    23    24   ar
    22    24    25   ar
    23    25    31    1
    24    31    32    1
    25    31    33    1
    26    31    34    1
    27    25    26   ar
    28     6     7   ar
    29     7     8   ar
    30    11    12   ar
    31    12    13   ar
    32    13    14   ar
    33    14     9   ar
    34     8     3   ar
    35    26    21   ar
    36     1     2    1
@<TRIPOS>MOLECULE
*****
 34 36 0 0 0
SMALL
GASTEIGER

@<TRIPOS>ATOM
      1 N          -1.2910    3.4901   19.9686 N.pl3   1  UNL1       -0.2150
      2 H          -1.5403    4.1200   19.2542 H       1  UNL1        0.1737
      3 C           1.8889    0.3931   19.2290 C.ar    1  UNL1        0.0002
      4 C           0.8395    0.1558   20.2742 C.ar    1  UNL1        0.0013
      5 C          -0.2205    1.1881   20.5207 C.ar    1  UNL1        0.0159
      6 C          -0.2311    2.4578   19.7221 C.ar    1  UNL1        0.0648
      7 C           0.8183    2.6951   18.6769 C.ar    1  UNL1        0.0159
      8 C           1.8783    1.6627   18.4304 C.ar    1  UNL1        0.0013
      9 C           4.1320   -2.8534   19.6517 C.ar    1  UNL1        0.0590
     10 C           3.0721   -1.8210   19.8981 C.ar    1  UNL1        0.0147
     11 C           2.9489   -0.6393   18.9825 C.ar    1  UNL1        0.0027
     12 C           3.8855   -0.4898   17.8206 C.ar    1  UNL1        0.0207
     13 C           4.9455   -1.5222   17.5741 C.ar    1  UNL1        0.0984
     14 N           5.0687   -2.7040   18.4897 N.ar    1  UNL1       -0.2482
     15 C           4.2553   -4.0351   20.5672 C.3     1  UNL1        0.0458
     16 C           4.5809   -3.0152   22.9344 C.3     1  UNL1        0.0004
     17 C           5.0488   -3.9221   21.8351 C.3     1  UNL1        0.0063
     18 S          -1.9712    3.5627   21.3035 S.O2    1  UNL1        0.0736
     19 O          -3.1560    2.8360   20.7394 O.2     1  UNL1       -0.1499
     20 O          -0.7864    4.2894   21.8676 O.2     1  UNL1       -0.1499
     21 C          -2.6513    3.6354   22.6385 C.ar    1  UNL1        0.1251
     22 C          -4.1235    3.9121   22.7161 C.ar    1  UNL1        0.0240
     23 C          -4.8037    3.9847   24.0510 C.ar    1  UNL1        0.0727
     24 C          -4.0116    3.7806   25.3084 C.ar    1  UNL1        0.0078
     25 C          -2.5395    3.5039   25.2308 C.ar    1  UNL1        0.0727
     26 C          -1.8593    3.4313   23.8958 C.ar    1  UNL1        0.0240
     27 C          -6.2759    4.2615   24.1286 C.3     1  UNL1        0.4186
     28 F          -7.7481    4.5382   24.2062 F       1  UNL1       -0.1659
     29 F          -6.4702    3.6019   22.7955 F       1  UNL1       -0.1659
     30 F          -6.0817    4.9211   25.4617 F       1  UNL1       -0.1659
     31 C          -1.7474    3.2998   26.4882 C.3     1  UNL1        0.4186
     32 F          -0.9553    3.0956   27.7455 F       1  UNL1       -0.1659
     33 F          -1.2284    1.9994   25.9501 F       1  UNL1       -0.1659
     34 F          -2.2663    4.6002   27.0263 F       1  UNL1       -0.1659
@<TRIPOS>BOND
     1    16    17    1
     2    17    15    1
     3    15     9    1
     4     9    10   ar
     5    10    11   ar
     6    11     3    1
     7     3     4   ar
     8     4     5   ar
     9     5     6   ar
    10     6     1    1
    11     1    18    1
    12    18    19    2
    13    18    20    2
    14    18    21    1
    15    21    22   ar
    16    22    23   ar
    17    23    27    1
    18    27    28    1
    19    27    29    1
    20    27    30    1
    21    23    24   ar
    22    24    25   ar
    23    25    31    1
    24    31    32    1
    25    31    33    1
    26    31    34    1
    27    25    26   ar
    28     6     7   ar
    29     7     8   ar
    30    11    12   ar
    31    12    13   ar
    32    13    14   ar
    33    14     9   ar
    34     8     3   ar
    35    26    21   ar
    36     1     2    1
@<TRIPOS>MOLECULE
*****
 34 36 0 0 0
SMALL
GASTEIGER

@<TRIPOS>ATOM
      1 N          -0.6956    3.4164   19.8162 N.pl3   1  UNL1       -0.2150
      2 H          -1.1605    3.9742   19.1514 H       1  UNL1        0.1737
      3 C           2.9071    1.0066   18.6068 C.ar    1  UNL1        0.0002
      4 C           2.8988    2.4935   18.4098 C.ar    1  UNL1        0.0013
      5 C           1.6979    3.2968   18.8129 C.ar    1  UNL1        0.0159
      6 C           0.5052    2.6132   19.4131 C.ar    1  UNL1        0.0648
      7 C           0.5135    1.1262   19.6101 C.ar    1  UNL1        0.0159
      8 C           1.7145    0.3229   19.2069 C.ar    1  UNL1        0.0013
      9 C           5.3745   -2.0637   18.1219 C.ar    1  UNL1        0.0590
     10 C           4.1737   -1.2604   18.5250 C.ar    1  UNL1        0.0147
     11 C           4.1081    0.2033   18.2036 C.ar    1  UNL1        0.0027
     12 C           5.2433    0.8637   17.4791 C.ar    1  UNL1        0.0207
     13 C           6.4442    0.0604   17.0760 C.ar    1  UNL1        0.0984
     14 N           6.5098   -1.4033   17.3974 N.ar    1  UNL1       -0.2482
     15 C           5.4401   -3.5274   18.4433 C.3     1  UNL1        0.0458
     16 C           3.2065   -4.6663   19.1242 C.3     1  UNL1        0.0004
     17 C           4.5454   -4.1041   19.5001 C.3     1  UNL1        0.0063
     18 S          -1.1882    3.3699   21.2323 S.O2    1  UNL1        0.0736
     19 O           0.0683    4.0482   21.6917 O.2     1  UNL1       -0.1499
     20 O          -2.4448    2.6916   20.7729 O.2     1  UNL1       -0.1499
     21 C          -1.6808    3.3233   22.6483 C.ar    1  UNL1        0.1251
     22 C          -3.1227    3.6055   22.9505 C.ar    1  UNL1        0.0240
     23 C          -3.6153    3.5589   24.3665 C.ar    1  UNL1        0.0727
     24 C          -2.6660    3.2302   25.4804 C.ar    1  UNL1        0.0078
     25 C          -1.2242    2.9481   25.1782 C.ar    1  UNL1        0.0727
     26 C          -0.7316    2.9947   23.7622 C.ar    1  UNL1        0.0240
     27 C          -5.0573    3.8411   24.6686 C.3     1  UNL1        0.4186
     28 F          -6.4992    4.1232   24.9707 F       1  UNL1       -0.1659
     29 F          -4.7716    3.7293   26.1369 F       1  UNL1       -0.1659
     30 F          -5.3430    3.9529   23.2004 F       1  UNL1       -0.1659
     31 C          -0.2748    2.6194   26.2922 C.3     1  UNL1        0.4186
     32 F           0.6745    2.2907   27.4060 F       1  UNL1       -0.1659
     33 F          -1.4327    2.2403   27.1671 F       1  UNL1       -0.1659
     34 F           0.8831    2.9985   25.4172 F       1  UNL1       -0.1659
@<TRIPOS>BOND
     1    16    17    1
     2    17    15    1
     3    15     9    1
     4     9    10   ar
     5    10    11   ar
     6    11     3    1
     7     3     4   ar
     8     4     5   ar
     9     5     6   ar
    10     6     1    1
    11     1    18    1
    12    18    19    2
    13    18    20    2
    14    18    21    1
    15    21    22   ar
    16    22    23   ar
    17    23    27    1
    18    27    28    1
    19    27    29    1
    20    27    30    1
    21    23    24   ar
    22    24    25   ar
    23    25    31    1
    24    31    32    1
    25    31    33    1
    26    31    34    1
    27    25    26   ar
    28     6     7   ar
    29     7     8   ar
    30    11    12   ar
    31    12    13   ar
    32    13    14   ar
    33    14     9   ar
    34     8     3   ar
    35    26    21   ar
    36     1     2    1
@<TRIPOS>MOLECULE
*****
 34 36 0 0 0
SMALL
GASTEIGER

@<TRIPOS>ATOM
      1 N           6.7603   -4.0483   22.7685 N.pl3   1  UNL1       -0.2150
      2 H           7.4122   -4.5574   22.2345 H       1  UNL1        0.1737
      3 C           6.7987   -4.3568   27.2577 C.ar    1  UNL1        0.0002
      4 C           7.2133   -5.5311   26.4217 C.ar    1  UNL1        0.0013
      5 C           7.2006   -5.4283   24.9253 C.ar    1  UNL1        0.0159
      6 C           6.7731   -4.1511   24.2649 C.ar    1  UNL1        0.0648
      7 C           6.3585   -2.9767   25.1009 C.ar    1  UNL1        0.0159
      8 C           6.3713   -3.0796   26.5974 C.ar    1  UNL1        0.0013
      9 C           6.4168   -3.3856   31.0867 C.ar    1  UNL1        0.0590
     10 C           6.4040   -3.2828   29.5903 C.ar    1  UNL1        0.0147
     11 C           6.8115   -4.4596   28.7542 C.ar    1  UNL1        0.0027
     12 C           7.2317   -5.7392   29.4144 C.ar    1  UNL1        0.0207
     13 C           7.2445   -5.8420   30.9108 C.ar    1  UNL1        0.0984
     14 N           6.8370   -4.6652   31.7470 N.ar    1  UNL1       -0.2482
     15 C           6.0094   -2.2088   31.9228 C.3     1  UNL1        0.0458
     16 C           4.4892   -1.6706   33.9599 C.3     1  UNL1        0.0004
     17 C           4.6499   -2.1732   32.5557 C.3     1  UNL1        0.0063
     18 S           5.7543   -3.1699   22.0856 S.O2    1  UNL1        0.0736
     19 O           6.8139   -2.1326   21.8591 O.2     1  UNL1       -0.1499
     20 O           4.6948   -4.2072   22.3121 O.2     1  UNL1       -0.1499
     21 C           4.7483   -2.2915   21.4027 C.ar    1  UNL1        0.1251
     22 C           3.7385   -1.5359   22.2148 C.ar    1  UNL1        0.0240
     23 C           2.7325   -0.6575   21.5319 C.ar    1  UNL1        0.0727
     24 C           2.7363   -0.5346   20.0370 C.ar    1  UNL1        0.0078
     25 C           3.7461   -1.2902   19.2249 C.ar    1  UNL1        0.0727
     26 C           4.7521   -2.1686   19.9078 C.ar    1  UNL1        0.0240
     27 C           1.7227    0.0980   22.3440 C.3     1  UNL1        0.4186
     28 F           0.7130    0.8535   23.1562 F       1  UNL1       -0.1659
     29 F           1.0327    0.5300   21.0842 F       1  UNL1       -0.1659
     30 F           2.4127   -0.3340   23.6039 F       1  UNL1       -0.1659
     31 C           3.7499   -1.1673   17.7299 C.3     1  UNL1        0.4186
     32 F           3.7537   -1.0444   16.2350 F       1  UNL1       -0.1659
     33 F           2.6974   -0.1020   17.8149 F       1  UNL1       -0.1659
     34 F           4.8024   -2.2326   17.6450 F       1  UNL1       -0.1659
@<TRIPOS>BOND
     1    16    17    1
     2    17    15    1
     3    15     9    1
     4     9    10   ar
     5    10    11   ar
     6    11     3    1
     7     3     4   ar
     8     4     5   ar
     9     5     6   ar
    10     6     1    1
    11     1    18    1
    12    18    19    2
    13    18    20    2
    14    18    21    1
    15    21    22   ar
    16    22    23   ar
    17    23    27    1
    18    27    28    1
    19    27    29    1
    20    27    30    1
    21    23    24   ar
    22    24    25   ar
    23    25    31    1
    24    31    32    1
    25    31    33    1
    26    31    34    1
    27    25    26   ar
    28     6     7   ar
    29     7     8   ar
    30    11    12   ar
    31    12    13   ar
    32    13    14   ar
    33    14     9   ar
    34     8     3   ar
    35    26    21   ar
    36     1     2    1
@<TRIPOS>MOLECULE
*****
 34 36 0 0 0
SMALL
GASTEIGER

@<TRIPOS>ATOM
      1 N           4.9200   -0.2699   24.5264 N.pl3   1  UNL1       -0.2150
      2 H           4.9250    0.6884   24.7522 H       1  UNL1        0.1737
      3 C           6.4068   -3.2923   27.5104 C.ar    1  UNL1        0.0002
      4 C           5.6459   -2.0874   27.9788 C.ar    1  UNL1        0.0013
      5 C           5.1504   -1.0799   26.9842 C.ar    1  UNL1        0.0159
      6 C           5.4156   -1.2773   25.5210 C.ar    1  UNL1        0.0648
      7 C           6.1765   -2.4822   25.0526 C.ar    1  UNL1        0.0159
      8 C           6.6720   -3.4897   26.0473 C.ar    1  UNL1        0.0013
      9 C           8.1404   -6.5228   29.0297 C.ar    1  UNL1        0.0590
     10 C           7.6448   -5.5154   28.0350 C.ar    1  UNL1        0.0147
     11 C           6.9024   -4.2998   28.5051 C.ar    1  UNL1        0.0027
     12 C           6.6555   -4.0916   29.9699 C.ar    1  UNL1        0.0207
     13 C           7.1511   -5.0990   30.9646 C.ar    1  UNL1        0.0984
     14 N           7.8935   -6.3147   30.4944 N.ar    1  UNL1       -0.2482
     15 C           8.8828   -7.7385   28.5595 C.3     1  UNL1        0.0458
     16 C           9.0087   -8.1435   25.9963 C.3     1  UNL1        0.0004
     17 C           8.4205   -8.4732   27.3362 C.3     1  UNL1        0.0063
     18 S           4.4169   -0.7223   23.1876 S.O2    1  UNL1        0.0736
     19 O           3.1333   -1.1703   23.8214 O.2     1  UNL1       -0.1499
     20 O           5.7006   -0.2744   22.5538 O.2     1  UNL1       -0.1499
     21 C           3.9138   -1.1748   21.8489 C.ar    1  UNL1        0.1251
     22 C           2.9932   -0.2944   21.0570 C.ar    1  UNL1        0.0240
     23 C           2.4901   -0.7469   19.7183 C.ar    1  UNL1        0.0727
     24 C           2.9076   -2.0798   19.1715 C.ar    1  UNL1        0.0078
     25 C           3.8282   -2.9603   19.9635 C.ar    1  UNL1        0.0727
     26 C           4.3313   -2.5078   21.3022 C.ar    1  UNL1        0.0240
     27 C           1.5695    0.1336   18.9263 C.3     1  UNL1        0.4186
     28 F           0.6489    1.0141   18.1343 F       1  UNL1       -0.1659
     29 F           0.4669   -0.1375   19.9065 F       1  UNL1       -0.1659
     30 F           2.6720    0.4047   17.9461 F       1  UNL1       -0.1659
     31 C           4.2458   -4.2933   19.4168 C.3     1  UNL1        0.4186
     32 F           4.6632   -5.6262   18.8701 F       1  UNL1       -0.1659
     33 F           2.8511   -4.5244   18.9154 F       1  UNL1       -0.1659
     34 F           5.6404   -4.0621   19.9182 F       1  UNL1       -0.1659
@<TRIPOS>BOND
     1    16    17    1
     2    17    15    1
     3    15     9    1
     4     9    10   ar
     5    10    11   ar
     6    11     3    1
     7     3     4   ar
     8     4     5   ar
     9     5     6   ar
    10     6     1    1
    11     1    18    1
    12    18    19    2
    13    18    20    2
    14    18    21    1
    15    21    22   ar
    16    22    23   ar
    17    23    27    1
    18    27    28    1
    19    27    29    1
    20    27    30    1
    21    23    24   ar
    22    24    25   ar
    23    25    31    1
    24    31    32    1
    25    31    33    1
    26    31    34    1
    27    25    26   ar
    28     6     7   ar
    29     7     8   ar
    30    11    12   ar
    31    12    13   ar
    32    13    14   ar
    33    14     9   ar
    34     8     3   ar
    35    26    21   ar
    36     1     2    1
@<TRIPOS>MOLECULE
*****
 34 36 0 0 0
SMALL
GASTEIGER

@<TRIPOS>ATOM
      1 N           6.6269   -4.0732   22.7864 N.pl3   1  UNL1       -0.2150
      2 H           7.2556   -4.6143   22.2562 H       1  UNL1        0.1737
      3 C           6.7210   -4.2746   27.2809 C.ar    1  UNL1        0.0002
      4 C           7.1259   -5.4684   26.4680 C.ar    1  UNL1        0.0013
      5 C           7.0946   -5.4013   24.9699 C.ar    1  UNL1        0.0159
      6 C           6.6582   -4.1403   24.2845 C.ar    1  UNL1        0.0648
      7 C           6.2533   -2.9465   25.0974 C.ar    1  UNL1        0.0159
      8 C           6.2847   -3.0136   26.5956 C.ar    1  UNL1        0.0013
      9 C           6.5662   -3.1659   31.0884 C.ar    1  UNL1        0.0590
     10 C           6.5348   -3.0988   29.5903 C.ar    1  UNL1        0.0147
     11 C           6.7524   -4.3417   28.7791 C.ar    1  UNL1        0.0027
     12 C           7.0014   -5.6516   29.4661 C.ar    1  UNL1        0.0207
     13 C           7.0328   -5.7187   30.9643 C.ar    1  UNL1        0.0984
     14 N           6.8152   -4.4759   31.7754 N.ar    1  UNL1       -0.2482
     15 C           6.3485   -1.9231   31.8996 C.3     1  UNL1        0.0458
     16 C           4.3926   -2.3369   33.5587 C.3     1  UNL1        0.0004
     17 C           4.9754   -1.5845   32.3993 C.3     1  UNL1        0.0063
     18 S           5.6376   -3.1817   22.0961 S.O2    1  UNL1        0.0736
     19 O           4.5637   -4.2067   22.3115 O.2     1  UNL1       -0.1499
     20 O           6.7114   -2.1568   21.8808 O.2     1  UNL1       -0.1499
     21 C           4.6483   -2.2902   21.4058 C.ar    1  UNL1        0.1251
     22 C           4.6661   -2.1658   19.9111 C.ar    1  UNL1        0.0240
     23 C           3.6768   -1.2743   19.2209 C.ar    1  UNL1        0.0727
     24 C           2.6696   -0.5072   20.0253 C.ar    1  UNL1        0.0078
     25 C           2.6518   -0.6316   21.5199 C.ar    1  UNL1        0.0727
     26 C           3.6411   -1.5231   22.2102 C.ar    1  UNL1        0.0240
     27 C           3.6947   -1.1499   17.7261 C.3     1  UNL1        0.4186
     28 F           3.7127   -1.0256   16.2314 F       1  UNL1       -0.1659
     29 F           2.6562   -0.0704   17.8034 F       1  UNL1       -0.1659
     30 F           4.7333   -2.2294   17.6487 F       1  UNL1       -0.1659
     31 C           1.6446    0.1355   22.3244 C.3     1  UNL1        0.4186
     32 F           0.6374    0.9026   23.1288 F       1  UNL1       -0.1659
     33 F           0.9187    0.5037   21.0645 F       1  UNL1       -0.1659
     34 F           2.3704   -0.2328   23.5844 F       1  UNL1       -0.1659
@<TRIPOS>BOND
     1    16    17    1
     2    17    15    1
     3    15     9    1
     4     9    10   ar
     5    10    11   ar
     6    11     3    1
     7     3     4   ar
     8     4     5   ar
     9     5     6   ar
    10     6     1    1
    11     1    18    1
    12    18    19    2
    13    18    20    2
    14    18    21    1
    15    21    22   ar
    16    22    23   ar
    17    23    27    1
    18    27    28    1
    19    27    29    1
    20    27    30    1
    21    23    24   ar
    22    24    25   ar
    23    25    31    1
    24    31    32    1
    25    31    33    1
    26    31    34    1
    27    25    26   ar
    28     6     7   ar
    29     7     8   ar
    30    11    12   ar
    31    12    13   ar
    32    13    14   ar
    33    14     9   ar
    34     8     3   ar
    35    26    21   ar
    36     1     2    1
@<TRIPOS>MOLECULE
*****
 34 36 0 0 0
SMALL
GASTEIGER

@<TRIPOS>ATOM
      1 N          -0.4467    3.0973   19.8481 N.pl3   1  UNL1       -0.2150
      2 H          -0.5318    3.7747   19.1387 H       1  UNL1        0.1737
      3 C           2.4142   -0.3397   19.3460 C.ar    1  UNL1        0.0002
      4 C           2.6468    0.9441   18.6058 C.ar    1  UNL1        0.0013
      5 C           1.6932    2.0897   18.7731 C.ar    1  UNL1        0.0159
      6 C           0.5069    1.9517   19.6808 C.ar    1  UNL1        0.0648
      7 C           0.2743    0.6680   20.4210 C.ar    1  UNL1        0.0159
      8 C           1.2279   -0.4777   20.2536 C.ar    1  UNL1        0.0013
      9 C           5.7196   -2.3787   18.5298 C.ar    1  UNL1        0.0590
     10 C           4.7660   -1.2331   18.6973 C.ar    1  UNL1        0.0147
     11 C           3.3679   -1.4853   19.1786 C.ar    1  UNL1        0.0027
     12 C           2.9234   -2.8831   19.4925 C.ar    1  UNL1        0.0207
     13 C           3.8771   -4.0287   19.3250 C.ar    1  UNL1        0.0984
     14 N           5.2752   -3.7765   18.8437 N.ar    1  UNL1       -0.2482
     15 C           7.1178   -2.1265   18.0485 C.3     1  UNL1        0.0458
     16 C           7.9998   -2.3296   20.4838 C.3     1  UNL1        0.0004
     17 C           8.2634   -2.1711   19.0157 C.3     1  UNL1        0.0063
     18 S          -1.2708    3.2110   21.0963 S.O2    1  UNL1        0.0736
     19 O          -2.4683    2.6986   20.3524 O.2     1  UNL1       -0.1499
     20 O          -0.0733    3.7234   21.8403 O.2     1  UNL1       -0.1499
     21 C          -2.0949    3.3247   22.3445 C.ar    1  UNL1        0.1251
     22 C          -3.5771    3.5337   22.2482 C.ar    1  UNL1        0.0240
     23 C          -4.4012    3.6474   23.4963 C.ar    1  UNL1        0.0727
     24 C          -3.7431    3.5521   24.8409 C.ar    1  UNL1        0.0078
     25 C          -2.2609    3.3431   24.9372 C.ar    1  UNL1        0.0727
     26 C          -1.4368    3.2294   23.6890 C.ar    1  UNL1        0.0240
     27 C          -5.8835    3.8564   23.4000 C.3     1  UNL1        0.4186
     28 F          -7.3657    4.0654   23.3036 F       1  UNL1       -0.1659
     29 F          -5.9559    4.0293   24.8882 F       1  UNL1       -0.1659
     30 F          -5.8111    3.6835   21.9118 F       1  UNL1       -0.1659
     31 C          -1.6027    3.2477   26.2817 C.3     1  UNL1        0.4186
     32 F          -0.9445    3.1523   27.6262 F       1  UNL1       -0.1659
     33 F          -0.9760    1.9447   25.8825 F       1  UNL1       -0.1659
     34 F          -2.2293    4.5507   26.6809 F       1  UNL1       -0.1659
@<TRIPOS>BOND
     1    16    17    1
     2    17    15    1
     3    15     9    1
     4     9    10   ar
     5    10    11   ar
     6    11     3    1
     7     3     4   ar
     8     4     5   ar
     9     5     6   ar
    10     6     1    1
    11     1    18    1
    12    18    19    2
    13    18    20    2
    14    18    21    1
    15    21    22   ar
    16    22    23   ar
    17    23    27    1
    18    27    28    1
    19    27    29    1
    20    27    30    1
    21    23    24   ar
    22    24    25   ar
    23    25    31    1
    24    31    32    1
    25    31    33    1
    26    31    34    1
    27    25    26   ar
    28     6     7   ar
    29     7     8   ar
    30    11    12   ar
    31    12    13   ar
    32    13    14   ar
    33    14     9   ar
    34     8     3   ar
    35    26    21   ar
    36     1     2    1
