@<TRIPOS>MOLECULE
*****
 31 34 0 0 0
SMALL
GASTEIGER

@<TRIPOS>ATOM
      1 C          -5.7334  -20.3287   20.3928 C.ar    1  UNL1        0.1311
      2 C          -6.3871  -19.0749   20.8937 C.ar    1  UNL1        0.0339
      3 C          -7.7912  -18.7452   20.4816 C.ar    1  UNL1        0.0027
      4 C          -8.5416  -19.6691   19.5688 C.ar    1  UNL1        0.0283
      5 C          -7.8879  -20.9229   19.0680 C.ar    1  UNL1        0.2196
      6 F          -8.6383  -21.8468   18.1552 F       1  UNL1       -0.1835
      7 N          -6.4838  -21.2526   19.4800 N.ar    1  UNL1       -0.2035
      8 N          -4.3293  -20.6585   20.8048 N.pl3   1  UNL1       -0.3143
      9 H          -3.8302  -21.3631   20.3318 H       1  UNL1        0.1485
     10 C          -3.6856  -19.9149   21.9374 C.3     1  UNL1        0.1201
     11 C          -3.3440  -17.3630   22.2858 C.ar    1  UNL1        0.2225
     12 N          -2.5701  -16.1071   22.0146 N.ar    1  UNL1       -0.2080
     13 C          -1.3638  -16.1470   21.1239 C.ar    1  UNL1        0.1316
     14 C          -0.9316  -17.4429   20.5043 C.ar    1  UNL1        0.1592
     15 F           0.2747  -17.4827   19.6136 F       1  UNL1       -0.2025
     16 C          -1.7055  -18.6988   20.7755 C.ar    1  UNL1        0.0333
     17 C          -2.9118  -18.6589   21.6663 C.ar    1  UNL1        0.0529
     18 C          -4.8901  -16.0674   23.9231 C.3     1  UNL1        0.2542
     19 O          -4.5503  -17.3231   23.1765 O.3     1  UNL1       -0.4563
     20 C          -9.9457  -19.3393   19.1568 C.3     1  UNL1        0.0582
     21 C         -10.8322  -18.5530   20.0766 C.ar    1  UNL1        0.0044
     22 C         -11.7159  -17.4068   19.6828 C.ar    1  UNL1        0.0966
     23 N         -12.4204  -16.9203   20.9145 N.ar    1  UNL1       -0.2273
     24 C         -11.9720  -17.7659   22.0695 C.ar    1  UNL1        0.1402
     25 N         -12.3307  -17.7474   23.5259 N.ar    1  UNL1       -0.3377
     26 C         -11.7078  -18.7379   24.4643 C.ar    1  UNL1        0.0691
     27 C         -10.7262  -19.7470   23.9464 C.ar    1  UNL1       -0.0047
     28 C         -10.1033  -20.7376   24.8849 C.3     1  UNL1        0.0326
     29 C         -10.3675  -19.7655   22.4901 C.ar    1  UNL1       -0.0001
     30 C         -10.9904  -18.7750   21.5516 C.ar    1  UNL1        0.0315
     31 H         -12.9749  -17.0850   23.8658 H       1  UNL1        0.1674
@<TRIPOS>BOND
     1    18    19    1
     2    19    11    1
     3    11    12   ar
     4    12    13   ar
     5    13    14   ar
     6    14    15    1
     7    14    16   ar
     8    16    17   ar
     9    17    10    1
    10    10     8    1
    11     8     1    1
    12     1     2   ar
    13     2     3   ar
    14     3     4   ar
    15     4    20    1
    16    20    21    1
    17    21    22   ar
    18    22    23   ar
    19    23    24   ar
    20    24    25   ar
    21    25    26   ar
    22    26    27   ar
    23    27    28    1
    24    27    29   ar
    25    29    30   ar
    26     4     5   ar
    27     5     6    1
    28     5     7   ar
    29    17    11   ar
    30     7     1   ar
    31    30    21   ar
    32    30    24    1
    33     8     9    1
    34    25    31    1
@<TRIPOS>MOLECULE
*****
 31 34 0 0 0
SMALL
GASTEIGER

@<TRIPOS>ATOM
      1 C          -9.4050  -19.3126   22.0021 C.ar    1  UNL1        0.1311
      2 C          -8.4290  -19.9900   22.9179 C.ar    1  UNL1        0.0339
      3 C          -7.1218  -20.4930   22.3810 C.ar    1  UNL1        0.0027
      4 C          -6.7907  -20.3188   20.9284 C.ar    1  UNL1        0.0283
      5 C          -7.7667  -19.6414   20.0127 C.ar    1  UNL1        0.2196
      6 F          -7.4355  -19.4672   18.5601 F       1  UNL1       -0.1835
      7 N          -9.0738  -19.1384   20.5495 N.ar    1  UNL1       -0.2035
      8 N         -10.7121  -18.8095   22.5389 N.pl3   1  UNL1       -0.3143
      9 H         -11.5481  -19.2816   22.3209 H       1  UNL1        0.1485
     10 C         -10.7456  -17.5872   23.4078 C.3     1  UNL1        0.1201
     11 C          -8.9640  -16.0432   22.3161 C.ar    1  UNL1        0.2225
     12 N          -7.7459  -15.1763   22.4386 N.ar    1  UNL1       -0.2080
     13 C          -7.0916  -14.9867   23.7749 C.ar    1  UNL1        0.1316
     14 C          -7.6552  -15.6639   24.9889 C.ar    1  UNL1        0.1592
     15 F          -7.0008  -15.4743   26.3252 F       1  UNL1       -0.2025
     16 C          -8.8733  -16.5308   24.8664 C.ar    1  UNL1        0.0333
     17 C          -9.5276  -16.7204   23.5301 C.ar    1  UNL1        0.0529
     18 C         -10.9624  -15.6243   20.7097 C.3     1  UNL1        0.2542
     19 O          -9.6183  -16.2328   20.9798 O.3     1  UNL1       -0.4563
     20 C          -5.4834  -20.8219   20.3916 C.3     1  UNL1        0.0582
     21 C          -4.3209  -19.8848   20.2483 C.ar    1  UNL1        0.0044
     22 C          -3.4016  -19.7946   19.0665 C.ar    1  UNL1        0.0966
     23 N          -2.3862  -18.7274   19.3495 N.ar    1  UNL1       -0.2273
     24 C          -2.6781  -18.1580   20.7062 C.ar    1  UNL1        0.1402
     25 N          -2.0095  -17.0806   21.5075 N.ar    1  UNL1       -0.3377
     26 C          -2.5367  -16.7185   22.8643 C.ar    1  UNL1        0.0691
     27 C          -3.7324  -17.4338   23.4198 C.ar    1  UNL1       -0.0047
     28 C          -4.2596  -17.0716   24.7767 C.3     1  UNL1        0.0326
     29 C          -4.4010  -18.5112   22.6185 C.ar    1  UNL1       -0.0001
     30 C          -3.8738  -18.8733   21.2617 C.ar    1  UNL1        0.0315
     31 H          -1.2247  -16.6111   21.1430 H       1  UNL1        0.1674
@<TRIPOS>BOND
     1    18    19    1
     2    19    11    1
     3    11    12   ar
     4    12    13   ar
     5    13    14   ar
     6    14    15    1
     7    14    16   ar
     8    16    17   ar
     9    17    10    1
    10    10     8    1
    11     8     1    1
    12     1     2   ar
    13     2     3   ar
    14     3     4   ar
    15     4    20    1
    16    20    21    1
    17    21    22   ar
    18    22    23   ar
    19    23    24   ar
    20    24    25   ar
    21    25    26   ar
    22    26    27   ar
    23    27    28    1
    24    27    29   ar
    25    29    30   ar
    26     4     5   ar
    27     5     6    1
    28     5     7   ar
    29    17    11   ar
    30     7     1   ar
    31    30    21   ar
    32    30    24    1
    33     8     9    1
    34    25    31    1
@<TRIPOS>MOLECULE
*****
 31 34 0 0 0
SMALL
GASTEIGER

@<TRIPOS>ATOM
      1 C          -6.0763  -20.6892   20.1555 C.ar    1  UNL1        0.1311
      2 C          -6.6284  -19.4379   20.7715 C.ar    1  UNL1        0.0339
      3 C          -8.0036  -18.9649   20.4042 C.ar    1  UNL1        0.0027
      4 C          -8.8268  -19.7432   19.4210 C.ar    1  UNL1        0.0283
      5 C          -8.2747  -20.9945   18.8051 C.ar    1  UNL1        0.2196
      6 F          -9.0979  -21.7728   17.8219 F       1  UNL1       -0.1835
      7 N          -6.8995  -21.4675   19.1723 N.ar    1  UNL1       -0.2035
      8 N          -4.7010  -21.1623   20.5228 N.pl3   1  UNL1       -0.3143
      9 H          -4.5876  -21.9943   21.0367 H       1  UNL1        0.1485
     10 C          -3.4986  -20.3677   20.1070 C.3     1  UNL1        0.1201
     11 C          -2.1797  -18.1335   20.2440 C.ar    1  UNL1        0.2225
     12 N          -1.8079  -16.8883   20.9932 N.ar    1  UNL1       -0.2080
     13 C          -2.3833  -16.6322   22.3546 C.ar    1  UNL1        0.1316
     14 C          -3.3304  -17.6213   22.9668 C.ar    1  UNL1        0.1592
     15 F          -3.9057  -17.3651   24.3282 F       1  UNL1       -0.2025
     16 C          -3.7021  -18.8664   22.2176 C.ar    1  UNL1        0.0333
     17 C          -3.1268  -19.1225   20.8562 C.ar    1  UNL1        0.0529
     18 C          -1.9538  -17.4850   17.7383 C.3     1  UNL1        0.2542
     19 O          -1.6043  -18.3896   18.8826 O.3     1  UNL1       -0.4563
     20 C         -10.2022  -19.2701   19.0538 C.3     1  UNL1        0.0582
     21 C         -11.0009  -18.4571   20.0290 C.ar    1  UNL1        0.0044
     22 C         -11.8486  -17.2649   19.6969 C.ar    1  UNL1        0.0966
     23 N         -12.4637  -16.7645   20.9701 N.ar    1  UNL1       -0.2273
     24 C         -11.9963  -17.6474   22.0891 C.ar    1  UNL1        0.1402
     25 N         -12.2771  -17.6339   23.5625 N.ar    1  UNL1       -0.3377
     26 C         -11.6537  -18.6665   24.4542 C.ar    1  UNL1        0.0691
     27 C         -10.7496  -19.7125   23.8725 C.ar    1  UNL1       -0.0047
     28 C         -10.1263  -20.7452   24.7643 C.3     1  UNL1        0.0326
     29 C         -10.4689  -19.7260   22.3991 C.ar    1  UNL1       -0.0001
     30 C         -11.0922  -18.6934   21.5074 C.ar    1  UNL1        0.0315
     31 H         -12.8704  -16.9473   23.9443 H       1  UNL1        0.1674
@<TRIPOS>BOND
     1    18    19    1
     2    19    11    1
     3    11    12   ar
     4    12    13   ar
     5    13    14   ar
     6    14    15    1
     7    14    16   ar
     8    16    17   ar
     9    17    10    1
    10    10     8    1
    11     8     1    1
    12     1     2   ar
    13     2     3   ar
    14     3     4   ar
    15     4    20    1
    16    20    21    1
    17    21    22   ar
    18    22    23   ar
    19    23    24   ar
    20    24    25   ar
    21    25    26   ar
    22    26    27   ar
    23    27    28    1
    24    27    29   ar
    25    29    30   ar
    26     4     5   ar
    27     5     6    1
    28     5     7   ar
    29    17    11   ar
    30     7     1   ar
    31    30    21   ar
    32    30    24    1
    33     8     9    1
    34    25    31    1
@<TRIPOS>MOLECULE
*****
 31 34 0 0 0
SMALL
GASTEIGER

@<TRIPOS>ATOM
      1 C          -4.4090  -16.4918   23.7392 C.ar    1  UNL1        0.1311
      2 C          -4.8133  -15.6375   24.9040 C.ar    1  UNL1        0.0339
      3 C          -6.2663  -15.4066   25.1961 C.ar    1  UNL1        0.0027
      4 C          -7.3150  -16.0301   24.3234 C.ar    1  UNL1        0.0283
      5 C          -6.9107  -16.8843   23.1586 C.ar    1  UNL1        0.2196
      6 F          -7.9594  -17.5077   22.2859 F       1  UNL1       -0.1835
      7 N          -5.4577  -17.1152   22.8666 N.ar    1  UNL1       -0.2035
      8 N          -2.9559  -16.7226   23.4471 N.pl3   1  UNL1       -0.3143
      9 H          -2.3174  -15.9755   23.5051 H       1  UNL1        0.1485
     10 C          -2.4756  -18.0918   23.0667 C.3     1  UNL1        0.1201
     11 C          -2.2530  -18.1964   20.4803 C.ar    1  UNL1        0.2225
     12 N          -2.6561  -18.7941   19.1649 N.ar    1  UNL1       -0.2080
     13 C          -3.6850  -19.8847   19.1205 C.ar    1  UNL1        0.1316
     14 C          -4.3107  -20.3777   20.3915 C.ar    1  UNL1        0.1592
     15 F          -5.3396  -21.4683   20.3470 F       1  UNL1       -0.2025
     16 C          -3.9076  -19.7800   21.7069 C.ar    1  UNL1        0.0333
     17 C          -2.8787  -18.6894   21.7513 C.ar    1  UNL1        0.0529
     18 C           0.1934  -17.3953   20.1290 C.3     1  UNL1        0.2542
     19 O          -1.2241  -17.1058   20.5247 O.3     1  UNL1       -0.4563
     20 C          -8.7682  -15.7992   24.6155 C.3     1  UNL1        0.0582
     21 C          -9.7602  -16.9045   24.4055 C.ar    1  UNL1        0.0044
     22 C         -10.0080  -18.0552   25.3351 C.ar    1  UNL1        0.0966
     23 N         -11.0796  -18.9150   24.7330 N.ar    1  UNL1       -0.2273
     24 C         -11.4941  -18.2956   23.4313 C.ar    1  UNL1        0.1402
     25 N         -12.5087  -18.7025   22.4041 N.ar    1  UNL1       -0.3377
     26 C         -12.7078  -17.8668   21.1746 C.ar    1  UNL1        0.0691
     27 C         -11.8923  -16.6242   20.9721 C.ar    1  UNL1       -0.0047
     28 C         -12.0915  -15.7885   19.7425 C.3     1  UNL1        0.0326
     29 C         -10.8778  -16.2173   21.9992 C.ar    1  UNL1       -0.0001
     30 C         -10.6787  -17.0530   23.2288 C.ar    1  UNL1        0.0315
     31 H         -13.0439  -19.5180   22.5370 H       1  UNL1        0.1674
@<TRIPOS>BOND
     1    18    19    1
     2    19    11    1
     3    11    12   ar
     4    12    13   ar
     5    13    14   ar
     6    14    15    1
     7    14    16   ar
     8    16    17   ar
     9    17    10    1
    10    10     8    1
    11     8     1    1
    12     1     2   ar
    13     2     3   ar
    14     3     4   ar
    15     4    20    1
    16    20    21    1
    17    21    22   ar
    18    22    23   ar
    19    23    24   ar
    20    24    25   ar
    21    25    26   ar
    22    26    27   ar
    23    27    28    1
    24    27    29   ar
    25    29    30   ar
    26     4     5   ar
    27     5     6    1
    28     5     7   ar
    29    17    11   ar
    30     7     1   ar
    31    30    21   ar
    32    30    24    1
    33     8     9    1
    34    25    31    1
@<TRIPOS>MOLECULE
*****
 31 34 0 0 0
SMALL
GASTEIGER

@<TRIPOS>ATOM
      1 C          -6.0836  -16.6684   23.6162 C.ar    1  UNL1        0.1311
      2 C          -6.7289  -17.7910   22.8590 C.ar    1  UNL1        0.0339
      3 C          -8.1968  -18.0558   23.0171 C.ar    1  UNL1        0.0027
      4 C          -9.0194  -17.1982   23.9324 C.ar    1  UNL1        0.0283
      5 C          -8.3741  -16.0756   24.6896 C.ar    1  UNL1        0.2196
      6 F          -9.1967  -15.2180   25.6049 F       1  UNL1       -0.1835
      7 N          -6.9062  -15.8107   24.5315 N.ar    1  UNL1       -0.2035
      8 N          -4.6157  -16.4035   23.4582 N.pl3   1  UNL1       -0.3143
      9 H          -4.2823  -15.4774   23.4354 H       1  UNL1        0.1485
     10 C          -3.6556  -17.5494   23.3349 C.3     1  UNL1        0.1201
     11 C          -3.3233  -18.9278   21.1579 C.ar    1  UNL1        0.2225
     12 N          -2.5966  -19.1618   19.8667 N.ar    1  UNL1       -0.2080
     13 C          -1.4755  -18.2513   19.4614 C.ar    1  UNL1        0.1316
     14 C          -1.0811  -17.1069   20.3473 C.ar    1  UNL1        0.1592
     15 F           0.0400  -16.1965   19.9420 F       1  UNL1       -0.2025
     16 C          -1.8079  -16.8730   21.6385 C.ar    1  UNL1        0.0333
     17 C          -2.9290  -17.7834   22.0438 C.ar    1  UNL1        0.0529
     18 C          -5.4227  -20.3264   20.5363 C.3     1  UNL1        0.2542
     19 O          -4.4444  -19.8383   21.5631 O.3     1  UNL1       -0.4563
     20 C         -10.4874  -17.4631   24.0904 C.3     1  UNL1        0.0582
     21 C         -11.3947  -17.3939   22.8979 C.ar    1  UNL1        0.0044
     22 C         -12.6677  -18.1654   22.7126 C.ar    1  UNL1        0.0966
     23 N         -13.2479  -17.7893   21.3815 N.ar    1  UNL1       -0.2273
     24 C         -12.3336  -16.7853   20.7442 C.ar    1  UNL1        0.1402
     25 N         -12.3960  -16.0621   19.4315 N.ar    1  UNL1       -0.3377
     26 C         -11.3131  -15.0946   19.0561 C.ar    1  UNL1        0.0691
     27 C         -10.1677  -14.8502   19.9934 C.ar    1  UNL1       -0.0047
     28 C          -9.0847  -13.8826   19.6179 C.3     1  UNL1        0.0326
     29 C         -10.1053  -15.5734   21.3060 C.ar    1  UNL1       -0.0001
     30 C         -11.1882  -16.5410   21.6814 C.ar    1  UNL1        0.0315
     31 H         -13.1478  -16.2225   18.8164 H       1  UNL1        0.1674
@<TRIPOS>BOND
     1    18    19    1
     2    19    11    1
     3    11    12   ar
     4    12    13   ar
     5    13    14   ar
     6    14    15    1
     7    14    16   ar
     8    16    17   ar
     9    17    10    1
    10    10     8    1
    11     8     1    1
    12     1     2   ar
    13     2     3   ar
    14     3     4   ar
    15     4    20    1
    16    20    21    1
    17    21    22   ar
    18    22    23   ar
    19    23    24   ar
    20    24    25   ar
    21    25    26   ar
    22    26    27   ar
    23    27    28    1
    24    27    29   ar
    25    29    30   ar
    26     4     5   ar
    27     5     6    1
    28     5     7   ar
    29    17    11   ar
    30     7     1   ar
    31    30    21   ar
    32    30    24    1
    33     8     9    1
    34    25    31    1
@<TRIPOS>MOLECULE
*****
 31 34 0 0 0
SMALL
GASTEIGER

@<TRIPOS>ATOM
      1 C          -9.3522  -18.9715   21.7040 C.ar    1  UNL1        0.1311
      2 C          -8.4586  -19.6928   22.6690 C.ar    1  UNL1        0.0339
      3 C          -7.1632  -20.2819   22.1947 C.ar    1  UNL1        0.0027
      4 C          -6.7615  -20.1497   20.7556 C.ar    1  UNL1        0.0283
      5 C          -7.6552  -19.4284   19.7906 C.ar    1  UNL1        0.2196
      6 F          -7.2534  -19.2962   18.3515 F       1  UNL1       -0.1835
      7 N          -8.9505  -18.8394   20.2649 N.ar    1  UNL1       -0.2035
      8 N         -10.6477  -18.3824   22.1782 N.pl3   1  UNL1       -0.3143
      9 H         -11.4967  -18.8430   21.9879 H       1  UNL1        0.1485
     10 C         -10.6495  -17.0916   22.9424 C.3     1  UNL1        0.1201
     11 C          -9.9523  -17.9652   25.2877 C.ar    1  UNL1        0.2225
     12 N          -9.1253  -17.8288   26.5317 N.ar    1  UNL1       -0.2080
     13 C          -8.1684  -16.6825   26.6741 C.ar    1  UNL1        0.1316
     14 C          -8.0385  -15.6726   25.5727 C.ar    1  UNL1        0.1592
     15 F          -7.0815  -14.5263   25.7152 F       1  UNL1       -0.2025
     16 C          -8.8656  -15.8090   24.3288 C.ar    1  UNL1        0.0333
     17 C          -9.8225  -16.9553   24.1863 C.ar    1  UNL1        0.0529
     18 C         -10.3885  -20.5136   25.0321 C.3     1  UNL1        0.2542
     19 O         -10.9093  -19.1115   25.1453 O.3     1  UNL1       -0.4563
     20 C          -5.4660  -20.7388   20.2813 C.3     1  UNL1        0.0582
     21 C          -4.2381  -19.8813   20.1979 C.ar    1  UNL1        0.0044
     22 C          -3.1799  -19.9575   19.1375 C.ar    1  UNL1        0.0966
     23 N          -2.1407  -18.9202   19.4445 N.ar    1  UNL1       -0.2273
     24 C          -2.5567  -18.2030   20.6945 C.ar    1  UNL1        0.1402
     25 N          -1.9225  -17.0859   21.4689 N.ar    1  UNL1       -0.3377
     26 C          -2.5847  -16.5627   22.7090 C.ar    1  UNL1        0.0691
     27 C          -3.8810  -17.1566   23.1746 C.ar    1  UNL1       -0.0047
     28 C          -4.5432  -16.6333   24.4147 C.3     1  UNL1        0.0326
     29 C          -4.5151  -18.2738   22.4002 C.ar    1  UNL1       -0.0001
     30 C          -3.8530  -18.7970   21.1602 C.ar    1  UNL1        0.0315
     31 H          -1.0717  -16.6960   21.1633 H       1  UNL1        0.1674
@<TRIPOS>BOND
     1    18    19    1
     2    19    11    1
     3    11    12   ar
     4    12    13   ar
     5    13    14   ar
     6    14    15    1
     7    14    16   ar
     8    16    17   ar
     9    17    10    1
    10    10     8    1
    11     8     1    1
    12     1     2   ar
    13     2     3   ar
    14     3     4   ar
    15     4    20    1
    16    20    21    1
    17    21    22   ar
    18    22    23   ar
    19    23    24   ar
    20    24    25   ar
    21    25    26   ar
    22    26    27   ar
    23    27    28    1
    24    27    29   ar
    25    29    30   ar
    26     4     5   ar
    27     5     6    1
    28     5     7   ar
    29    17    11   ar
    30     7     1   ar
    31    30    21   ar
    32    30    24    1
    33     8     9    1
    34    25    31    1
@<TRIPOS>MOLECULE
*****
 31 34 0 0 0
SMALL
GASTEIGER

@<TRIPOS>ATOM
      1 C          -4.5572  -16.4607   23.8711 C.ar    1  UNL1        0.1311
      2 C          -4.9905  -15.7666   25.1283 C.ar    1  UNL1        0.0339
      3 C          -6.4496  -15.5517   25.4015 C.ar    1  UNL1        0.0027
      4 C          -7.4755  -16.0308   24.4176 C.ar    1  UNL1        0.0283
      5 C          -7.0422  -16.7249   23.1604 C.ar    1  UNL1        0.2196
      6 F          -8.0681  -17.2041   22.1766 F       1  UNL1       -0.1835
      7 N          -5.5831  -16.9398   22.8872 N.ar    1  UNL1       -0.2035
      8 N          -3.0981  -16.6756   23.5978 N.pl3   1  UNL1       -0.3143
      9 H          -2.4623  -15.9317   23.7055 H       1  UNL1        0.1485
     10 C          -2.6076  -18.0240   23.1604 C.3     1  UNL1        0.1201
     11 C          -3.8020  -19.3874   21.2990 C.ar    1  UNL1        0.2225
     12 N          -3.9183  -19.7975   19.8609 N.ar    1  UNL1       -0.2080
     13 C          -2.9565  -19.2543   18.8460 C.ar    1  UNL1        0.1316
     14 C          -1.8785  -18.3010   19.2692 C.ar    1  UNL1        0.1592
     15 F          -0.9168  -17.7579   18.2542 F       1  UNL1       -0.2025
     16 C          -1.7622  -17.8910   20.7073 C.ar    1  UNL1        0.0333
     17 C          -2.7239  -18.4342   21.7223 C.ar    1  UNL1        0.0529
     18 C          -6.1635  -20.2838   21.9070 C.3     1  UNL1        0.2542
     19 O          -4.7637  -19.9306   22.3139 O.3     1  UNL1       -0.4563
     20 C          -8.9347  -15.8158   24.6909 C.3     1  UNL1        0.0582
     21 C          -9.9158  -16.9224   24.4397 C.ar    1  UNL1        0.0044
     22 C         -10.1742  -18.0931   25.3411 C.ar    1  UNL1        0.0966
     23 N         -11.2288  -18.9467   24.7014 N.ar    1  UNL1       -0.2273
     24 C         -11.6221  -18.3035   23.4046 C.ar    1  UNL1        0.1402
     25 N         -12.6144  -18.6954   22.3502 N.ar    1  UNL1       -0.3377
     26 C         -12.7952  -17.8362   21.1341 C.ar    1  UNL1        0.0691
     27 C         -11.9837  -16.5851   20.9724 C.ar    1  UNL1       -0.0047
     28 C         -12.1645  -15.7259   19.7562 C.3     1  UNL1        0.0326
     29 C         -10.9914  -16.1932   22.0268 C.ar    1  UNL1       -0.0001
     30 C         -10.8106  -17.0524   23.2429 C.ar    1  UNL1        0.0315
     31 H         -13.1470  -19.5166   22.4564 H       1  UNL1        0.1674
@<TRIPOS>BOND
     1    18    19    1
     2    19    11    1
     3    11    12   ar
     4    12    13   ar
     5    13    14   ar
     6    14    15    1
     7    14    16   ar
     8    16    17   ar
     9    17    10    1
    10    10     8    1
    11     8     1    1
    12     1     2   ar
    13     2     3   ar
    14     3     4   ar
    15     4    20    1
    16    20    21    1
    17    21    22   ar
    18    22    23   ar
    19    23    24   ar
    20    24    25   ar
    21    25    26   ar
    22    26    27   ar
    23    27    28    1
    24    27    29   ar
    25    29    30   ar
    26     4     5   ar
    27     5     6    1
    28     5     7   ar
    29    17    11   ar
    30     7     1   ar
    31    30    21   ar
    32    30    24    1
    33     8     9    1
    34    25    31    1
@<TRIPOS>MOLECULE
*****
 31 34 0 0 0
SMALL
GASTEIGER

@<TRIPOS>ATOM
      1 C          -5.8792  -16.6840   23.5582 C.ar    1  UNL1        0.1311
      2 C          -6.6081  -17.7118   22.7443 C.ar    1  UNL1        0.0339
      3 C          -8.0795  -17.9220   22.9454 C.ar    1  UNL1        0.0027
      4 C          -8.8222  -17.1046   23.9603 C.ar    1  UNL1        0.0283
      5 C          -8.0934  -16.0767   24.7743 C.ar    1  UNL1        0.2196
      6 F          -8.8360  -15.2593   25.7892 F       1  UNL1       -0.1835
      7 N          -6.6219  -15.8665   24.5731 N.ar    1  UNL1       -0.2035
      8 N          -4.4077  -16.4737   23.3571 N.pl3   1  UNL1       -0.3143
      9 H          -4.0393  -15.5609   23.3360 H       1  UNL1        0.1485
     10 C          -3.4975  -17.6539   23.1883 C.3     1  UNL1        0.1201
     11 C          -2.5530  -18.0686   20.8038 C.ar    1  UNL1        0.2225
     12 N          -2.5612  -18.8445   19.5201 N.ar    1  UNL1       -0.2080
     13 C          -3.5222  -19.9817   19.3373 C.ar    1  UNL1        0.1316
     14 C          -4.4749  -20.3430   20.4382 C.ar    1  UNL1        0.1592
     15 F          -5.4358  -21.4802   20.2553 F       1  UNL1       -0.2025
     16 C          -4.4666  -19.5670   21.7218 C.ar    1  UNL1        0.0333
     17 C          -3.5057  -18.4298   21.9046 C.ar    1  UNL1        0.0529
     18 C          -0.3449  -16.8624   20.1561 C.3     1  UNL1        0.2542
     19 O          -1.5920  -16.9314   20.9866 O.3     1  UNL1       -0.4563
     20 C         -10.2938  -17.3149   24.1614 C.3     1  UNL1        0.0582
     21 C         -11.2164  -17.3393   22.9789 C.ar    1  UNL1        0.0044
     22 C         -12.4443  -18.1889   22.8360 C.ar    1  UNL1        0.0966
     23 N         -13.0598  -17.8930   21.5006 N.ar    1  UNL1       -0.2273
     24 C         -12.2123  -16.8605   20.8181 C.ar    1  UNL1        0.1402
     25 N         -12.3309  -16.1877   19.4827 N.ar    1  UNL1       -0.3377
     26 C         -11.3101  -15.1728   19.0610 C.ar    1  UNL1        0.0691
     27 C         -10.1708  -14.8305   19.9747 C.ar    1  UNL1       -0.0047
     28 C          -9.1501  -13.8155   19.5530 C.3     1  UNL1        0.0326
     29 C         -10.0523  -15.5033   21.3101 C.ar    1  UNL1       -0.0001
     30 C         -11.0730  -16.5183   21.7318 C.ar    1  UNL1        0.0315
     31 H         -13.0786  -16.4124   18.8830 H       1  UNL1        0.1674
@<TRIPOS>BOND
     1    18    19    1
     2    19    11    1
     3    11    12   ar
     4    12    13   ar
     5    13    14   ar
     6    14    15    1
     7    14    16   ar
     8    16    17   ar
     9    17    10    1
    10    10     8    1
    11     8     1    1
    12     1     2   ar
    13     2     3   ar
    14     3     4   ar
    15     4    20    1
    16    20    21    1
    17    21    22   ar
    18    22    23   ar
    19    23    24   ar
    20    24    25   ar
    21    25    26   ar
    22    26    27   ar
    23    27    28    1
    24    27    29   ar
    25    29    30   ar
    26     4     5   ar
    27     5     6    1
    28     5     7   ar
    29    17    11   ar
    30     7     1   ar
    31    30    21   ar
    32    30    24    1
    33     8     9    1
    34    25    31    1
@<TRIPOS>MOLECULE
*****
 31 34 0 0 0
SMALL
GASTEIGER

@<TRIPOS>ATOM
      1 C          -4.6069  -17.2845   23.5252 C.ar    1  UNL1        0.1311
      2 C          -4.8857  -16.0170   24.2773 C.ar    1  UNL1        0.0339
      3 C          -6.2711  -15.4422   24.2907 C.ar    1  UNL1        0.0027
      4 C          -7.3777  -16.1348   23.5519 C.ar    1  UNL1        0.0283
      5 C          -7.0989  -17.4023   22.7998 C.ar    1  UNL1        0.2196
      6 F          -8.2055  -18.0948   22.0610 F       1  UNL1       -0.1835
      7 N          -5.7135  -17.9771   22.7864 N.ar    1  UNL1       -0.2035
      8 N          -3.2216  -17.8594   23.5117 N.pl3   1  UNL1       -0.3143
      9 H          -2.5519  -17.5452   24.1614 H       1  UNL1        0.1485
     10 C          -2.8564  -18.9132   22.5085 C.3     1  UNL1        0.1201
     11 C          -3.0148  -18.7217   19.9224 C.ar    1  UNL1        0.2225
     12 N          -2.4060  -18.3282   18.6092 N.ar    1  UNL1       -0.2080
     13 C          -1.0299  -17.7325   18.5691 C.ar    1  UNL1        0.1316
     14 C          -0.2627  -17.5305   19.8421 C.ar    1  UNL1        0.1592
     15 F           1.1135  -16.9348   19.8018 F       1  UNL1       -0.2025
     16 C          -0.8715  -17.9240   21.1552 C.ar    1  UNL1        0.0333
     17 C          -2.2476  -18.5197   21.1954 C.ar    1  UNL1        0.0529
     18 C          -4.5622  -20.8022   20.0879 C.3     1  UNL1        0.2542
     19 O          -4.3909  -19.3174   19.9625 O.3     1  UNL1       -0.4563
     20 C          -8.7631  -15.5598   23.5654 C.3     1  UNL1        0.0582
     21 C          -9.6746  -15.7722   22.3931 C.ar    1  UNL1        0.0044
     22 C          -9.4225  -15.3167   20.9864 C.ar    1  UNL1        0.0966
     23 N         -10.5904  -15.7404   20.1458 N.ar    1  UNL1       -0.2273
     24 C         -11.5643  -16.4576   21.0330 C.ar    1  UNL1        0.1402
     25 N         -12.8933  -17.0953   20.7555 N.ar    1  UNL1       -0.3377
     26 C         -13.6563  -17.7527   21.8671 C.ar    1  UNL1        0.0691
     27 C         -13.0903  -17.7724   23.2561 C.ar    1  UNL1       -0.0047
     28 C         -13.8534  -18.4298   24.3677 C.3     1  UNL1        0.0326
     29 C         -11.7613  -17.1347   23.5335 C.ar    1  UNL1       -0.0001
     30 C         -10.9983  -16.4773   22.4220 C.ar    1  UNL1        0.0315
     31 H         -13.2647  -17.0824   19.8439 H       1  UNL1        0.1674
@<TRIPOS>BOND
     1    18    19    1
     2    19    11    1
     3    11    12   ar
     4    12    13   ar
     5    13    14   ar
     6    14    15    1
     7    14    16   ar
     8    16    17   ar
     9    17    10    1
    10    10     8    1
    11     8     1    1
    12     1     2   ar
    13     2     3   ar
    14     3     4   ar
    15     4    20    1
    16    20    21    1
    17    21    22   ar
    18    22    23   ar
    19    23    24   ar
    20    24    25   ar
    21    25    26   ar
    22    26    27   ar
    23    27    28    1
    24    27    29   ar
    25    29    30   ar
    26     4     5   ar
    27     5     6    1
    28     5     7   ar
    29    17    11   ar
    30     7     1   ar
    31    30    21   ar
    32    30    24    1
    33     8     9    1
    34    25    31    1
