@<TRIPOS>MOLECULE
*****
 29 32 0 0 0
SMALL
GASTEIGER

@<TRIPOS>ATOM
      1 C          -7.6789  -17.9764   21.5923 C.ar    1  UNL1        0.0813
      2 C          -7.8154  -17.1783   22.8550 C.ar    1  UNL1        0.0365
      3 C          -6.6295  -16.9872   23.7533 C.ar    1  UNL1        0.0857
      4 C          -5.3071  -17.5943   23.3891 C.ar    1  UNL1        0.0989
      5 N          -5.1706  -18.3925   22.1264 N.ar    1  UNL1       -0.2906
      6 C          -4.0031  -19.1050   21.5107 C.ar    1  UNL1        0.0567
      7 C          -2.6150  -19.1740   22.0749 C.3     1  UNL1        0.0517
      8 C          -4.4674  -19.7365   20.2317 C.ar    1  UNL1        0.0730
      9 C          -3.6251  -20.5478   19.2924 C.3     1  UNL1        0.0534
     10 N          -5.9219  -19.4142   20.0570 N.ar    1  UNL1       -0.2299
     11 C          -6.3565  -18.5835   21.2281 C.ar    1  UNL1        0.1604
     12 N          -6.7660  -16.1891   25.0161 N.ar    1  UNL1       -0.2716
     13 C          -5.6032  -15.3923   25.5290 C.ar    1  UNL1        0.0830
     14 C          -5.7396  -14.5942   26.7917 C.ar    1  UNL1        0.0192
     15 C          -7.0389  -14.5928   27.5414 C.ar    1  UNL1        0.0064
     16 C          -8.2016  -15.3895   27.0285 C.ar    1  UNL1        0.0611
     17 C          -8.0652  -16.1877   25.7657 C.ar    1  UNL1        0.2649
     18 O          -9.2279  -16.9844   25.2528 O.2     1  UNL1       -0.2666
     19 N          -8.8648  -18.1674   20.6939 N.pl3   1  UNL1       -0.3267
     20 H          -8.9525  -17.6302   19.8735 H       1  UNL1        0.1472
     21 C          -9.9171  -19.1770   21.0454 C.3     1  UNL1        0.1137
     22 C         -12.2231  -17.3193   20.5646 C.3     1  UNL1        0.0307
     23 C         -12.0453  -17.9620   21.9082 C.ar    1  UNL1       -0.0245
     24 C         -13.0205  -17.6758   23.0115 C.ar    1  UNL1       -0.0045
     25 C         -12.8426  -18.3185   24.3551 C.ar    1  UNL1       -0.0007
     26 C         -11.6896  -19.2474   24.5954 C.ar    1  UNL1       -0.0045
     27 C         -10.7144  -19.5336   23.4922 C.ar    1  UNL1       -0.0245
     28 C          -9.5614  -20.4624   23.7326 C.3     1  UNL1        0.0307
     29 C         -10.8923  -18.8908   22.1486 C.ar    1  UNL1       -0.0105
@<TRIPOS>BOND
     1    22    23    1
     2    23    24   ar
     3    24    25   ar
     4    25    26   ar
     5    26    27   ar
     6    27    28    1
     7    27    29   ar
     8    29    21    1
     9    21    19    1
    10    19     1    1
    11     1     2   ar
    12     2     3   ar
    13     3    12    1
    14    12    13   ar
    15    13    14   ar
    16    14    15   ar
    17    15    16   ar
    18    16    17   ar
    19    17    18    2
    20     3     4   ar
    21     4     5   ar
    22     5     6   ar
    23     6     7    1
    24     6     8   ar
    25     8     9    1
    26     8    10   ar
    27    10    11   ar
    28    29    23   ar
    29    11     1   ar
    30    17    12   ar
    31    11     5   ar
    32    19    20    1
@<TRIPOS>MOLECULE
*****
 29 32 0 0 0
SMALL
GASTEIGER

@<TRIPOS>ATOM
      1 C          -7.6781  -17.9774   21.5977 C.ar    1  UNL1        0.0813
      2 C          -7.8114  -17.1777   22.8598 C.ar    1  UNL1        0.0365
      3 C          -6.6233  -16.9860   23.7551 C.ar    1  UNL1        0.0857
      4 C          -5.3020  -17.5940   23.3884 C.ar    1  UNL1        0.0989
      5 N          -5.1687  -18.3936   22.1264 N.ar    1  UNL1       -0.2906
      6 C          -4.0029  -19.1073   21.5087 C.ar    1  UNL1        0.0567
      7 C          -2.6135  -19.1761   22.0697 C.3     1  UNL1        0.0517
      8 C          -4.4705  -19.7401   20.2316 C.ar    1  UNL1        0.0730
      9 C          -3.6306  -20.5528   19.2913 C.3     1  UNL1        0.0534
     10 N          -5.9253  -19.4175   20.0600 N.ar    1  UNL1       -0.2299
     11 C          -6.3568  -18.5853   21.2311 C.ar    1  UNL1        0.1604
     12 N          -6.7566  -16.1863   25.0172 N.ar    1  UNL1       -0.2716
     13 C          -5.5942  -15.3847   25.5233 C.ar    1  UNL1        0.0830
     14 C          -5.7273  -14.5850   26.7854 C.ar    1  UNL1        0.0192
     15 C          -7.0230  -14.5870   27.5414 C.ar    1  UNL1        0.0064
     16 C          -8.1854  -15.3887   27.0352 C.ar    1  UNL1        0.0611
     17 C          -8.0521  -16.1884   25.7731 C.ar    1  UNL1        0.2649
     18 O          -9.2145  -16.9900   25.2670 O.2     1  UNL1       -0.2666
     19 N          -8.8662  -18.1691   20.7023 N.pl3   1  UNL1       -0.3267
     20 H          -8.9572  -17.6307   19.8831 H       1  UNL1        0.1472
     21 C          -9.9157  -19.1811   21.0551 C.3     1  UNL1        0.1137
     22 C          -9.5737  -20.4599   23.7473 C.3     1  UNL1        0.0307
     23 C         -10.7258  -19.5322   23.4985 C.ar    1  UNL1       -0.0245
     24 C         -11.7071  -19.2439   24.5959 C.ar    1  UNL1       -0.0045
     25 C         -12.8592  -18.3163   24.3471 C.ar    1  UNL1       -0.0007
     26 C         -13.0302  -17.6769   23.0010 C.ar    1  UNL1       -0.0045
     27 C         -12.0491  -17.9652   21.9037 C.ar    1  UNL1       -0.0245
     28 C         -12.2201  -17.3258   20.5576 C.3     1  UNL1        0.0307
     29 C         -10.8968  -18.8929   22.1524 C.ar    1  UNL1       -0.0105
@<TRIPOS>BOND
     1    22    23    1
     2    23    24   ar
     3    24    25   ar
     4    25    26   ar
     5    26    27   ar
     6    27    28    1
     7    27    29   ar
     8    29    21    1
     9    21    19    1
    10    19     1    1
    11     1     2   ar
    12     2     3   ar
    13     3    12    1
    14    12    13   ar
    15    13    14   ar
    16    14    15   ar
    17    15    16   ar
    18    16    17   ar
    19    17    18    2
    20     3     4   ar
    21     4     5   ar
    22     5     6   ar
    23     6     7    1
    24     6     8   ar
    25     8     9    1
    26     8    10   ar
    27    10    11   ar
    28    29    23   ar
    29    11     1   ar
    30    17    12   ar
    31    11     5   ar
    32    19    20    1
@<TRIPOS>MOLECULE
*****
 29 32 0 0 0
SMALL
GASTEIGER

@<TRIPOS>ATOM
      1 C          -7.3278  -17.7990   22.1043 C.ar    1  UNL1        0.0813
      2 C          -6.0030  -18.1645   21.5031 C.ar    1  UNL1        0.0365
      3 C          -4.7314  -17.7525   22.1836 C.ar    1  UNL1        0.0857
      4 C          -4.7845  -16.9749   23.4652 C.ar    1  UNL1        0.0989
      5 N          -6.1092  -16.6095   24.0664 N.ar    1  UNL1       -0.2906
      6 C          -6.4728  -15.8545   25.3105 C.ar    1  UNL1        0.0567
      7 C          -5.5092  -15.2588   26.2936 C.3     1  UNL1        0.0517
      8 C          -7.9693  -15.8000   25.3990 C.ar    1  UNL1        0.0730
      9 C          -8.7648  -15.1401   26.4861 C.3     1  UNL1        0.0534
     10 N          -8.5305  -16.5212   24.2095 N.ar    1  UNL1       -0.2299
     11 C          -7.3809  -17.0215   23.3859 C.ar    1  UNL1        0.1604
     12 N          -3.4066  -18.1179   21.5824 N.ar    1  UNL1       -0.2716
     13 C          -3.1079  -19.5470   21.2380 C.ar    1  UNL1        0.0830
     14 C          -1.7832  -19.9125   20.6369 C.ar    1  UNL1        0.0192
     15 C          -0.7570  -18.8489   20.3801 C.ar    1  UNL1        0.0064
     16 C          -1.0557  -17.4198   20.7244 C.ar    1  UNL1        0.0611
     17 C          -2.3805  -17.0544   21.3256 C.ar    1  UNL1        0.2649
     18 O          -2.6792  -15.6253   21.6700 O.2     1  UNL1       -0.2666
     19 N          -8.5995  -18.2111   21.4238 N.pl3   1  UNL1       -0.3267
     20 H          -8.8439  -17.8156   20.5560 H       1  UNL1        0.1472
     21 C          -9.4988  -19.2257   22.0656 C.3     1  UNL1        0.1137
     22 C         -11.5012  -17.9100   20.2602 C.3     1  UNL1        0.0307
     23 C         -11.8362  -18.1512   21.7022 C.ar    1  UNL1       -0.0245
     24 C         -13.1724  -17.7345   22.2417 C.ar    1  UNL1       -0.0045
     25 C         -13.5074  -17.9756   23.6837 C.ar    1  UNL1       -0.0007
     26 C         -12.5062  -18.6334   24.5864 C.ar    1  UNL1       -0.0045
     27 C         -11.1700  -19.0501   24.0471 C.ar    1  UNL1       -0.0245
     28 C         -10.1689  -19.7079   24.9498 C.3     1  UNL1        0.0307
     29 C         -10.8350  -18.8090   22.6050 C.ar    1  UNL1       -0.0105
@<TRIPOS>BOND
     1    22    23    1
     2    23    24   ar
     3    24    25   ar
     4    25    26   ar
     5    26    27   ar
     6    27    28    1
     7    27    29   ar
     8    29    21    1
     9    21    19    1
    10    19     1    1
    11     1     2   ar
    12     2     3   ar
    13     3    12    1
    14    12    13   ar
    15    13    14   ar
    16    14    15   ar
    17    15    16   ar
    18    16    17   ar
    19    17    18    2
    20     3     4   ar
    21     4     5   ar
    22     5     6   ar
    23     6     7    1
    24     6     8   ar
    25     8     9    1
    26     8    10   ar
    27    10    11   ar
    28    29    23   ar
    29    11     1   ar
    30    17    12   ar
    31    11     5   ar
    32    19    20    1
@<TRIPOS>MOLECULE
*****
 29 32 0 0 0
SMALL
GASTEIGER

@<TRIPOS>ATOM
      1 C          -5.9787  -16.3723   23.6943 C.ar    1  UNL1        0.0813
      2 C          -6.9930  -17.1222   22.8826 C.ar    1  UNL1        0.0365
      3 C          -8.4066  -17.2383   23.3705 C.ar    1  UNL1        0.0857
      4 C          -8.8060  -16.6044   24.6700 C.ar    1  UNL1        0.0989
      5 N          -7.7918  -15.8544   25.4816 N.ar    1  UNL1       -0.2906
      6 C          -7.8909  -15.1304   26.7915 C.ar    1  UNL1        0.0567
      7 C          -9.1257  -14.9939   27.6321 C.3     1  UNL1        0.0517
      8 C          -6.5385  -14.5668   27.1133 C.ar    1  UNL1        0.0730
      9 C          -6.1835  -13.7678   28.3321 C.3     1  UNL1        0.0534
     10 N          -5.6035  -14.9426   26.0022 N.ar    1  UNL1       -0.2299
     11 C          -6.3781  -15.7384   24.9937 C.ar    1  UNL1        0.1604
     12 N          -9.4210  -17.9883   22.5589 N.ar    1  UNL1       -0.2716
     13 C          -9.7700  -19.4027   22.9161 C.ar    1  UNL1        0.0830
     14 C         -10.7843  -20.1527   22.1045 C.ar    1  UNL1        0.0192
     15 C         -11.4497  -19.4883   20.9358 C.ar    1  UNL1        0.0064
     16 C         -11.1006  -18.0739   20.5786 C.ar    1  UNL1        0.0611
     17 C         -10.0863  -17.3239   21.3902 C.ar    1  UNL1        0.2649
     18 O          -9.7372  -15.9095   21.0330 O.2     1  UNL1       -0.2666
     19 N          -4.5650  -16.2562   23.2064 N.pl3   1  UNL1       -0.3267
     20 H          -4.2023  -15.3767   22.9530 H       1  UNL1        0.1472
     21 C          -3.7038  -17.4802   23.1046 C.3     1  UNL1        0.1137
     22 C          -1.5742  -16.2548   21.3833 C.3     1  UNL1        0.0307
     23 C          -2.3296  -17.4572   20.8999 C.ar    1  UNL1       -0.0245
     24 C          -2.0202  -18.0469   19.5558 C.ar    1  UNL1       -0.0045
     25 C          -2.7756  -19.2492   19.0724 C.ar    1  UNL1       -0.0007
     26 C          -3.8404  -19.8619   19.9331 C.ar    1  UNL1       -0.0045
     27 C          -4.1498  -19.2722   21.2771 C.ar    1  UNL1       -0.0245
     28 C          -5.2147  -19.8849   22.1378 C.3     1  UNL1        0.0307
     29 C          -3.3944  -18.0698   21.7606 C.ar    1  UNL1       -0.0105
@<TRIPOS>BOND
     1    22    23    1
     2    23    24   ar
     3    24    25   ar
     4    25    26   ar
     5    26    27   ar
     6    27    28    1
     7    27    29   ar
     8    29    21    1
     9    21    19    1
    10    19     1    1
    11     1     2   ar
    12     2     3   ar
    13     3    12    1
    14    12    13   ar
    15    13    14   ar
    16    14    15   ar
    17    15    16   ar
    18    16    17   ar
    19    17    18    2
    20     3     4   ar
    21     4     5   ar
    22     5     6   ar
    23     6     7    1
    24     6     8   ar
    25     8     9    1
    26     8    10   ar
    27    10    11   ar
    28    29    23   ar
    29    11     1   ar
    30    17    12   ar
    31    11     5   ar
    32    19    20    1
@<TRIPOS>MOLECULE
*****
 29 32 0 0 0
SMALL
GASTEIGER

@<TRIPOS>ATOM
      1 C          -5.9707  -16.3741   23.6964 C.ar    1  UNL1        0.0813
      2 C          -6.9852  -17.1257   22.8866 C.ar    1  UNL1        0.0365
      3 C          -8.3988  -17.2404   23.3750 C.ar    1  UNL1        0.0857
      4 C          -8.7979  -16.6034   24.6730 C.ar    1  UNL1        0.0989
      5 N          -7.7834  -15.8518   25.4828 N.ar    1  UNL1       -0.2906
      6 C          -7.8822  -15.1247   26.7911 C.ar    1  UNL1        0.0567
      7 C          -9.1169  -14.9861   27.6315 C.3     1  UNL1        0.0517
      8 C          -6.5297  -14.5607   27.1113 C.ar    1  UNL1        0.0730
      9 C          -6.1744  -13.7589   28.3283 C.3     1  UNL1        0.0534
     10 N          -5.5949  -14.9391   26.0010 N.ar    1  UNL1       -0.2299
     11 C          -6.3698  -15.7371   24.9944 C.ar    1  UNL1        0.1604
     12 N          -9.4134  -17.9920   22.5652 N.ar    1  UNL1       -0.2716
     13 C          -9.7628  -19.4055   22.9258 C.ar    1  UNL1        0.0830
     14 C         -10.7774  -20.1572   22.1161 C.ar    1  UNL1        0.0192
     15 C         -11.4426  -19.4954   20.9458 C.ar    1  UNL1        0.0064
     16 C         -11.0932  -18.0819   20.5852 C.ar    1  UNL1        0.0611
     17 C         -10.0786  -17.3302   21.3949 C.ar    1  UNL1        0.2649
     18 O          -9.7291  -15.9168   21.0344 O.2     1  UNL1       -0.2666
     19 N          -4.5570  -16.2593   23.2081 N.pl3   1  UNL1       -0.3267
     20 H          -4.1928  -15.3799   22.9568 H       1  UNL1        0.1472
     21 C          -3.6982  -17.4847   23.1026 C.3     1  UNL1        0.1137
     22 C          -5.1877  -19.8963   22.1201 C.3     1  UNL1        0.0307
     23 C          -4.1261  -19.2706   21.2649 C.ar    1  UNL1       -0.0245
     24 C          -3.8092  -19.8508   19.9183 C.ar    1  UNL1       -0.0045
     25 C          -2.7476  -19.2251   19.0631 C.ar    1  UNL1       -0.0007
     26 C          -2.0028  -18.0193   19.5544 C.ar    1  UNL1       -0.0045
     27 C          -2.3197  -17.4391   20.9008 C.ar    1  UNL1       -0.0245
     28 C          -1.5749  -16.2333   21.3921 C.3     1  UNL1        0.0307
     29 C          -3.3813  -18.0648   21.7561 C.ar    1  UNL1       -0.0105
@<TRIPOS>BOND
     1    22    23    1
     2    23    24   ar
     3    24    25   ar
     4    25    26   ar
     5    26    27   ar
     6    27    28    1
     7    27    29   ar
     8    29    21    1
     9    21    19    1
    10    19     1    1
    11     1     2   ar
    12     2     3   ar
    13     3    12    1
    14    12    13   ar
    15    13    14   ar
    16    14    15   ar
    17    15    16   ar
    18    16    17   ar
    19    17    18    2
    20     3     4   ar
    21     4     5   ar
    22     5     6   ar
    23     6     7    1
    24     6     8   ar
    25     8     9    1
    26     8    10   ar
    27    10    11   ar
    28    29    23   ar
    29    11     1   ar
    30    17    12   ar
    31    11     5   ar
    32    19    20    1
@<TRIPOS>MOLECULE
*****
 29 32 0 0 0
SMALL
GASTEIGER

@<TRIPOS>ATOM
      1 C          -7.0511  -18.4744   21.8649 C.ar    1  UNL1        0.0813
      2 C          -6.7992  -17.7606   23.1598 C.ar    1  UNL1        0.0365
      3 C          -7.9115  -17.0121   23.8324 C.ar    1  UNL1        0.0857
      4 C          -9.2759  -16.9774   23.2100 C.ar    1  UNL1        0.0989
      5 N          -9.5279  -17.6913   21.9151 N.ar    1  UNL1       -0.2906
      6 C         -10.7591  -17.8329   21.0701 C.ar    1  UNL1        0.0567
      7 C         -12.1054  -17.2422   21.3677 C.3     1  UNL1        0.0517
      8 C         -10.4077  -18.6690   19.8753 C.ar    1  UNL1        0.0730
      9 C         -11.3409  -19.0611   18.7683 C.3     1  UNL1        0.0534
     10 N          -8.9592  -19.0440   19.9818 N.ar    1  UNL1       -0.2299
     11 C          -8.4155  -18.4397   21.2425 C.ar    1  UNL1        0.1604
     12 N          -7.6596  -16.2982   25.1274 N.ar    1  UNL1       -0.2716
     13 C          -8.5087  -16.5986   26.3269 C.ar    1  UNL1        0.0830
     14 C          -8.2568  -15.8847   27.6218 C.ar    1  UNL1        0.0192
     15 C          -7.1557  -14.8705   27.7173 C.ar    1  UNL1        0.0064
     16 C          -6.3066  -14.5701   26.5178 C.ar    1  UNL1        0.0611
     17 C          -6.5586  -15.2840   25.2228 C.ar    1  UNL1        0.2649
     18 O          -5.7095  -14.9836   24.0233 O.2     1  UNL1       -0.2666
     19 N          -5.9388  -19.2229   21.1923 N.pl3   1  UNL1       -0.3267
     20 H          -6.0895  -19.6462   20.3163 H       1  UNL1        0.1472
     21 C          -4.5968  -19.3266   21.8544 C.3     1  UNL1        0.1137
     22 C          -3.3927  -17.0149   23.3399 C.3     1  UNL1        0.0307
     23 C          -2.8166  -17.4417   22.0224 C.ar    1  UNL1       -0.0245
     24 C          -1.6383  -16.7127   21.4476 C.ar    1  UNL1       -0.0045
     25 C          -1.0622  -17.1395   20.1301 C.ar    1  UNL1       -0.0007
     26 C          -1.6642  -18.2953   19.3873 C.ar    1  UNL1       -0.0045
     27 C          -2.8424  -19.0243   19.9621 C.ar    1  UNL1       -0.0245
     28 C          -3.4444  -20.1801   19.2193 C.3     1  UNL1        0.0307
     29 C          -3.4186  -18.5975   21.2796 C.ar    1  UNL1       -0.0105
@<TRIPOS>BOND
     1    22    23    1
     2    23    24   ar
     3    24    25   ar
     4    25    26   ar
     5    26    27   ar
     6    27    28    1
     7    27    29   ar
     8    29    21    1
     9    21    19    1
    10    19     1    1
    11     1     2   ar
    12     2     3   ar
    13     3    12    1
    14    12    13   ar
    15    13    14   ar
    16    14    15   ar
    17    15    16   ar
    18    16    17   ar
    19    17    18    2
    20     3     4   ar
    21     4     5   ar
    22     5     6   ar
    23     6     7    1
    24     6     8   ar
    25     8     9    1
    26     8    10   ar
    27    10    11   ar
    28    29    23   ar
    29    11     1   ar
    30    17    12   ar
    31    11     5   ar
    32    19    20    1
@<TRIPOS>MOLECULE
*****
 29 32 0 0 0
SMALL
GASTEIGER

@<TRIPOS>ATOM
      1 C          -7.0306  -18.4456   21.8680 C.ar    1  UNL1        0.0813
      2 C          -6.7749  -17.7279   23.1600 C.ar    1  UNL1        0.0365
      3 C          -7.8901  -16.9936   23.8434 C.ar    1  UNL1        0.0857
      4 C          -9.2609  -16.9769   23.2348 C.ar    1  UNL1        0.0989
      5 N          -9.5166  -17.6947   21.9427 N.ar    1  UNL1       -0.2906
      6 C         -10.7544  -17.8527   21.1102 C.ar    1  UNL1        0.0567
      7 C         -12.1051  -17.2794   21.4211 C.3     1  UNL1        0.0517
      8 C         -10.4041  -18.6848   19.9123 C.ar    1  UNL1        0.0730
      9 C         -11.3433  -19.0896   18.8149 C.3     1  UNL1        0.0534
     10 N          -8.9500  -19.0410   20.0044 N.ar    1  UNL1       -0.2299
     11 C          -8.4015  -18.4290   21.2593 C.ar    1  UNL1        0.1604
     12 N          -7.6344  -16.2758   25.1355 N.ar    1  UNL1       -0.2716
     13 C          -8.4815  -16.5709   26.3377 C.ar    1  UNL1        0.0830
     14 C          -8.2259  -15.8532   27.6298 C.ar    1  UNL1        0.0192
     15 C          -7.1231  -14.8403   27.7197 C.ar    1  UNL1        0.0064
     16 C          -6.2760  -14.5451   26.5175 C.ar    1  UNL1        0.0611
     17 C          -6.5317  -15.2629   25.2254 C.ar    1  UNL1        0.2649
     18 O          -5.6846  -14.9678   24.0232 O.2     1  UNL1       -0.2666
     19 N          -5.9154  -19.1800   21.1845 N.pl3   1  UNL1       -0.3267
     20 H          -6.0617  -19.5828   20.2981 H       1  UNL1        0.1472
     21 C          -4.5773  -19.3008   21.8515 C.3     1  UNL1        0.1137
     22 C          -3.4363  -20.1819   19.2206 C.3     1  UNL1        0.0307
     23 C          -2.8155  -19.0345   19.9608 C.ar    1  UNL1       -0.0245
     24 C          -1.6241  -18.3275   19.3855 C.ar    1  UNL1       -0.0045
     25 C          -1.0033  -17.1801   20.1257 C.ar    1  UNL1       -0.0007
     26 C          -1.5738  -16.7395   21.4412 C.ar    1  UNL1       -0.0045
     27 C          -2.7651  -17.4464   22.0164 C.ar    1  UNL1       -0.0245
     28 C          -3.3356  -17.0058   23.3319 C.3     1  UNL1        0.0307
     29 C          -3.3860  -18.5939   21.2762 C.ar    1  UNL1       -0.0105
@<TRIPOS>BOND
     1    22    23    1
     2    23    24   ar
     3    24    25   ar
     4    25    26   ar
     5    26    27   ar
     6    27    28    1
     7    27    29   ar
     8    29    21    1
     9    21    19    1
    10    19     1    1
    11     1     2   ar
    12     2     3   ar
    13     3    12    1
    14    12    13   ar
    15    13    14   ar
    16    14    15   ar
    17    15    16   ar
    18    16    17   ar
    19    17    18    2
    20     3     4   ar
    21     4     5   ar
    22     5     6   ar
    23     6     7    1
    24     6     8   ar
    25     8     9    1
    26     8    10   ar
    27    10    11   ar
    28    29    23   ar
    29    11     1   ar
    30    17    12   ar
    31    11     5   ar
    32    19    20    1
@<TRIPOS>MOLECULE
*****
 29 32 0 0 0
SMALL
GASTEIGER

@<TRIPOS>ATOM
      1 C          -7.1096  -17.8335   21.9742 C.ar    1  UNL1        0.0813
      2 C          -5.7752  -18.0897   21.3389 C.ar    1  UNL1        0.0365
      3 C          -4.5239  -17.5817   21.9916 C.ar    1  UNL1        0.0857
      4 C          -4.6070  -16.8175   23.2797 C.ar    1  UNL1        0.0989
      5 N          -5.9414  -16.5613   23.9150 N.ar    1  UNL1       -0.2906
      6 C          -6.3331  -15.8440   25.1728 C.ar    1  UNL1        0.0567
      7 C          -5.3959  -15.1789   26.1368 C.3     1  UNL1        0.0517
      8 C          -7.8265  -15.9087   25.2974 C.ar    1  UNL1        0.0730
      9 C          -8.6450  -15.3196   26.4080 C.3     1  UNL1        0.0534
     10 N          -8.3578  -16.6660   24.1167 N.ar    1  UNL1       -0.2299
     11 C          -7.1927  -17.0693   23.2623 C.ar    1  UNL1        0.1604
     12 N          -3.1894  -17.8379   21.3563 N.ar    1  UNL1       -0.2716
     13 C          -2.2102  -16.7139   21.1891 C.ar    1  UNL1        0.0830
     14 C          -0.8758  -16.9700   20.5538 C.ar    1  UNL1        0.0192
     15 C          -0.5204  -18.3502   20.0858 C.ar    1  UNL1        0.0064
     16 C          -1.4996  -19.4742   20.2530 C.ar    1  UNL1        0.0611
     17 C          -2.8341  -19.2180   20.8883 C.ar    1  UNL1        0.2649
     18 O          -3.8133  -20.3419   21.0556 O.2     1  UNL1       -0.2666
     19 N          -8.3610  -18.3415   21.3214 N.pl3   1  UNL1       -0.3267
     20 H          -8.5942  -18.0500   20.4105 H       1  UNL1        0.1472
     21 C          -9.2570  -19.2936   22.0567 C.3     1  UNL1        0.1137
     22 C         -10.0823  -19.6702   24.9163 C.3     1  UNL1        0.0307
     23 C         -11.0277  -19.0350   23.9403 C.ar    1  UNL1       -0.0245
     24 C         -12.3858  -18.5880   24.3941 C.ar    1  UNL1       -0.0045
     25 C         -13.3312  -17.9528   23.4181 C.ar    1  UNL1       -0.0007
     26 C         -12.9186  -17.7645   21.9883 C.ar    1  UNL1       -0.0045
     27 C         -11.5606  -18.2114   21.5345 C.ar    1  UNL1       -0.0245
     28 C         -11.1480  -18.0230   20.1047 C.3     1  UNL1        0.0307
     29 C         -10.6151  -18.8466   22.5105 C.ar    1  UNL1       -0.0105
@<TRIPOS>BOND
     1    22    23    1
     2    23    24   ar
     3    24    25   ar
     4    25    26   ar
     5    26    27   ar
     6    27    28    1
     7    27    29   ar
     8    29    21    1
     9    21    19    1
    10    19     1    1
    11     1     2   ar
    12     2     3   ar
    13     3    12    1
    14    12    13   ar
    15    13    14   ar
    16    14    15   ar
    17    15    16   ar
    18    16    17   ar
    19    17    18    2
    20     3     4   ar
    21     4     5   ar
    22     5     6   ar
    23     6     7    1
    24     6     8   ar
    25     8     9    1
    26     8    10   ar
    27    10    11   ar
    28    29    23   ar
    29    11     1   ar
    30    17    12   ar
    31    11     5   ar
    32    19    20    1
@<TRIPOS>MOLECULE
*****
 29 32 0 0 0
SMALL
GASTEIGER

@<TRIPOS>ATOM
      1 C          -6.2874  -17.6557   22.5939 C.ar    1  UNL1        0.0813
      2 C          -7.7502  -17.4754   22.8729 C.ar    1  UNL1        0.0365
      3 C          -8.7532  -18.3933   22.2395 C.ar    1  UNL1        0.0857
      4 C          -8.2935  -19.4915   21.3270 C.ar    1  UNL1        0.0989
      5 N          -6.8308  -19.6719   21.0480 N.ar    1  UNL1       -0.2906
      6 C          -6.0852  -20.6575   20.1980 C.ar    1  UNL1        0.0567
      7 C          -6.6962  -21.7586   19.3830 C.3     1  UNL1        0.0517
      8 C          -4.6213  -20.3488   20.3061 C.ar    1  UNL1        0.0730
      9 C          -3.5113  -21.0870   19.6182 C.3     1  UNL1        0.0534
     10 N          -4.4621  -19.1723   21.2229 N.ar    1  UNL1       -0.2299
     11 C          -5.8278  -18.7540   21.6814 C.ar    1  UNL1        0.1604
     12 N         -10.2160  -18.2130   22.5185 N.ar    1  UNL1       -0.2716
     13 C         -10.7831  -18.6260   23.8444 C.ar    1  UNL1        0.0830
     14 C         -12.2458  -18.4457   24.1234 C.ar    1  UNL1        0.0192
     15 C         -13.1415  -17.8524   23.0765 C.ar    1  UNL1        0.0064
     16 C         -12.5745  -17.4395   21.7507 C.ar    1  UNL1        0.0611
     17 C         -11.1117  -17.6198   21.4717 C.ar    1  UNL1        0.2649
     18 O         -10.5446  -17.2069   20.1458 O.2     1  UNL1       -0.2666
     19 N          -5.2843  -16.7378   23.2274 N.pl3   1  UNL1       -0.3267
     20 H          -4.3278  -16.9706   23.2157 H       1  UNL1        0.1472
     21 C          -5.7386  -15.4652   23.8786 C.3     1  UNL1        0.1137
     22 C          -4.4708  -16.3062   26.4642 C.3     1  UNL1        0.0307
     23 C          -5.9240  -15.9366   26.4268 C.ar    1  UNL1       -0.0245
     24 C          -6.7434  -15.9874   27.6822 C.ar    1  UNL1       -0.0045
     25 C          -8.1966  -15.6178   27.6448 C.ar    1  UNL1       -0.0007
     26 C          -8.8305  -15.1973   26.3520 C.ar    1  UNL1       -0.0045
     27 C          -8.0112  -15.1464   25.0966 C.ar    1  UNL1       -0.0245
     28 C          -8.6451  -14.7260   23.8038 C.3     1  UNL1        0.0307
     29 C          -6.5579  -15.5161   25.1340 C.ar    1  UNL1       -0.0105
@<TRIPOS>BOND
     1    22    23    1
     2    23    24   ar
     3    24    25   ar
     4    25    26   ar
     5    26    27   ar
     6    27    28    1
     7    27    29   ar
     8    29    21    1
     9    21    19    1
    10    19     1    1
    11     1     2   ar
    12     2     3   ar
    13     3    12    1
    14    12    13   ar
    15    13    14   ar
    16    14    15   ar
    17    15    16   ar
    18    16    17   ar
    19    17    18    2
    20     3     4   ar
    21     4     5   ar
    22     5     6   ar
    23     6     7    1
    24     6     8   ar
    25     8     9    1
    26     8    10   ar
    27    10    11   ar
    28    29    23   ar
    29    11     1   ar
    30    17    12   ar
    31    11     5   ar
    32    19    20    1
