@<TRIPOS>MOLECULE
*****
 31 35 0 0 0
SMALL
GASTEIGER

@<TRIPOS>ATOM
      1 C           1.0339    1.1953   29.6303 C.3     1  UNL1        0.0595
      2 C          -0.0019    0.3235   28.9844 C.3     1  UNL1        0.0164
      3 C          -0.9161    0.8928   27.9403 C.3     1  UNL1        0.0071
      4 C          -0.7944    2.3338   27.5421 C.3     1  UNL1        0.0389
      5 C           0.2415    3.2055   28.1879 C.3     1  UNL1        0.0563
      6 N           0.3631    4.6466   27.7896 N.3     1  UNL1       -0.3219
      7 C           1.1556    2.6363   29.2320 C.3     1  UNL1        0.0318
      8 H          -0.3311    4.8613   27.0738 H       1  UNL1        0.1188
      9 H           1.2978    4.8193   27.4194 H       1  UNL1        0.1188
     10 C           4.8316    1.7288   37.6020 C.3     1  UNL1        0.0540
     11 C           4.6303    1.0028   36.3049 C.ar    1  UNL1        0.0824
     12 C           5.2720   -0.2949   35.9120 C.ar    1  UNL1        0.0552
     13 C           4.7904   -0.6527   34.5372 C.ar    1  UNL1        0.1646
     14 N           5.0859   -1.8196   33.6423 N.ar    1  UNL1       -0.2252
     15 C           4.4419   -1.9101   32.2906 C.ar    1  UNL1        0.0988
     16 C           3.5025   -0.8336   31.8338 C.ar    1  UNL1        0.0281
     17 C           3.2071    0.3334   32.7287 C.ar    1  UNL1        0.0771
     18 N           3.8510    0.4238   34.0804 N.ar    1  UNL1       -0.2154
     19 N           3.7521    1.4469   35.1729 N.ar    1  UNL1       -0.1683
     20 C           2.2464    1.2354   32.0122 C.3     1  UNL1        0.1187
     21 N           1.9481    0.6259   30.6745 N.3     1  UNL1       -0.2651
     22 C           2.7244   -0.6528   30.5642 C.3     1  UNL1        0.1022
     23 C          -1.7086    2.9032   26.4979 C.ar    1  UNL1        0.0086
     24 C          -3.0607    3.4226   26.8875 C.ar    1  UNL1        0.0300
     25 C          -3.9749    3.9919   25.8435 C.ar    1  UNL1        0.1672
     26 F          -5.3270    4.5114   26.2331 F       1  UNL1       -0.2018
     27 C          -3.5369    4.0418   24.4097 C.ar    1  UNL1        0.1696
     28 F          -4.4510    4.6111   23.3656 F       1  UNL1       -0.2017
     29 C          -2.1847    3.5223   24.0201 C.ar    1  UNL1        0.0612
     30 C          -1.2706    2.9530   25.0642 C.ar    1  UNL1        0.1385
     31 F           0.0816    2.4335   24.6745 F       1  UNL1       -0.2044
@<TRIPOS>BOND
     1    10    11    1
     2    11    12   ar
     3    12    13   ar
     4    13    14   ar
     5    14    15   ar
     6    15    16   ar
     7    16    17   ar
     8    17    18   ar
     9    18    19   ar
    10    17    20    1
    11    20    21    1
    12     1    21    1
    13     1     2    1
    14     2     3    1
    15     3     4    1
    16     4    23    1
    17    23    24   ar
    18    24    25   ar
    19    25    26    1
    20    25    27   ar
    21    27    28    1
    22    27    29   ar
    23    29    30   ar
    24    30    31    1
    25     4     5    1
    26     5     6    1
    27     5     7    1
    28    21    22    1
    29    19    11   ar
    30     7     1    1
    31    18    13   ar
    32    30    23   ar
    33    22    16    1
    34     6     8    1
    35     6     9    1
@<TRIPOS>MOLECULE
*****
 31 35 0 0 0
SMALL
GASTEIGER

@<TRIPOS>ATOM
      1 C           6.0429   -2.4518   32.1491 C.3     1  UNL1        0.0595
      2 C           4.7732   -2.7272   32.8988 C.3     1  UNL1        0.0164
      3 C           4.3176   -1.7854   33.9737 C.3     1  UNL1        0.0071
      4 C           5.1315   -0.5682   34.2988 C.3     1  UNL1        0.0389
      5 C           6.4012   -0.2928   33.5490 C.3     1  UNL1        0.0563
      6 N           7.2152    0.9245   33.8742 N.3     1  UNL1       -0.3219
      7 C           6.8569   -1.2346   32.4742 C.3     1  UNL1        0.0318
      8 H           6.7611    1.4471   34.6232 H       1  UNL1        0.1188
      9 H           7.2907    1.5144   33.0455 H       1  UNL1        0.1188
     10 C           6.9409   -4.4328   23.5745 C.3     1  UNL1        0.0540
     11 C           7.1328   -4.7929   25.0179 C.ar    1  UNL1        0.0824
     12 C           7.7609   -6.0525   25.5365 C.ar    1  UNL1        0.0552
     13 C           7.7466   -5.9946   27.0353 C.ar    1  UNL1        0.1646
     14 N           8.2312   -6.9541   28.0815 N.ar    1  UNL1       -0.2252
     15 C           8.0789   -6.6182   29.5355 C.ar    1  UNL1        0.0988
     16 C           7.4420   -5.3228   29.9433 C.ar    1  UNL1        0.0281
     17 C           6.9574   -4.3633   28.8970 C.ar    1  UNL1        0.0771
     18 N           7.1096   -4.6992   27.4431 N.ar    1  UNL1       -0.2154
     19 N           6.7303   -3.9565   26.1963 N.ar    1  UNL1       -0.1683
     20 C           6.3743   -3.1711   29.5960 C.3     1  UNL1        0.1187
     21 N           6.4985   -3.3937   31.0742 N.3     1  UNL1       -0.2651
     22 C           7.1584   -4.7235   31.2888 C.3     1  UNL1        0.1022
     23 C           4.6759    0.3737   35.3736 C.ar    1  UNL1        0.0086
     24 C           3.5893    1.3677   35.0886 C.ar    1  UNL1        0.0300
     25 C           3.1337    2.3096   36.1634 C.ar    1  UNL1        0.1672
     26 F           2.0471    3.3037   35.8783 F       1  UNL1       -0.2018
     27 C           3.7645    2.2574   37.5232 C.ar    1  UNL1        0.1696
     28 F           3.3089    3.1993   38.5981 F       1  UNL1       -0.2017
     29 C           4.8511    1.2633   37.8083 C.ar    1  UNL1        0.0612
     30 C           5.3068    0.3215   36.7335 C.ar    1  UNL1        0.1385
     31 F           6.3933   -0.6726   37.0185 F       1  UNL1       -0.2044
@<TRIPOS>BOND
     1    10    11    1
     2    11    12   ar
     3    12    13   ar
     4    13    14   ar
     5    14    15   ar
     6    15    16   ar
     7    16    17   ar
     8    17    18   ar
     9    18    19   ar
    10    17    20    1
    11    20    21    1
    12     1    21    1
    13     1     2    1
    14     2     3    1
    15     3     4    1
    16     4    23    1
    17    23    24   ar
    18    24    25   ar
    19    25    26    1
    20    25    27   ar
    21    27    28    1
    22    27    29   ar
    23    29    30   ar
    24    30    31    1
    25     4     5    1
    26     5     6    1
    27     5     7    1
    28    21    22    1
    29    19    11   ar
    30     7     1    1
    31    18    13   ar
    32    30    23   ar
    33    22    16    1
    34     6     8    1
    35     6     9    1
@<TRIPOS>MOLECULE
*****
 31 35 0 0 0
SMALL
GASTEIGER

@<TRIPOS>ATOM
      1 C           0.5052    2.0253   22.1888 C.3     1  UNL1        0.0595
      2 C          -0.4714    3.0323   21.6575 C.3     1  UNL1        0.0164
      3 C          -1.5057    3.6264   22.5670 C.3     1  UNL1        0.0071
      4 C          -1.5634    3.2135   24.0079 C.3     1  UNL1        0.0389
      5 C          -0.5868    2.2065   24.5392 C.3     1  UNL1        0.0563
      6 N          -0.6446    1.7936   25.9802 N.3     1  UNL1       -0.3219
      7 C           0.4474    1.6124   23.6297 C.3     1  UNL1        0.0318
      8 H          -1.4020    2.2927   26.4468 H       1  UNL1        0.1188
      9 H           0.2409    2.0182   26.4340 H       1  UNL1        0.1188
     10 C           4.5739   -5.0678   18.8144 C.3     1  UNL1        0.0540
     11 C           4.4132   -3.5787   18.8959 C.ar    1  UNL1        0.0824
     12 C           5.2099   -2.5628   18.1321 C.ar    1  UNL1        0.0552
     13 C           4.7167   -1.2002   18.5196 C.ar    1  UNL1        0.1646
     14 N           5.1282    0.1763   18.0885 N.ar    1  UNL1       -0.2252
     15 C           4.4383    1.3791   18.6607 C.ar    1  UNL1        0.0988
     16 C           3.3368    1.2053   19.6640 C.ar    1  UNL1        0.0281
     17 C           2.9253   -0.1713   20.0950 C.ar    1  UNL1        0.0771
     18 N           3.6152   -1.3740   19.5229 N.ar    1  UNL1       -0.2154
     19 N           3.4276   -2.8439   19.7554 N.ar    1  UNL1       -0.1683
     20 C           1.8144   -0.0316   21.0933 C.3     1  UNL1        0.1187
     21 N           1.5395    1.4313   21.2792 N.3     1  UNL1       -0.2651
     22 C           2.4803    2.1957   20.3958 C.3     1  UNL1        0.1022
     23 C          -2.5977    3.8076   24.9175 C.ar    1  UNL1        0.0086
     24 C          -2.1770    4.6806   26.0624 C.ar    1  UNL1        0.0300
     25 C          -3.2112    5.2747   26.9720 C.ar    1  UNL1        0.1672
     26 F          -2.7906    6.1478   28.1169 F       1  UNL1       -0.2018
     27 C          -4.6661    4.9957   26.7367 C.ar    1  UNL1        0.1696
     28 F          -5.7004    5.5898   27.6464 F       1  UNL1       -0.2017
     29 C          -5.0868    4.1227   25.5918 C.ar    1  UNL1        0.0612
     30 C          -4.0526    3.5286   24.6822 C.ar    1  UNL1        0.1385
     31 F          -4.4733    2.6555   23.5373 F       1  UNL1       -0.2044
@<TRIPOS>BOND
     1    10    11    1
     2    11    12   ar
     3    12    13   ar
     4    13    14   ar
     5    14    15   ar
     6    15    16   ar
     7    16    17   ar
     8    17    18   ar
     9    18    19   ar
    10    17    20    1
    11    20    21    1
    12     1    21    1
    13     1     2    1
    14     2     3    1
    15     3     4    1
    16     4    23    1
    17    23    24   ar
    18    24    25   ar
    19    25    26    1
    20    25    27   ar
    21    27    28    1
    22    27    29   ar
    23    29    30   ar
    24    30    31    1
    25     4     5    1
    26     5     6    1
    27     5     7    1
    28    21    22    1
    29    19    11   ar
    30     7     1    1
    31    18    13   ar
    32    30    23   ar
    33    22    16    1
    34     6     8    1
    35     6     9    1
@<TRIPOS>MOLECULE
*****
 31 35 0 0 0
SMALL
GASTEIGER

@<TRIPOS>ATOM
      1 C          -0.9507    2.5685   27.1804 C.3     1  UNL1        0.0595
      2 C           0.2476    3.3567   27.6196 C.3     1  UNL1        0.0164
      3 C           1.1464    2.8191   28.6934 C.3     1  UNL1        0.0071
      4 C           0.8470    1.4933   29.3279 C.3     1  UNL1        0.0389
      5 C          -0.3513    0.7052   28.8887 C.3     1  UNL1        0.0563
      6 N          -0.6507   -0.6206   29.5233 N.3     1  UNL1       -0.3219
      7 C          -1.2501    1.2428   27.8149 C.3     1  UNL1        0.0318
      8 H           0.0577   -0.8284   30.2272 H       1  UNL1        0.1188
      9 H          -0.6441   -1.3487   28.8090 H       1  UNL1        0.1188
     10 C          -8.6842    6.0835   24.7120 C.3     1  UNL1        0.0540
     11 C          -7.3117    5.5888   24.3632 C.ar    1  UNL1        0.0824
     12 C          -6.7037    5.5692   22.9921 C.ar    1  UNL1        0.0552
     13 C          -5.3225    4.9952   23.1057 C.ar    1  UNL1        0.1646
     14 N          -4.2568    4.7343   22.0829 N.ar    1  UNL1       -0.2252
     15 C          -2.9454    4.1383   22.5015 C.ar    1  UNL1        0.0988
     16 C          -2.6998    3.8031   23.9428 C.ar    1  UNL1        0.0281
     17 C          -3.7657    4.0639   24.9655 C.ar    1  UNL1        0.0771
     18 N          -5.0770    4.6600   24.5470 N.ar    1  UNL1       -0.2154
     19 N          -6.3064    5.0269   25.3241 N.ar    1  UNL1       -0.1683
     20 C          -3.2402    3.6332   26.3028 C.3     1  UNL1        0.1187
     21 N          -1.8496    3.1062   26.1065 N.3     1  UNL1       -0.2651
     22 C          -1.5156    3.2112   24.6479 C.3     1  UNL1        0.1022
     23 C           1.7458    0.9557   30.4017 C.ar    1  UNL1        0.0086
     24 C           1.8183    1.6432   31.7329 C.ar    1  UNL1        0.0300
     25 C           2.7171    1.1056   32.8067 C.ar    1  UNL1        0.1672
     26 F           2.7896    1.7931   34.1379 F       1  UNL1       -0.2018
     27 C           3.5434   -0.1195   32.5494 C.ar    1  UNL1        0.1696
     28 F           4.4423   -0.6571   33.6232 F       1  UNL1       -0.2017
     29 C           3.4709   -0.8070   31.2182 C.ar    1  UNL1        0.0612
     30 C           2.5721   -0.2694   30.1444 C.ar    1  UNL1        0.1385
     31 F           2.4996   -0.9569   28.8132 F       1  UNL1       -0.2044
@<TRIPOS>BOND
     1    10    11    1
     2    11    12   ar
     3    12    13   ar
     4    13    14   ar
     5    14    15   ar
     6    15    16   ar
     7    16    17   ar
     8    17    18   ar
     9    18    19   ar
    10    17    20    1
    11    20    21    1
    12     1    21    1
    13     1     2    1
    14     2     3    1
    15     3     4    1
    16     4    23    1
    17    23    24   ar
    18    24    25   ar
    19    25    26    1
    20    25    27   ar
    21    27    28    1
    22    27    29   ar
    23    29    30   ar
    24    30    31    1
    25     4     5    1
    26     5     6    1
    27     5     7    1
    28    21    22    1
    29    19    11   ar
    30     7     1    1
    31    18    13   ar
    32    30    23   ar
    33    22    16    1
    34     6     8    1
    35     6     9    1
@<TRIPOS>MOLECULE
*****
 31 35 0 0 0
SMALL
GASTEIGER

@<TRIPOS>ATOM
      1 C           0.4916    1.4344   19.7090 C.3     1  UNL1        0.0595
      2 C           0.5608    0.5202   20.8961 C.3     1  UNL1        0.0164
      3 C           1.6473   -0.5099   20.9871 C.3     1  UNL1        0.0071
      4 C           2.6646   -0.6258   19.8910 C.3     1  UNL1        0.0389
      5 C           2.5954    0.2885   18.7038 C.3     1  UNL1        0.0563
      6 N           3.6129    0.1727   17.6077 N.3     1  UNL1       -0.3219
      7 C           1.5089    1.3186   18.6128 C.3     1  UNL1        0.0318
      8 H           4.2712   -0.5733   17.8323 H       1  UNL1        0.1188
      9 H           4.1167    1.0549   17.5168 H       1  UNL1        0.1188
     10 C          -7.1575    4.7800   22.6337 C.3     1  UNL1        0.0540
     11 C          -5.9976    4.8275   21.6838 C.ar    1  UNL1        0.0824
     12 C          -5.7890    5.8399   20.5968 C.ar    1  UNL1        0.0552
     13 C          -4.5051    5.5091   19.8953 C.ar    1  UNL1        0.1646
     14 N          -3.7931    6.1587   18.7459 N.ar    1  UNL1       -0.2252
     15 C          -2.4960    5.5914   18.2499 C.ar    1  UNL1        0.0988
     16 C          -1.9111    4.3745   18.9034 C.ar    1  UNL1        0.0281
     17 C          -2.6231    3.7249   20.0528 C.ar    1  UNL1        0.0771
     18 N          -3.9201    4.2922   20.5487 N.ar    1  UNL1       -0.2154
     19 N          -4.8425    3.8710   21.6540 N.ar    1  UNL1       -0.1683
     20 C          -1.8097    2.5445   20.4944 C.3     1  UNL1        0.1187
     21 N          -0.5950    2.4646   19.6180 N.3     1  UNL1       -0.2651
     22 C          -0.6576    3.5956   18.6347 C.3     1  UNL1        0.1022
     23 C           3.7512   -1.6559   19.9819 C.ar    1  UNL1        0.0086
     24 C           3.5322   -3.0287   19.4185 C.ar    1  UNL1        0.0300
     25 C           4.6187   -4.0588   19.5095 C.ar    1  UNL1        0.1672
     26 F           4.3998   -5.4316   18.9461 F       1  UNL1       -0.2018
     27 C           5.9242   -3.7161   20.1638 C.ar    1  UNL1        0.1696
     28 F           7.0108   -4.7463   20.2548 F       1  UNL1       -0.2017
     29 C           6.1432   -2.3433   20.7272 C.ar    1  UNL1        0.0612
     30 C           5.0567   -1.3132   20.6363 C.ar    1  UNL1        0.1385
     31 F           5.2757    0.0596   21.1997 F       1  UNL1       -0.2044
@<TRIPOS>BOND
     1    10    11    1
     2    11    12   ar
     3    12    13   ar
     4    13    14   ar
     5    14    15   ar
     6    15    16   ar
     7    16    17   ar
     8    17    18   ar
     9    18    19   ar
    10    17    20    1
    11    20    21    1
    12     1    21    1
    13     1     2    1
    14     2     3    1
    15     3     4    1
    16     4    23    1
    17    23    24   ar
    18    24    25   ar
    19    25    26    1
    20    25    27   ar
    21    27    28    1
    22    27    29   ar
    23    29    30   ar
    24    30    31    1
    25     4     5    1
    26     5     6    1
    27     5     7    1
    28    21    22    1
    29    19    11   ar
    30     7     1    1
    31    18    13   ar
    32    30    23   ar
    33    22    16    1
    34     6     8    1
    35     6     9    1
@<TRIPOS>MOLECULE
*****
 31 35 0 0 0
SMALL
GASTEIGER

@<TRIPOS>ATOM
      1 C           0.5764    2.1716   29.3800 C.3     1  UNL1        0.0595
      2 C          -0.1604    1.0993   28.6334 C.3     1  UNL1        0.0164
      3 C          -0.9282    1.4424   27.3914 C.3     1  UNL1        0.0071
      4 C          -0.9593    2.8579   26.8960 C.3     1  UNL1        0.0389
      5 C          -0.2225    3.9302   27.6426 C.3     1  UNL1        0.0563
      6 N          -0.2537    5.3457   27.1471 N.3     1  UNL1       -0.3219
      7 C           0.5453    3.5870   28.8846 C.3     1  UNL1        0.0318
      8 H          -0.8176    5.3966   26.2987 H       1  UNL1        0.1188
      9 H           0.6965    5.6554   26.9429 H       1  UNL1        0.1188
     10 C           2.4437    3.6795   37.8944 C.3     1  UNL1        0.0540
     11 C           2.6631    2.8935   36.6358 C.ar    1  UNL1        0.0824
     12 C           3.6118    1.7437   36.4684 C.ar    1  UNL1        0.0552
     13 C           3.5073    1.2588   35.0528 C.ar    1  UNL1        0.1646
     14 N           4.2039    0.1530   34.3167 N.ar    1  UNL1       -0.2252
     15 C           3.8873   -0.1027   32.8729 C.ar    1  UNL1        0.0988
     16 C           2.8741    0.7474   32.1653 C.ar    1  UNL1        0.0281
     17 C           2.1774    1.8532   32.9016 C.ar    1  UNL1        0.0771
     18 N           2.4941    2.1089   34.3453 N.ar    1  UNL1       -0.2154
     19 N           1.9723    3.1192   35.3236 N.ar    1  UNL1       -0.1683
     20 C           1.2319    2.5213   31.9478 C.3     1  UNL1        0.1187
     21 N           1.3442    1.8284   30.6221 N.3     1  UNL1       -0.2651
     22 C           2.3591    0.7321   30.7566 C.3     1  UNL1        0.1022
     23 C          -1.7271    3.2011   25.6539 C.ar    1  UNL1        0.0086
     24 C          -1.0427    3.1805   24.3194 C.ar    1  UNL1        0.0300
     25 C          -1.8104    3.5237   23.0773 C.ar    1  UNL1        0.1672
     26 F          -1.1259    3.5031   21.7427 F       1  UNL1       -0.2018
     27 C          -3.2627    3.8875   23.1698 C.ar    1  UNL1        0.1696
     28 F          -4.0305    4.2307   21.9278 F       1  UNL1       -0.2017
     29 C          -3.9471    3.9081   24.5044 C.ar    1  UNL1        0.0612
     30 C          -3.1794    3.5649   25.7464 C.ar    1  UNL1        0.1385
     31 F          -3.8638    3.5855   27.0810 F       1  UNL1       -0.2044
@<TRIPOS>BOND
     1    10    11    1
     2    11    12   ar
     3    12    13   ar
     4    13    14   ar
     5    14    15   ar
     6    15    16   ar
     7    16    17   ar
     8    17    18   ar
     9    18    19   ar
    10    17    20    1
    11    20    21    1
    12     1    21    1
    13     1     2    1
    14     2     3    1
    15     3     4    1
    16     4    23    1
    17    23    24   ar
    18    24    25   ar
    19    25    26    1
    20    25    27   ar
    21    27    28    1
    22    27    29   ar
    23    29    30   ar
    24    30    31    1
    25     4     5    1
    26     5     6    1
    27     5     7    1
    28    21    22    1
    29    19    11   ar
    30     7     1    1
    31    18    13   ar
    32    30    23   ar
    33    22    16    1
    34     6     8    1
    35     6     9    1
@<TRIPOS>MOLECULE
*****
 31 35 0 0 0
SMALL
GASTEIGER

@<TRIPOS>ATOM
      1 C          -1.1130    2.6251   27.3263 C.3     1  UNL1        0.0595
      2 C          -0.0091    3.5693   27.7001 C.3     1  UNL1        0.0164
      3 C           1.0525    3.1366   28.6675 C.3     1  UNL1        0.0071
      4 C           1.0100    1.7598   29.2611 C.3     1  UNL1        0.0389
      5 C          -0.0939    0.8156   28.8872 C.3     1  UNL1        0.0563
      6 N          -0.1363   -0.5614   29.4808 N.3     1  UNL1       -0.3219
      7 C          -1.1555    1.2482   27.9198 C.3     1  UNL1        0.0318
      8 H           0.6556   -0.6841   30.1118 H       1  UNL1        0.1188
      9 H          -0.0872   -1.2550   28.7346 H       1  UNL1        0.1188
     10 C          -3.9317    3.6648   19.0059 C.3     1  UNL1        0.0540
     11 C          -4.1654    3.7922   20.4821 C.ar    1  UNL1        0.0824
     12 C          -5.4035    4.3308   21.1355 C.ar    1  UNL1        0.0552
     13 C          -5.2053    4.2748   22.6213 C.ar    1  UNL1        0.1646
     14 N          -6.0880    4.6717   23.7673 N.ar    1  UNL1       -0.2252
     15 C          -5.6100    4.4954   25.1782 C.ar    1  UNL1        0.0988
     16 C          -4.2494    3.9222   25.4431 C.ar    1  UNL1        0.0281
     17 C          -3.3667    3.5253   24.2970 C.ar    1  UNL1        0.0771
     18 N          -3.8447    3.7016   22.8862 N.ar    1  UNL1       -0.2154
     19 N          -3.2020    3.4033   21.5640 N.ar    1  UNL1       -0.1683
     20 C          -2.0844    2.9911   24.8630 C.3     1  UNL1        0.1187
     21 N          -2.1746    3.0579   26.3588 N.3     1  UNL1       -0.2651
     22 C          -3.5126    3.6333   26.7173 C.3     1  UNL1        0.1022
     23 C           2.0716    1.3270   30.2285 C.ar    1  UNL1        0.0086
     24 C           3.3164    0.6578   29.7261 C.ar    1  UNL1        0.0300
     25 C           4.3780    0.2250   30.6935 C.ar    1  UNL1        0.1672
     26 F           5.6228   -0.4442   30.1910 F       1  UNL1       -0.2018
     27 C           4.1946    0.4615   32.1633 C.ar    1  UNL1        0.1696
     28 F           5.2562    0.0288   33.1307 F       1  UNL1       -0.2017
     29 C           2.9498    1.1308   32.6657 C.ar    1  UNL1        0.0612
     30 C           1.8883    1.5635   31.6983 C.ar    1  UNL1        0.1385
     31 F           0.6434    2.2328   32.2008 F       1  UNL1       -0.2044
@<TRIPOS>BOND
     1    10    11    1
     2    11    12   ar
     3    12    13   ar
     4    13    14   ar
     5    14    15   ar
     6    15    16   ar
     7    16    17   ar
     8    17    18   ar
     9    18    19   ar
    10    17    20    1
    11    20    21    1
    12     1    21    1
    13     1     2    1
    14     2     3    1
    15     3     4    1
    16     4    23    1
    17    23    24   ar
    18    24    25   ar
    19    25    26    1
    20    25    27   ar
    21    27    28    1
    22    27    29   ar
    23    29    30   ar
    24    30    31    1
    25     4     5    1
    26     5     6    1
    27     5     7    1
    28    21    22    1
    29    19    11   ar
    30     7     1    1
    31    18    13   ar
    32    30    23   ar
    33    22    16    1
    34     6     8    1
    35     6     9    1
@<TRIPOS>MOLECULE
*****
 31 35 0 0 0
SMALL
GASTEIGER

@<TRIPOS>ATOM
      1 C           3.9620   -0.6993   26.8810 C.3     1  UNL1        0.0595
      2 C           5.3885   -0.6247   27.3388 C.3     1  UNL1        0.0164
      3 C           5.7054   -0.5995   28.8047 C.3     1  UNL1        0.0071
      4 C           4.5958   -0.6489   29.8128 C.3     1  UNL1        0.0389
      5 C           3.1693   -0.7235   29.3550 C.3     1  UNL1        0.0563
      6 N           2.0597   -0.7729   30.3632 N.3     1  UNL1       -0.3219
      7 C           2.8525   -0.7486   27.8891 C.3     1  UNL1        0.0318
      8 H           2.4535   -0.7471   31.3038 H       1  UNL1        0.1188
      9 H           1.5274   -1.6343   30.2410 H       1  UNL1        0.1188
     10 C           4.7840   -4.4878   18.9295 C.3     1  UNL1        0.0540
     11 C           4.2257   -3.4003   19.7989 C.ar    1  UNL1        0.0824
     12 C           3.3409   -2.2767   19.3466 C.ar    1  UNL1        0.0552
     13 C           3.0226   -1.4275   20.5414 C.ar    1  UNL1        0.1646
     14 N           2.1951   -0.1864   20.6989 N.ar    1  UNL1       -0.2252
     15 C           2.0558    0.4561   22.0472 C.ar    1  UNL1        0.0988
     16 C           2.7439   -0.1427   23.2380 C.ar    1  UNL1        0.0281
     17 C           3.5714   -1.3838   23.0804 C.ar    1  UNL1        0.0771
     18 N           3.7108   -2.0262   21.7322 N.ar    1  UNL1       -0.2154
     19 N           4.4543   -3.2455   21.2733 N.ar    1  UNL1       -0.1683
     20 C           4.1284   -1.7434   24.4260 C.3     1  UNL1        0.1187
     21 N           3.6452   -0.7244   25.4151 N.3     1  UNL1       -0.2651
     22 C           2.7895    0.2648   24.6808 C.3     1  UNL1        0.1022
     23 C           4.9127   -0.6237   31.2788 C.ar    1  UNL1        0.0086
     24 C           4.6436    0.6135   32.0831 C.ar    1  UNL1        0.0300
     25 C           4.9605    0.6388   33.5490 C.ar    1  UNL1        0.1672
     26 F           4.6914    1.8760   34.3533 F       1  UNL1       -0.2018
     27 C           5.5463   -0.5732   34.2106 C.ar    1  UNL1        0.1696
     28 F           5.8632   -0.5480   35.6766 F       1  UNL1       -0.2017
     29 C           5.8154   -1.8105   33.4064 C.ar    1  UNL1        0.0612
     30 C           5.4985   -1.8357   31.9404 C.ar    1  UNL1        0.1385
     31 F           5.7676   -3.0729   31.1361 F       1  UNL1       -0.2044
@<TRIPOS>BOND
     1    10    11    1
     2    11    12   ar
     3    12    13   ar
     4    13    14   ar
     5    14    15   ar
     6    15    16   ar
     7    16    17   ar
     8    17    18   ar
     9    18    19   ar
    10    17    20    1
    11    20    21    1
    12     1    21    1
    13     1     2    1
    14     2     3    1
    15     3     4    1
    16     4    23    1
    17    23    24   ar
    18    24    25   ar
    19    25    26    1
    20    25    27   ar
    21    27    28    1
    22    27    29   ar
    23    29    30   ar
    24    30    31    1
    25     4     5    1
    26     5     6    1
    27     5     7    1
    28    21    22    1
    29    19    11   ar
    30     7     1    1
    31    18    13   ar
    32    30    23   ar
    33    22    16    1
    34     6     8    1
    35     6     9    1
@<TRIPOS>MOLECULE
*****
 31 35 0 0 0
SMALL
GASTEIGER

@<TRIPOS>ATOM
      1 C           1.6355    1.6428   30.5841 C.3     1  UNL1        0.0595
      2 C           1.6336    3.0582   30.0873 C.3     1  UNL1        0.0164
      3 C           0.9236    3.4045   28.8122 C.3     1  UNL1        0.0071
      4 C           0.2154    2.3354   28.0340 C.3     1  UNL1        0.0389
      5 C           0.2172    0.9201   28.5309 C.3     1  UNL1        0.0563
      6 N          -0.4910   -0.1489   27.7526 N.3     1  UNL1       -0.3219
      7 C           0.9273    0.5738   29.8060 C.3     1  UNL1        0.0318
      8 H          -0.9151    0.2609   26.9204 H       1  UNL1        0.1188
      9 H          -1.2176   -0.5675   28.3335 H       1  UNL1        0.1188
     10 C           3.3972    3.3595   39.0815 C.3     1  UNL1        0.0540
     11 C           3.5899    2.5091   37.8609 C.ar    1  UNL1        0.0824
     12 C           4.4565    1.2885   37.7646 C.ar    1  UNL1        0.0552
     13 C           4.3520    0.7550   36.3666 C.ar    1  UNL1        0.1646
     14 N           4.9845   -0.4269   35.6935 N.ar    1  UNL1       -0.2252
     15 C           4.6858   -0.7180   34.2526 C.ar    1  UNL1        0.0988
     16 C           3.7546    0.1728   33.4849 C.ar    1  UNL1        0.0281
     17 C           3.1221    1.3547   34.1581 C.ar    1  UNL1        0.0771
     18 N           3.4208    1.6458   35.5989 N.ar    1  UNL1       -0.2154
     19 N           2.9498    2.7298   36.5225 N.ar    1  UNL1       -0.1683
     20 C           2.2513    2.0492   33.1534 C.3     1  UNL1        0.1187
     21 N           2.3456    1.2966   31.8593 N.3     1  UNL1       -0.2651
     22 C           3.2747    0.1369   32.0642 C.3     1  UNL1        0.1022
     23 C          -0.4948    2.6817   26.7589 C.ar    1  UNL1        0.0086
     24 C          -1.9138    3.1662   26.7985 C.ar    1  UNL1        0.0300
     25 C          -2.6240    3.5125   25.5235 C.ar    1  UNL1        0.1672
     26 F          -4.0430    3.9969   25.5631 F       1  UNL1       -0.2018
     27 C          -1.9150    3.3743   24.2088 C.ar    1  UNL1        0.1696
     28 F          -2.6252    3.7205   22.9337 F       1  UNL1       -0.2017
     29 C          -0.4960    2.8898   24.1693 C.ar    1  UNL1        0.0612
     30 C           0.2141    2.5435   25.4443 C.ar    1  UNL1        0.1385
     31 F           1.6332    2.0591   25.4047 F       1  UNL1       -0.2044
@<TRIPOS>BOND
     1    10    11    1
     2    11    12   ar
     3    12    13   ar
     4    13    14   ar
     5    14    15   ar
     6    15    16   ar
     7    16    17   ar
     8    17    18   ar
     9    18    19   ar
    10    17    20    1
    11    20    21    1
    12     1    21    1
    13     1     2    1
    14     2     3    1
    15     3     4    1
    16     4    23    1
    17    23    24   ar
    18    24    25   ar
    19    25    26    1
    20    25    27   ar
    21    27    28    1
    22    27    29   ar
    23    29    30   ar
    24    30    31    1
    25     4     5    1
    26     5     6    1
    27     5     7    1
    28    21    22    1
    29    19    11   ar
    30     7     1    1
    31    18    13   ar
    32    30    23   ar
    33    22    16    1
    34     6     8    1
    35     6     9    1
