@<TRIPOS>MOLECULE
*****
 32 35 0 0 0
SMALL
GASTEIGER

@<TRIPOS>ATOM
      1 N          -7.8109  -15.1362   26.8489 N.pl3   1  UNL1       -0.3274
      2 C          -8.5144  -15.9518   25.8049 C.ar    1  UNL1        0.2148
      3 N          -8.7854  -15.3647   24.4514 N.ar    1  UNL1       -0.1994
      4 C          -9.4889  -16.1802   23.4073 C.ar    1  UNL1        0.1326
      5 N          -9.7600  -15.5932   22.0539 N.pl3   1  UNL1       -0.3424
      6 C          -9.9213  -17.5829   23.7168 C.ar    1  UNL1        0.0829
      7 C         -10.6248  -18.3984   22.6728 C.ar    1  UNL1        0.1426
      8 C         -11.0572  -19.8010   22.9822 C.ar    1  UNL1        0.0371
      9 C         -10.7861  -20.3880   24.3357 C.ar    1  UNL1        0.0047
     10 C         -10.0827  -19.5724   25.3797 C.ar    1  UNL1        0.0195
     11 C          -9.6503  -18.1699   25.0703 C.ar    1  UNL1        0.0898
     12 N          -8.9468  -17.3543   26.1143 N.ar    1  UNL1       -0.2138
     13 H          -7.5271  -14.2156   26.6458 H       1  UNL1        0.1452
     14 H          -7.6330  -15.5215   27.7373 H       1  UNL1        0.1452
     15 H          -9.4762  -14.6727   21.8508 H       1  UNL1        0.1437
     16 H         -10.2217  -16.1285   21.3687 H       1  UNL1        0.1437
     17 O         -10.8959  -17.8114   21.3193 O.3     1  UNL1       -0.4753
     18 C         -10.3262  -18.4601   20.0927 C.3     1  UNL1        0.2054
     19 C          -8.9277  -19.0022   20.1117 C.3     1  UNL1        0.0465
     20 C          -7.9259  -18.4588   21.0870 C.3     1  UNL1        0.0211
     21 C          -6.5274  -19.0009   21.1060 C.3     1  UNL1        0.0725
     22 N          -6.1307  -20.0864   20.1498 N.3     1  UNL1       -0.2689
     23 C          -7.1325  -20.6298   19.1746 C.3     1  UNL1        0.0725
     24 C          -8.5310  -20.0877   19.1555 C.3     1  UNL1        0.0211
     25 C          -4.7323  -20.6285   20.1688 C.3     1  UNL1        0.1014
     26 C          -3.5667  -19.6925   20.2931 C.ar    1  UNL1        0.0213
     27 C          -2.9239  -19.1274   19.0612 C.ar    1  UNL1       -0.0007
     28 C          -1.7584  -18.1915   19.1855 C.ar    1  UNL1       -0.0001
     29 C          -1.2356  -17.8206   20.5416 C.ar    1  UNL1        0.0023
     30 C          -1.8783  -18.3857   21.7735 C.ar    1  UNL1        0.0294
     31 C          -3.0438  -19.3217   21.6492 C.ar    1  UNL1        0.1374
     32 F          -3.6866  -19.8868   22.8811 F       1  UNL1       -0.2045
@<TRIPOS>BOND
     1     1     2    1
     2     2     3   ar
     3     3     4   ar
     4     4     5    1
     5     4     6   ar
     6     6     7   ar
     7     7    17    1
     8    17    18    1
     9    18    19    1
    10    19    20    1
    11    20    21    1
    12    21    22    1
    13    22    25    1
    14    25    26    1
    15    26    27   ar
    16    27    28   ar
    17    28    29   ar
    18    29    30   ar
    19    30    31   ar
    20    31    32    1
    21    22    23    1
    22    23    24    1
    23     7     8   ar
    24     8     9   ar
    25     9    10   ar
    26    10    11   ar
    27    11    12   ar
    28    12     2   ar
    29    11     6   ar
    30    24    19    1
    31    31    26   ar
    32     1    13    1
    33     1    14    1
    34     5    15    1
    35     5    16    1
@<TRIPOS>MOLECULE
*****
 32 35 0 0 0
SMALL
GASTEIGER

@<TRIPOS>ATOM
      1 N          -6.9607  -15.7291   27.9817 N.pl3   1  UNL1       -0.3274
      2 C          -7.6672  -16.0369   26.6948 C.ar    1  UNL1        0.2148
      3 N          -8.6712  -17.1499   26.6380 N.ar    1  UNL1       -0.1994
      4 C          -9.3776  -17.4578   25.3510 C.ar    1  UNL1        0.1326
      5 N         -10.3816  -18.5707   25.2942 N.pl3   1  UNL1       -0.3424
      6 C          -9.0800  -16.6526   24.1209 C.ar    1  UNL1        0.0829
      7 C          -9.7865  -16.9604   22.8340 C.ar    1  UNL1        0.1426
      8 C          -9.4889  -16.1553   21.6039 C.ar    1  UNL1        0.0371
      9 C          -8.4850  -15.0423   21.6607 C.ar    1  UNL1        0.0047
     10 C          -7.7785  -14.7345   22.9476 C.ar    1  UNL1        0.0195
     11 C          -8.0761  -15.5396   24.1777 C.ar    1  UNL1        0.0898
     12 N          -7.3696  -15.2318   25.4647 N.ar    1  UNL1       -0.2138
     13 H          -7.1560  -16.2575   28.7890 H       1  UNL1        0.1452
     14 H          -6.3018  -14.9986   28.0190 H       1  UNL1        0.1452
     15 H         -10.5769  -19.0992   26.1016 H       1  UNL1        0.1437
     16 H         -10.8453  -18.7728   24.4496 H       1  UNL1        0.1437
     17 O         -10.7905  -18.0734   22.7772 O.3     1  UNL1       -0.4753
     18 C         -10.4583  -19.3472   22.0582 C.3     1  UNL1        0.2054
     19 C          -9.0469  -19.6207   21.6302 C.3     1  UNL1        0.0465
     20 C          -8.0518  -20.1490   22.6205 C.3     1  UNL1        0.0211
     21 C          -6.6404  -20.4224   22.1925 C.3     1  UNL1        0.0725
     22 N          -6.2241  -20.1675   20.7742 N.3     1  UNL1       -0.2689
     23 C          -7.2191  -19.6393   19.7838 C.3     1  UNL1        0.0725
     24 C          -8.6305  -19.3658   20.2118 C.3     1  UNL1        0.0211
     25 C          -4.8127  -20.4410   20.3462 C.3     1  UNL1        0.1014
     26 C          -3.7887  -19.3458   20.3945 C.ar    1  UNL1        0.0213
     27 C          -3.2101  -18.8033   19.1214 C.ar    1  UNL1       -0.0007
     28 C          -2.1862  -17.7082   19.1697 C.ar    1  UNL1       -0.0001
     29 C          -1.7410  -17.1556   20.4912 C.ar    1  UNL1        0.0023
     30 C          -2.3196  -17.6981   21.7643 C.ar    1  UNL1        0.0294
     31 C          -3.3435  -18.7932   21.7160 C.ar    1  UNL1        0.1374
     32 F          -3.9221  -19.3357   22.9892 F       1  UNL1       -0.2045
@<TRIPOS>BOND
     1     1     2    1
     2     2     3   ar
     3     3     4   ar
     4     4     5    1
     5     4     6   ar
     6     6     7   ar
     7     7    17    1
     8    17    18    1
     9    18    19    1
    10    19    20    1
    11    20    21    1
    12    21    22    1
    13    22    25    1
    14    25    26    1
    15    26    27   ar
    16    27    28   ar
    17    28    29   ar
    18    29    30   ar
    19    30    31   ar
    20    31    32    1
    21    22    23    1
    22    23    24    1
    23     7     8   ar
    24     8     9   ar
    25     9    10   ar
    26    10    11   ar
    27    11    12   ar
    28    12     2   ar
    29    11     6   ar
    30    24    19    1
    31    31    26   ar
    32     1    13    1
    33     1    14    1
    34     5    15    1
    35     5    16    1
@<TRIPOS>MOLECULE
*****
 32 35 0 0 0
SMALL
GASTEIGER

@<TRIPOS>ATOM
      1 N         -16.9347   -0.7343   20.2711 N.pl3   1  UNL1       -0.3274
      2 C         -15.5443   -0.9540   19.7529 C.ar    1  UNL1        0.2148
      3 N         -14.7562   -2.1483   20.2030 N.ar    1  UNL1       -0.1994
      4 C         -13.3658   -2.3680   19.6848 C.ar    1  UNL1        0.1326
      5 N         -12.5776   -3.5623   20.1348 N.pl3   1  UNL1       -0.3424
      6 C         -12.7635   -1.3934   18.7165 C.ar    1  UNL1        0.0829
      7 C         -11.3731   -1.6131   18.1983 C.ar    1  UNL1        0.1426
      8 C         -10.7708   -0.6385   17.2302 C.ar    1  UNL1        0.0371
      9 C         -11.5590    0.5557   16.7801 C.ar    1  UNL1        0.0047
     10 C         -12.9494    0.7754   17.2983 C.ar    1  UNL1        0.0195
     11 C         -13.5516   -0.1991   18.2665 C.ar    1  UNL1        0.0898
     12 N         -14.9420    0.0206   18.7847 N.ar    1  UNL1       -0.2138
     13 H         -17.3300   -1.3740   20.9066 H       1  UNL1        0.1452
     14 H         -17.4520    0.0495   19.9757 H       1  UNL1        0.1452
     15 H         -12.9729   -4.2020   20.7703 H       1  UNL1        0.1437
     16 H         -11.6651   -3.7065   19.7947 H       1  UNL1        0.1437
     17 O         -10.5850   -2.8074   18.6484 O.3     1  UNL1       -0.4753
     18 C         -10.3192   -3.9336   17.6939 C.3     1  UNL1        0.2054
     19 C         -11.3274   -5.0322   17.5308 C.3     1  UNL1        0.0465
     20 C         -12.4225   -4.9002   16.5142 C.3     1  UNL1        0.0211
     21 C         -13.4307   -5.9988   16.3510 C.3     1  UNL1        0.0725
     22 N         -13.3439   -7.2293   17.2044 N.3     1  UNL1       -0.2689
     23 C         -12.2489   -7.3613   18.2209 C.3     1  UNL1        0.0725
     24 C         -11.2406   -6.2627   18.3841 C.3     1  UNL1        0.0211
     25 C         -14.3521   -8.3278   17.0412 C.3     1  UNL1        0.1014
     26 C         -15.4771   -8.4655   18.0239 C.ar    1  UNL1        0.0213
     27 C         -16.1107   -7.2410   18.6148 C.ar    1  UNL1       -0.0007
     28 C         -17.2356   -7.3786   19.5975 C.ar    1  UNL1       -0.0001
     29 C         -17.7269   -8.7406   19.9892 C.ar    1  UNL1        0.0023
     30 C         -17.0933   -9.9651   19.3982 C.ar    1  UNL1        0.0294
     31 C         -15.9684   -9.8275   18.4156 C.ar    1  UNL1        0.1374
     32 F         -15.3348  -11.0520   17.8246 F       1  UNL1       -0.2045
@<TRIPOS>BOND
     1     1     2    1
     2     2     3   ar
     3     3     4   ar
     4     4     5    1
     5     4     6   ar
     6     6     7   ar
     7     7    17    1
     8    17    18    1
     9    18    19    1
    10    19    20    1
    11    20    21    1
    12    21    22    1
    13    22    25    1
    14    25    26    1
    15    26    27   ar
    16    27    28   ar
    17    28    29   ar
    18    29    30   ar
    19    30    31   ar
    20    31    32    1
    21    22    23    1
    22    23    24    1
    23     7     8   ar
    24     8     9   ar
    25     9    10   ar
    26    10    11   ar
    27    11    12   ar
    28    12     2   ar
    29    11     6   ar
    30    24    19    1
    31    31    26   ar
    32     1    13    1
    33     1    14    1
    34     5    15    1
    35     5    16    1
@<TRIPOS>MOLECULE
*****
 32 35 0 0 0
SMALL
GASTEIGER

@<TRIPOS>ATOM
      1 N           6.9295   -5.6699   31.9812 N.pl3   1  UNL1       -0.3274
      2 C           7.0191   -5.7004   30.4842 C.ar    1  UNL1        0.2148
      3 N           6.3857   -4.6094   29.6725 N.ar    1  UNL1       -0.1994
      4 C           6.4753   -4.6399   28.1755 C.ar    1  UNL1        0.1326
      5 N           5.8419   -3.5490   27.3639 N.pl3   1  UNL1       -0.3424
      6 C           7.1982   -5.7614   27.4901 C.ar    1  UNL1        0.0829
      7 C           7.2877   -5.7919   25.9931 C.ar    1  UNL1        0.1426
      8 C           8.0106   -6.9134   25.3077 C.ar    1  UNL1        0.0371
      9 C           8.6440   -8.0043   26.1194 C.ar    1  UNL1        0.0047
     10 C           8.5544   -7.9737   27.6164 C.ar    1  UNL1        0.0195
     11 C           7.8315   -6.8523   28.3018 C.ar    1  UNL1        0.0898
     12 N           7.7420   -6.8218   29.7988 N.ar    1  UNL1       -0.2138
     13 H           6.4551   -4.9339   32.4310 H       1  UNL1        0.1452
     14 H           7.3452   -6.3859   32.5139 H       1  UNL1        0.1452
     15 H           5.3675   -2.8130   27.8138 H       1  UNL1        0.1437
     16 H           5.9007   -3.5691   26.3814 H       1  UNL1        0.1437
     17 O           6.6544   -4.7010   25.1815 O.3     1  UNL1       -0.4753
     18 C           7.2619   -4.2905   23.8729 C.3     1  UNL1        0.2054
     19 C           6.3797   -3.8623   22.7379 C.3     1  UNL1        0.0465
     20 C           4.9920   -3.3638   23.0134 C.3     1  UNL1        0.0211
     21 C           4.1098   -2.9355   21.8784 C.3     1  UNL1        0.0725
     22 N           4.6153   -3.0057   20.4679 N.3     1  UNL1       -0.2689
     23 C           6.0029   -3.5041   20.1924 C.3     1  UNL1        0.0725
     24 C           6.8852   -3.9324   21.3274 C.3     1  UNL1        0.0211
     25 C           3.7331   -2.5774   19.3329 C.3     1  UNL1        0.1014
     26 C           3.5413   -1.1186   19.0412 C.ar    1  UNL1        0.0213
     27 C           4.6344   -0.3369   18.3749 C.ar    1  UNL1       -0.0007
     28 C           4.4427    1.1219   18.0832 C.ar    1  UNL1       -0.0001
     29 C           3.1578    1.7990   18.4579 C.ar    1  UNL1        0.0023
     30 C           2.0646    1.0174   19.1243 C.ar    1  UNL1        0.0294
     31 C           2.2564   -0.4414   19.4160 C.ar    1  UNL1        0.1374
     32 F           1.1632   -1.2231   20.0823 F       1  UNL1       -0.2045
@<TRIPOS>BOND
     1     1     2    1
     2     2     3   ar
     3     3     4   ar
     4     4     5    1
     5     4     6   ar
     6     6     7   ar
     7     7    17    1
     8    17    18    1
     9    18    19    1
    10    19    20    1
    11    20    21    1
    12    21    22    1
    13    22    25    1
    14    25    26    1
    15    26    27   ar
    16    27    28   ar
    17    28    29   ar
    18    29    30   ar
    19    30    31   ar
    20    31    32    1
    21    22    23    1
    22    23    24    1
    23     7     8   ar
    24     8     9   ar
    25     9    10   ar
    26    10    11   ar
    27    11    12   ar
    28    12     2   ar
    29    11     6   ar
    30    24    19    1
    31    31    26   ar
    32     1    13    1
    33     1    14    1
    34     5    15    1
    35     5    16    1
@<TRIPOS>MOLECULE
*****
 32 35 0 0 0
SMALL
GASTEIGER

@<TRIPOS>ATOM
      1 N          -5.4918  -14.7414   24.3423 N.pl3   1  UNL1       -0.3274
      2 C          -4.7182  -15.7643   23.5643 C.ar    1  UNL1        0.2148
      3 N          -5.1414  -17.2032   23.5894 N.ar    1  UNL1       -0.1994
      4 C          -4.3679  -18.2261   22.8114 C.ar    1  UNL1        0.1326
      5 N          -4.7910  -19.6650   22.8365 N.pl3   1  UNL1       -0.3424
      6 C          -3.1712  -17.8102   22.0083 C.ar    1  UNL1        0.0829
      7 C          -2.3977  -18.8331   21.2303 C.ar    1  UNL1        0.1426
      8 C          -1.2010  -18.4172   20.4272 C.ar    1  UNL1        0.0371
      9 C          -0.7779  -16.9783   20.4021 C.ar    1  UNL1        0.0047
     10 C          -1.5514  -15.9554   21.1801 C.ar    1  UNL1        0.0195
     11 C          -2.7481  -16.3713   21.9832 C.ar    1  UNL1        0.0898
     12 N          -3.5216  -15.3484   22.7612 N.ar    1  UNL1       -0.2138
     13 H          -6.2772  -15.0143   24.8694 H       1  UNL1        0.1452
     14 H          -5.2140  -13.7970   24.3258 H       1  UNL1        0.1452
     15 H          -5.5764  -19.9380   23.3636 H       1  UNL1        0.1437
     16 H          -4.2833  -20.3363   22.3259 H       1  UNL1        0.1437
     17 O          -2.8209  -20.2720   21.2554 O.3     1  UNL1       -0.4753
     18 C          -3.5840  -20.8496   20.1005 C.3     1  UNL1        0.2054
     19 C          -5.0445  -20.5473   19.9403 C.3     1  UNL1        0.0465
     20 C          -6.0376  -21.6684   19.8566 C.3     1  UNL1        0.0211
     21 C          -7.4981  -21.3662   19.6964 C.3     1  UNL1        0.0725
     22 N          -7.9655  -19.9429   19.6199 N.3     1  UNL1       -0.2689
     23 C          -6.9724  -18.8219   19.7036 C.3     1  UNL1        0.0725
     24 C          -5.5119  -19.1241   19.8638 C.3     1  UNL1        0.0211
     25 C          -9.4259  -19.6407   19.4597 C.3     1  UNL1        0.1014
     26 C         -10.2520  -19.2755   20.6574 C.ar    1  UNL1        0.0213
     27 C         -10.0546  -20.0024   21.9545 C.ar    1  UNL1       -0.0007
     28 C         -10.8806  -19.6373   23.1521 C.ar    1  UNL1       -0.0001
     29 C         -11.9041  -18.5454   23.0526 C.ar    1  UNL1        0.0023
     30 C         -12.1016  -17.8185   21.7554 C.ar    1  UNL1        0.0294
     31 C         -11.2755  -18.1836   20.5578 C.ar    1  UNL1        0.1374
     32 F         -11.4730  -17.4567   19.2606 F       1  UNL1       -0.2045
@<TRIPOS>BOND
     1     1     2    1
     2     2     3   ar
     3     3     4   ar
     4     4     5    1
     5     4     6   ar
     6     6     7   ar
     7     7    17    1
     8    17    18    1
     9    18    19    1
    10    19    20    1
    11    20    21    1
    12    21    22    1
    13    22    25    1
    14    25    26    1
    15    26    27   ar
    16    27    28   ar
    17    28    29   ar
    18    29    30   ar
    19    30    31   ar
    20    31    32    1
    21    22    23    1
    22    23    24    1
    23     7     8   ar
    24     8     9   ar
    25     9    10   ar
    26    10    11   ar
    27    11    12   ar
    28    12     2   ar
    29    11     6   ar
    30    24    19    1
    31    31    26   ar
    32     1    13    1
    33     1    14    1
    34     5    15    1
    35     5    16    1
@<TRIPOS>MOLECULE
*****
 32 35 0 0 0
SMALL
GASTEIGER

@<TRIPOS>ATOM
      1 N           8.4957    1.7195   16.6302 N.pl3   1  UNL1       -0.3274
      2 C           7.2709    1.0271   17.1502 C.ar    1  UNL1        0.2148
      3 N           6.0129    1.8080   17.3902 N.ar    1  UNL1       -0.1994
      4 C           4.7881    1.1156   17.9103 C.ar    1  UNL1        0.1326
      5 N           3.5300    1.8964   18.1502 N.pl3   1  UNL1       -0.3424
      6 C           4.8214   -0.3577   18.1904 C.ar    1  UNL1        0.0829
      7 C           3.5966   -1.0500   18.7105 C.ar    1  UNL1        0.1426
      8 C           3.6298   -2.5232   18.9907 C.ar    1  UNL1        0.0371
      9 C           4.8879   -3.3041   18.7507 C.ar    1  UNL1        0.0047
     10 C           6.1127   -2.6117   18.2306 C.ar    1  UNL1        0.0195
     11 C           6.0794   -1.1385   17.9505 C.ar    1  UNL1        0.0898
     12 N           7.3042   -0.4461   17.4304 N.ar    1  UNL1       -0.2138
     13 H           8.4739    2.6864   16.4463 H       1  UNL1        0.1452
     14 H           9.3214    1.2070   16.4727 H       1  UNL1        0.1452
     15 H           3.5082    2.8634   17.9664 H       1  UNL1        0.1437
     16 H           2.7262    1.4420   18.4916 H       1  UNL1        0.1437
     17 O           2.3385   -0.2691   18.9505 O.3     1  UNL1       -0.4753
     18 C           1.4008   -0.6764   20.0481 C.3     1  UNL1        0.2054
     19 C           1.5183   -0.0499   21.4059 C.3     1  UNL1        0.0465
     20 C           0.5464    1.0115   21.8289 C.3     1  UNL1        0.0211
     21 C           0.6639    1.6380   23.1866 C.3     1  UNL1        0.0725
     22 N           1.7534    1.2032   24.1215 N.3     1  UNL1       -0.2689
     23 C           2.7253    0.1419   23.6986 C.3     1  UNL1        0.0725
     24 C           2.6078   -0.4847   22.3408 C.3     1  UNL1        0.0211
     25 C           1.8709    1.8297   25.4793 C.3     1  UNL1        0.1014
     26 C           1.2474    1.1629   26.6696 C.ar    1  UNL1        0.0213
     27 C           2.1092    0.4349   27.6582 C.ar    1  UNL1       -0.0007
     28 C           1.4858   -0.2320   28.8484 C.ar    1  UNL1       -0.0001
     29 C           0.0007   -0.1709   29.0500 C.ar    1  UNL1        0.0023
     30 C          -0.8610    0.5572   28.0614 C.ar    1  UNL1        0.0294
     31 C          -0.2377    1.2240   26.8712 C.ar    1  UNL1        0.1374
     32 F          -1.0994    1.9520   25.8825 F       1  UNL1       -0.2045
@<TRIPOS>BOND
     1     1     2    1
     2     2     3   ar
     3     3     4   ar
     4     4     5    1
     5     4     6   ar
     6     6     7   ar
     7     7    17    1
     8    17    18    1
     9    18    19    1
    10    19    20    1
    11    20    21    1
    12    21    22    1
    13    22    25    1
    14    25    26    1
    15    26    27   ar
    16    27    28   ar
    17    28    29   ar
    18    29    30   ar
    19    30    31   ar
    20    31    32    1
    21    22    23    1
    22    23    24    1
    23     7     8   ar
    24     8     9   ar
    25     9    10   ar
    26    10    11   ar
    27    11    12   ar
    28    12     2   ar
    29    11     6   ar
    30    24    19    1
    31    31    26   ar
    32     1    13    1
    33     1    14    1
    34     5    15    1
    35     5    16    1
@<TRIPOS>MOLECULE
*****
 32 35 0 0 0
SMALL
GASTEIGER

@<TRIPOS>ATOM
      1 N           7.9516    1.3488   16.3572 N.pl3   1  UNL1       -0.3274
      2 C           6.8043    0.6451   17.0195 C.ar    1  UNL1        0.2148
      3 N           5.5752    1.4136   17.4055 N.ar    1  UNL1       -0.1994
      4 C           4.4279    0.7100   18.0678 C.ar    1  UNL1        0.1326
      5 N           3.1989    1.4784   18.4538 N.pl3   1  UNL1       -0.3424
      6 C           4.5097   -0.7621   18.3442 C.ar    1  UNL1        0.0829
      7 C           3.3625   -1.4657   19.0066 C.ar    1  UNL1        0.1426
      8 C           3.4442   -2.9377   19.2830 C.ar    1  UNL1        0.0371
      9 C           4.6733   -3.7061   18.8970 C.ar    1  UNL1        0.0047
     10 C           5.8205   -3.0025   18.2347 C.ar    1  UNL1        0.0195
     11 C           5.7388   -1.5305   17.9583 C.ar    1  UNL1        0.0898
     12 N           6.8860   -0.8269   17.2959 N.ar    1  UNL1       -0.2138
     13 H           7.8979    2.3149   16.1758 H       1  UNL1        0.1452
     14 H           8.7582    0.8444   16.1039 H       1  UNL1        0.1452
     15 H           3.1452    2.4446   18.2723 H       1  UNL1        0.1437
     16 H           2.4459    1.0166   18.8885 H       1  UNL1        0.1437
     17 O           2.1334   -0.6972   19.3925 O.3     1  UNL1       -0.4753
     18 C           1.7250   -0.6100   20.8332 C.3     1  UNL1        0.2054
     19 C           0.9639    0.5849   21.3260 C.3     1  UNL1        0.0465
     20 C           1.1201    1.0400   22.7468 C.3     1  UNL1        0.0211
     21 C           0.3590    2.2349   23.2396 C.3     1  UNL1        0.0725
     22 N          -0.5583    2.9748   22.3116 N.3     1  UNL1       -0.2689
     23 C          -0.7145    2.5199   20.8909 C.3     1  UNL1        0.0725
     24 C           0.0467    1.3249   20.3980 C.3     1  UNL1        0.0211
     25 C          -1.3194    4.1697   22.8044 C.3     1  UNL1        0.1014
     26 C          -2.6029    3.9829   23.5580 C.ar    1  UNL1        0.0213
     27 C          -2.6277    4.1459   25.0490 C.ar    1  UNL1       -0.0007
     28 C          -3.9110    3.9591   25.8026 C.ar    1  UNL1       -0.0001
     29 C          -5.1696    3.6094   25.0653 C.ar    1  UNL1        0.0023
     30 C          -5.1448    3.4464   23.5744 C.ar    1  UNL1        0.0294
     31 C          -3.8614    3.6332   22.8208 C.ar    1  UNL1        0.1374
     32 F          -3.8366    3.4703   21.3298 F       1  UNL1       -0.2045
@<TRIPOS>BOND
     1     1     2    1
     2     2     3   ar
     3     3     4   ar
     4     4     5    1
     5     4     6   ar
     6     6     7   ar
     7     7    17    1
     8    17    18    1
     9    18    19    1
    10    19    20    1
    11    20    21    1
    12    21    22    1
    13    22    25    1
    14    25    26    1
    15    26    27   ar
    16    27    28   ar
    17    28    29   ar
    18    29    30   ar
    19    30    31   ar
    20    31    32    1
    21    22    23    1
    22    23    24    1
    23     7     8   ar
    24     8     9   ar
    25     9    10   ar
    26    10    11   ar
    27    11    12   ar
    28    12     2   ar
    29    11     6   ar
    30    24    19    1
    31    31    26   ar
    32     1    13    1
    33     1    14    1
    34     5    15    1
    35     5    16    1
@<TRIPOS>MOLECULE
*****
 32 35 0 0 0
SMALL
GASTEIGER

@<TRIPOS>ATOM
      1 N          -7.7263    3.9587   23.0978 N.pl3   1  UNL1       -0.3274
      2 C          -6.2507    3.8257   23.3324 C.ar    1  UNL1        0.2148
      3 N          -5.3257    3.5889   22.1754 N.ar    1  UNL1       -0.1994
      4 C          -3.8502    3.4559   22.4099 C.ar    1  UNL1        0.1326
      5 N          -2.9252    3.2191   21.2531 N.pl3   1  UNL1       -0.3424
      6 C          -3.2995    3.5596   23.8014 C.ar    1  UNL1        0.0829
      7 C          -1.8240    3.4266   24.0359 C.ar    1  UNL1        0.1426
      8 C          -1.2733    3.5304   25.4273 C.ar    1  UNL1        0.0371
      9 C          -2.1983    3.7671   26.5842 C.ar    1  UNL1        0.0047
     10 C          -3.6738    3.9002   26.3496 C.ar    1  UNL1        0.0195
     11 C          -4.2245    3.7964   24.9583 C.ar    1  UNL1        0.0898
     12 N          -5.7001    3.9294   24.7237 N.ar    1  UNL1       -0.2138
     13 H          -8.0877    3.8906   22.1846 H       1  UNL1        0.1452
     14 H          -8.3333    4.1141   23.8572 H       1  UNL1        0.1452
     15 H          -3.2866    3.1510   20.3398 H       1  UNL1        0.1437
     16 H          -1.9568    3.1318   21.4070 H       1  UNL1        0.1437
     17 O          -0.8990    3.1898   22.8789 O.3     1  UNL1       -0.4753
     18 C           0.1062    2.0780   22.9377 C.3     1  UNL1        0.2054
     19 C           0.8159    1.6419   21.6904 C.3     1  UNL1        0.0465
     20 C           2.0927    2.3140   21.2799 C.3     1  UNL1        0.0211
     21 C           2.8024    1.8779   20.0326 C.3     1  UNL1        0.0725
     22 N           2.2356    0.7697   19.1955 N.3     1  UNL1       -0.2689
     23 C           0.9589    0.0977   19.6059 C.3     1  UNL1        0.0725
     24 C           0.2491    0.5337   20.8533 C.3     1  UNL1        0.0211
     25 C           2.9453    0.3336   17.9482 C.3     1  UNL1        0.1014
     26 C           4.1273   -0.5854   18.0401 C.ar    1  UNL1        0.0213
     27 C           3.9611   -1.9674   18.5992 C.ar    1  UNL1       -0.0007
     28 C           5.1430   -2.8864   18.6912 C.ar    1  UNL1       -0.0001
     29 C           6.4911   -2.4234   18.2241 C.ar    1  UNL1        0.0023
     30 C           6.6573   -1.0415   17.6650 C.ar    1  UNL1        0.0294
     31 C           5.4754   -0.1225   17.5730 C.ar    1  UNL1        0.1374
     32 F           5.6416    1.2595   17.0139 F       1  UNL1       -0.2045
@<TRIPOS>BOND
     1     1     2    1
     2     2     3   ar
     3     3     4   ar
     4     4     5    1
     5     4     6   ar
     6     6     7   ar
     7     7    17    1
     8    17    18    1
     9    18    19    1
    10    19    20    1
    11    20    21    1
    12    21    22    1
    13    22    25    1
    14    25    26    1
    15    26    27   ar
    16    27    28   ar
    17    28    29   ar
    18    29    30   ar
    19    30    31   ar
    20    31    32    1
    21    22    23    1
    22    23    24    1
    23     7     8   ar
    24     8     9   ar
    25     9    10   ar
    26    10    11   ar
    27    11    12   ar
    28    12     2   ar
    29    11     6   ar
    30    24    19    1
    31    31    26   ar
    32     1    13    1
    33     1    14    1
    34     5    15    1
    35     5    16    1
@<TRIPOS>MOLECULE
*****
 32 35 0 0 0
SMALL
GASTEIGER

@<TRIPOS>ATOM
      1 N           5.2595    4.5654   17.8762 N.pl3   1  UNL1       -0.3274
      2 C           4.7084    3.2063   18.1906 C.ar    1  UNL1        0.2148
      3 N           5.3160    1.9869   17.5628 N.ar    1  UNL1       -0.1994
      4 C           4.7649    0.6277   17.8773 C.ar    1  UNL1        0.1326
      5 N           5.3725   -0.5916   17.2496 N.pl3   1  UNL1       -0.3424
      6 C           3.6060    0.4879   18.8194 C.ar    1  UNL1        0.0829
      7 C           3.0548   -0.8712   19.1338 C.ar    1  UNL1        0.1426
      8 C           1.8960   -1.0111   20.0759 C.ar    1  UNL1        0.0371
      9 C           1.2884    0.2082   20.7036 C.ar    1  UNL1        0.0047
     10 C           1.8396    1.5674   20.3892 C.ar    1  UNL1        0.0195
     11 C           2.9984    1.7072   19.4471 C.ar    1  UNL1        0.0898
     12 N           3.5496    3.0664   19.1327 N.ar    1  UNL1       -0.2138
     13 H           6.0201    4.6572   17.2578 H       1  UNL1        0.1452
     14 H           4.8607    5.3657   18.2881 H       1  UNL1        0.1452
     15 H           6.1330   -0.4998   16.6312 H       1  UNL1        0.1437
     16 H           5.0107   -1.4836   17.4560 H       1  UNL1        0.1437
     17 O           3.6625   -2.0906   18.5061 O.3     1  UNL1       -0.4753
     18 C           3.7154   -3.3803   19.2703 C.3     1  UNL1        0.2054
     19 C           4.6964   -3.5473   20.3926 C.3     1  UNL1        0.0465
     20 C           6.1437   -3.8024   20.0920 C.3     1  UNL1        0.0211
     21 C           7.1247   -3.9694   21.2143 C.3     1  UNL1        0.0725
     22 N           6.6585   -3.8814   22.6373 N.3     1  UNL1       -0.2689
     23 C           5.2113   -3.6264   22.9380 C.3     1  UNL1        0.0725
     24 C           4.2302   -3.4593   21.8156 C.3     1  UNL1        0.0211
     25 C           7.6395   -4.0484   23.7597 C.3     1  UNL1        0.1014
     26 C           7.5838   -5.2697   24.6290 C.ar    1  UNL1        0.0213
     27 C           6.9609   -5.1927   25.9913 C.ar    1  UNL1       -0.0007
     28 C           6.9052   -6.4138   26.8607 C.ar    1  UNL1       -0.0001
     29 C           7.4724   -7.7119   26.3676 C.ar    1  UNL1        0.0023
     30 C           8.0953   -7.7889   25.0052 C.ar    1  UNL1        0.0294
     31 C           8.1510   -6.5678   24.1359 C.ar    1  UNL1        0.1374
     32 F           8.7739   -6.6448   22.7735 F       1  UNL1       -0.2045
@<TRIPOS>BOND
     1     1     2    1
     2     2     3   ar
     3     3     4   ar
     4     4     5    1
     5     4     6   ar
     6     6     7   ar
     7     7    17    1
     8    17    18    1
     9    18    19    1
    10    19    20    1
    11    20    21    1
    12    21    22    1
    13    22    25    1
    14    25    26    1
    15    26    27   ar
    16    27    28   ar
    17    28    29   ar
    18    29    30   ar
    19    30    31   ar
    20    31    32    1
    21    22    23    1
    22    23    24    1
    23     7     8   ar
    24     8     9   ar
    25     9    10   ar
    26    10    11   ar
    27    11    12   ar
    28    12     2   ar
    29    11     6   ar
    30    24    19    1
    31    31    26   ar
    32     1    13    1
    33     1    14    1
    34     5    15    1
    35     5    16    1
