@<TRIPOS>MOLECULE
*****
 40 44 0 0 0
SMALL
GASTEIGER

@<TRIPOS>ATOM
      1 C           7.6831   -2.7443   21.0466 C.3     1  UNL1        0.0972
      2 C           7.4177   -1.6106   21.9923 C.3     1  UNL1        0.0431
      3 C           7.2593   -2.1833   23.3696 C.3     1  UNL1        0.0968
      4 N           7.4268   -3.6709   23.2751 N.am    1  UNL1       -0.2623
      5 C           7.3464   -4.6415   24.4160 C.2     1  UNL1        0.3073
      6 O           7.5361   -6.1085   24.1674 O.2     1  UNL1       -0.2523
      7 N           7.0764   -4.1449   25.8054 N.am    1  UNL1       -0.2626
      8 C           6.8666   -2.7145   26.2053 C.3     1  UNL1        0.0964
      9 C           6.6293   -2.6772   27.6860 C.3     1  UNL1        0.0390
     10 C           6.6924   -4.0845   28.2012 C.3     1  UNL1        0.0758
     11 C           6.9687   -4.9917   27.0389 C.3     1  UNL1        0.1106
     12 C           7.6887   -4.0177   21.8395 C.3     1  UNL1        0.1147
     13 C           6.7394   -2.3928   18.6516 C.2     1  UNL1        0.2551
     14 O           6.9604   -2.2740   17.1728 O.2     1  UNL1       -0.2694
     15 N           7.9042   -2.6255   19.5678 N.am    1  UNL1       -0.2738
     16 C           9.2898   -2.7394   19.0050 C.3     1  UNL1        0.1152
     17 C           3.2663   -1.3560   20.0401 C.ar    1  UNL1        0.0293
     18 C           3.1760   -2.8511   20.1205 C.ar    1  UNL1        0.0071
     19 C           4.4661   -3.4215   19.6102 C.ar    1  UNL1        0.0115
     20 C           5.3536   -2.2789   19.2144 C.ar    1  UNL1        0.0830
     21 S           4.6121   -1.0024   19.4801 S.2     1  UNL1       -0.0824
     22 C           0.0621    1.5569   21.2641 C.ar    1  UNL1        0.1384
     23 C           0.1739    1.1228   19.8327 C.ar    1  UNL1        0.0369
     24 C           1.2420    0.1518   19.4247 C.ar    1  UNL1        0.0033
     25 C           2.1982   -0.3850   20.4481 C.ar    1  UNL1        0.0022
     26 C           2.0864    0.0491   21.8795 C.ar    1  UNL1       -0.0183
     27 C           3.0426   -0.4877   22.9030 C.3     1  UNL1        0.0311
     28 C           1.0183    1.0201   22.2875 C.ar    1  UNL1        0.0327
     29 C          -1.8895    3.1514   20.6326 C.3     1  UNL1        0.2525
     30 O          -1.0059    2.5279   21.6721 O.3     1  UNL1       -0.4714
     31 N           6.5110   -4.5100   29.6281 N.3     1  UNL1       -0.2982
     32 H           6.9632   -5.4193   29.7240 H       1  UNL1        0.1232
     33 C           7.0319   -3.6480   30.7397 C.3     1  UNL1        0.0540
     34 C           8.4610   -3.7717   31.1781 C.3     1  UNL1        0.0157
     35 C           8.9818   -2.9097   32.2897 C.3     1  UNL1        0.0014
     36 C           8.0735   -1.9240   32.9629 C.3     1  UNL1        0.0001
     37 C           7.6050   -0.8519   33.9016 C.3     1  UNL1        0.0000
     38 C           9.3400   -1.6755   33.7273 C.3     1  UNL1        0.0000
     39 C           6.6444   -1.8003   32.5245 C.3     1  UNL1        0.0014
     40 C           6.1235   -2.6623   31.4129 C.3     1  UNL1        0.0157
@<TRIPOS>BOND
     1    29    30    1
     2    30    22    1
     3    22    23   ar
     4    23    24   ar
     5    24    25   ar
     6    25    17    1
     7    17    18   ar
     8    18    19   ar
     9    19    20   ar
    10    20    13    1
    11    13    14    2
    12    13    15   am
    13    15    16    1
    14     1    15    1
    15     1     2    1
    16     2     3    1
    17     3     4    1
    18     4     5   am
    19     5     6    2
    20     5     7   am
    21     7     8    1
    22     8     9    1
    23     9    10    1
    24    10    31    1
    25    31    33    1
    26    33    34    1
    27    34    35    1
    28    35    36    1
    29    36    37    1
    30    36    38    1
    31    36    39    1
    32    39    40    1
    33    10    11    1
    34     4    12    1
    35    20    21   ar
    36    25    26   ar
    37    26    27    1
    38    26    28   ar
    39    28    22   ar
    40    21    17   ar
    41    12     1    1
    42    11     7    1
    43    40    33    1
    44    31    32    1
@<TRIPOS>MOLECULE
*****
 40 44 0 0 0
SMALL
GASTEIGER

@<TRIPOS>ATOM
      1 C           7.7305   -3.1579   21.0173 C.3     1  UNL1        0.0972
      2 C           7.4754   -4.5905   21.3814 C.3     1  UNL1        0.0431
      3 C           7.3107   -4.6681   22.8704 C.3     1  UNL1        0.0968
      4 N           7.4640   -3.2835   23.4265 N.am    1  UNL1       -0.2623
      5 C           7.3737   -2.8996   24.8737 C.2     1  UNL1        0.3073
      6 O           7.5495   -1.4669   25.2820 O.2     1  UNL1       -0.2523
      7 N           7.1076   -3.9483   25.9126 N.am    1  UNL1       -0.2626
      8 C           6.9113   -5.4131   25.6565 C.3     1  UNL1        0.0964
      9 C           6.6735   -6.0865   26.9757 C.3     1  UNL1        0.0390
     10 C           6.7228   -5.0377   28.0470 C.3     1  UNL1        0.0758
     11 C           6.9911   -3.7162   27.3900 C.3     1  UNL1        0.1106
     12 C           7.7235   -2.3501   22.2813 C.3     1  UNL1        0.1147
     13 C           6.8105   -2.0324   18.8640 C.2     1  UNL1        0.2551
     14 O           7.0335   -1.5009   17.4792 O.2     1  UNL1       -0.2694
     15 N           7.9535   -2.6264   19.6325 N.am    1  UNL1       -0.2738
     16 C           9.3195   -2.6889   19.0161 C.3     1  UNL1        0.1152
     17 C           3.5070   -1.2049   20.7262 C.ar    1  UNL1        0.0293
     18 C           3.1774   -2.5420   20.1316 C.ar    1  UNL1        0.0071
     19 C           4.3748   -3.0148   19.3616 C.ar    1  UNL1        0.0115
     20 C           5.4444   -1.9698   19.4804 C.ar    1  UNL1        0.0830
     21 S           4.9080   -0.8513   20.3237 S.2     1  UNL1       -0.0824
     22 C           0.7725    1.3047   23.2707 C.ar    1  UNL1        0.1384
     23 C           1.9309    0.5868   23.8972 C.ar    1  UNL1        0.0369
     24 C           2.8424   -0.2497   23.0491 C.ar    1  UNL1        0.0033
     25 C           2.5955   -0.3684   21.5744 C.ar    1  UNL1        0.0022
     26 C           1.4370    0.3495   20.9478 C.ar    1  UNL1       -0.0183
     27 C           1.1901    0.2309   19.4730 C.3     1  UNL1        0.0311
     28 C           0.5256    1.1861   21.7959 C.ar    1  UNL1        0.0327
     29 C          -0.3602    1.7850   25.5590 C.3     1  UNL1        0.2525
     30 O          -0.1390    2.1413   24.1188 O.3     1  UNL1       -0.4714
     31 N           6.5366   -5.2697   29.5172 N.3     1  UNL1       -0.2982
     32 H           6.9473   -6.1797   29.7260 H       1  UNL1        0.1232
     33 C           7.1078   -4.2991   30.5079 C.3     1  UNL1        0.0540
     34 C           6.2530   -3.1938   31.0534 C.3     1  UNL1        0.0157
     35 C           6.8242   -2.2232   32.0442 C.3     1  UNL1        0.0014
     36 C           8.2502   -2.3579   32.4894 C.3     1  UNL1        0.0001
     37 C           9.5342   -2.0744   33.2112 C.3     1  UNL1        0.0000
     38 C           7.8413   -1.1541   33.2856 C.3     1  UNL1        0.0000
     39 C           9.1050   -3.4631   31.9439 C.3     1  UNL1        0.0014
     40 C           8.5338   -4.4338   30.9532 C.3     1  UNL1        0.0157
@<TRIPOS>BOND
     1    29    30    1
     2    30    22    1
     3    22    23   ar
     4    23    24   ar
     5    24    25   ar
     6    25    17    1
     7    17    18   ar
     8    18    19   ar
     9    19    20   ar
    10    20    13    1
    11    13    14    2
    12    13    15   am
    13    15    16    1
    14     1    15    1
    15     1     2    1
    16     2     3    1
    17     3     4    1
    18     4     5   am
    19     5     6    2
    20     5     7   am
    21     7     8    1
    22     8     9    1
    23     9    10    1
    24    10    31    1
    25    31    33    1
    26    33    34    1
    27    34    35    1
    28    35    36    1
    29    36    37    1
    30    36    38    1
    31    36    39    1
    32    39    40    1
    33    10    11    1
    34     4    12    1
    35    20    21   ar
    36    25    26   ar
    37    26    27    1
    38    26    28   ar
    39    28    22   ar
    40    21    17   ar
    41    12     1    1
    42    11     7    1
    43    40    33    1
    44    31    32    1
@<TRIPOS>MOLECULE
*****
 40 44 0 0 0
SMALL
GASTEIGER

@<TRIPOS>ATOM
      1 C           4.3211   -1.3554   20.1903 C.3     1  UNL1        0.0972
      2 C           3.1166   -1.6203   21.0441 C.3     1  UNL1        0.0431
      3 C           3.4189   -1.1420   22.4333 C.3     1  UNL1        0.0968
      4 N           4.8102   -0.5815   22.4381 N.am    1  UNL1       -0.2623
      5 C           5.5194    0.0075   23.6214 C.2     1  UNL1        0.3073
      6 O           6.9171    0.5315   23.4736 O.2     1  UNL1       -0.2523
      7 N           4.8308    0.0726   24.9524 N.am    1  UNL1       -0.2626
      8 C           3.4420   -0.4090   25.2510 C.3     1  UNL1        0.0964
      9 C           3.1630   -0.1485   26.7017 C.3     1  UNL1        0.0390
     10 C           4.3795    0.4941   27.2996 C.3     1  UNL1        0.0758
     11 C           5.4102    0.6307   26.2184 C.3     1  UNL1        0.1106
     12 C           5.3678   -0.7134   21.0519 C.3     1  UNL1        0.1147
     13 C           3.8864   -0.7442   17.7029 C.2     1  UNL1        0.2551
     14 O           4.0207   -1.0650   16.2438 O.2     1  UNL1       -0.2694
     15 N           4.4554   -1.6762   18.7312 N.am    1  UNL1       -0.2738
     16 C           5.1587   -2.9291   18.3004 C.3     1  UNL1        0.1152
     17 C           1.4395    2.0901   18.7253 C.ar    1  UNL1        0.0293
     18 C           2.7619    2.7834   18.8679 C.ar    1  UNL1        0.0071
     19 C           3.8395    1.8061   18.5022 C.ar    1  UNL1        0.0115
     20 C           3.1831    0.5087   18.1337 C.ar    1  UNL1        0.0830
     21 S           1.6997    0.6842   18.2715 S.2     1  UNL1       -0.0824
     22 C          -2.5996    3.9082   19.5193 C.ar    1  UNL1        0.1384
     23 C          -1.9487    4.0831   18.1793 C.ar    1  UNL1        0.0369
     24 C          -0.6024    3.4770   17.9146 C.ar    1  UNL1        0.0033
     25 C           0.0931    2.6961   18.9899 C.ar    1  UNL1        0.0022
     26 C          -0.5578    2.5213   20.3300 C.ar    1  UNL1       -0.0183
     27 C           0.1377    1.7403   21.4054 C.3     1  UNL1        0.0311
     28 C          -1.9041    3.1273   20.5947 C.ar    1  UNL1        0.0327
     29 C          -5.1518    3.6326   19.9194 C.3     1  UNL1        0.2525
     30 O          -3.9459    4.5143   19.7840 O.3     1  UNL1       -0.4714
     31 N           4.5374    0.9244   28.7278 N.3     1  UNL1       -0.2982
     32 H           3.6913    1.4373   28.9760 H       1  UNL1        0.1232
     33 C           4.7524   -0.1015   29.8008 C.3     1  UNL1        0.0540
     34 C           5.9312   -1.0262   29.7289 C.3     1  UNL1        0.0157
     35 C           6.1462   -2.0521   30.8019 C.3     1  UNL1        0.0014
     36 C           5.1824   -2.1533   31.9467 C.3     1  UNL1        0.0001
     37 C           4.5520   -2.6335   33.2203 C.3     1  UNL1        0.0000
     38 C           6.1423   -3.2448   32.3171 C.3     1  UNL1        0.0000
     39 C           4.0036   -1.2286   32.0187 C.3     1  UNL1        0.0014
     40 C           3.7885   -0.2026   30.9457 C.3     1  UNL1        0.0157
@<TRIPOS>BOND
     1    29    30    1
     2    30    22    1
     3    22    23   ar
     4    23    24   ar
     5    24    25   ar
     6    25    17    1
     7    17    18   ar
     8    18    19   ar
     9    19    20   ar
    10    20    13    1
    11    13    14    2
    12    13    15   am
    13    15    16    1
    14     1    15    1
    15     1     2    1
    16     2     3    1
    17     3     4    1
    18     4     5   am
    19     5     6    2
    20     5     7   am
    21     7     8    1
    22     8     9    1
    23     9    10    1
    24    10    31    1
    25    31    33    1
    26    33    34    1
    27    34    35    1
    28    35    36    1
    29    36    37    1
    30    36    38    1
    31    36    39    1
    32    39    40    1
    33    10    11    1
    34     4    12    1
    35    20    21   ar
    36    25    26   ar
    37    26    27    1
    38    26    28   ar
    39    28    22   ar
    40    21    17   ar
    41    12     1    1
    42    11     7    1
    43    40    33    1
    44    31    32    1
@<TRIPOS>MOLECULE
*****
 40 44 0 0 0
SMALL
GASTEIGER

@<TRIPOS>ATOM
      1 C          -0.2565    2.7384   25.1940 C.3     1  UNL1        0.0972
      2 C           1.1336    3.2143   25.4956 C.3     1  UNL1        0.0431
      3 C           1.6494    2.4283   26.6644 C.3     1  UNL1        0.0968
      4 N           0.5780    1.4665   27.0852 N.am    1  UNL1       -0.2623
      5 C           0.6685    0.4854   28.2162 C.2     1  UNL1        0.3073
      6 O          -0.4901   -0.4174   28.5206 O.2     1  UNL1       -0.2523
      7 N           1.9177    0.4070   29.0429 N.am    1  UNL1       -0.2626
      8 C           3.1508    1.2409   28.8583 C.3     1  UNL1        0.0964
      9 C           4.1484    0.8302   29.9006 C.3     1  UNL1        0.0390
     10 C           3.5317   -0.2575   30.7293 C.3     1  UNL1        0.0758
     11 C           2.1532   -0.5190   30.1992 C.3     1  UNL1        0.1106
     12 C          -0.5999    1.6581   26.1765 C.3     1  UNL1        0.1147
     13 C          -0.7417    3.0929   22.6664 C.2     1  UNL1        0.2551
     14 O          -1.6321    3.6069   21.5742 O.2     1  UNL1       -0.2694
     15 N          -1.1469    3.2524   24.1018 N.am    1  UNL1       -0.2738
     16 C          -2.4425    3.9258   24.4449 C.3     1  UNL1        0.1152
     17 C           2.1905    0.7263   21.7351 C.ar    1  UNL1        0.0293
     18 C           2.9050    2.0398   21.8551 C.ar    1  UNL1        0.0071
     19 C           1.8936    3.0862   22.2186 C.ar    1  UNL1        0.0115
     20 C           0.5540    2.4195   22.3232 C.ar    1  UNL1        0.0830
     21 S           0.7375    0.9610   22.0244 S.2     1  UNL1       -0.0824
     22 C           4.0751   -3.2242   20.6905 C.ar    1  UNL1        0.1384
     23 C           3.4017   -2.4097   19.6260 C.ar    1  UNL1        0.0369
     24 C           2.7735   -1.0929   19.9742 C.ar    1  UNL1        0.0033
     25 C           2.8187   -0.5905   21.3869 C.ar    1  UNL1        0.0022
     26 C           3.4921   -1.4050   22.4513 C.ar    1  UNL1       -0.0183
     27 C           3.5373   -0.9027   23.8640 C.3     1  UNL1        0.0311
     28 C           4.1203   -2.7219   22.1031 C.ar    1  UNL1        0.0327
     29 C           4.6182   -5.0650   18.9394 C.3     1  UNL1        0.2525
     30 O           4.7033   -4.5411   20.3423 O.3     1  UNL1       -0.4714
     31 N           4.1800   -0.9602   31.8852 N.3     1  UNL1       -0.2982
     32 H           5.1594   -1.0966   31.6351 H       1  UNL1        0.1232
     33 C           4.1643   -0.3338   33.2480 C.3     1  UNL1        0.0540
     34 C           4.8117   -1.0369   34.4041 C.3     1  UNL1        0.0157
     35 C           4.7960   -0.4105   35.7669 C.3     1  UNL1        0.0014
     36 C           4.1329    0.9189   35.9738 C.3     1  UNL1        0.0001
     37 C           3.6344    2.1530   36.6656 C.3     1  UNL1        0.0000
     38 C           4.6073    0.6444   37.3700 C.3     1  UNL1        0.0000
     39 C           3.4854    1.6219   34.8178 C.3     1  UNL1        0.0014
     40 C           3.5011    0.9956   33.4548 C.3     1  UNL1        0.0157
@<TRIPOS>BOND
     1    29    30    1
     2    30    22    1
     3    22    23   ar
     4    23    24   ar
     5    24    25   ar
     6    25    17    1
     7    17    18   ar
     8    18    19   ar
     9    19    20   ar
    10    20    13    1
    11    13    14    2
    12    13    15   am
    13    15    16    1
    14     1    15    1
    15     1     2    1
    16     2     3    1
    17     3     4    1
    18     4     5   am
    19     5     6    2
    20     5     7   am
    21     7     8    1
    22     8     9    1
    23     9    10    1
    24    10    31    1
    25    31    33    1
    26    33    34    1
    27    34    35    1
    28    35    36    1
    29    36    37    1
    30    36    38    1
    31    36    39    1
    32    39    40    1
    33    10    11    1
    34     4    12    1
    35    20    21   ar
    36    25    26   ar
    37    26    27    1
    38    26    28   ar
    39    28    22   ar
    40    21    17   ar
    41    12     1    1
    42    11     7    1
    43    40    33    1
    44    31    32    1
@<TRIPOS>MOLECULE
*****
 40 44 0 0 0
SMALL
GASTEIGER

@<TRIPOS>ATOM
      1 C           0.8263    3.3565   22.9411 C.3     1  UNL1        0.0972
      2 C          -0.3802    2.9256   23.7211 C.3     1  UNL1        0.0431
      3 C           0.0943    2.2246   24.9594 C.3     1  UNL1        0.0968
      4 N           1.5942    2.2221   24.9447 N.am    1  UNL1       -0.2623
      5 C           2.4853    1.6250   25.9932 C.2     1  UNL1        0.3073
      6 O           3.9758    1.6996   25.8419 O.2     1  UNL1       -0.2523
      7 N           1.8859    0.9533   27.1930 N.am    1  UNL1       -0.2626
      8 C           0.4212    0.8026   27.4790 C.3     1  UNL1        0.0964
      9 C           0.2760    0.0705   28.7802 C.3     1  UNL1        0.0390
     10 C           1.6510   -0.2312   29.2983 C.3     1  UNL1        0.0758
     11 C           2.6460    0.3144   28.3173 C.3     1  UNL1        0.1106
     12 C           2.0467    2.9217   23.6973 C.3     1  UNL1        0.1147
     13 C           1.0032    3.3428   20.3491 C.2     1  UNL1        0.2551
     14 O           0.9915    4.0791   19.0423 O.2     1  UNL1       -0.2694
     15 N           0.8147    4.0929   21.6343 N.am    1  UNL1       -0.2738
     16 C           0.6146    5.5792   21.6128 C.3     1  UNL1        0.1152
     17 C           2.2546   -0.3309   20.4103 C.ar    1  UNL1        0.0293
     18 C           0.7681   -0.5312   20.3969 C.ar    1  UNL1        0.0071
     19 C           0.1183    0.8206   20.3724 C.ar    1  UNL1        0.0115
     20 C           1.2033    1.8564   20.3706 C.ar    1  UNL1        0.0830
     21 S           2.5235    1.1447   20.3940 S.2     1  UNL1       -0.0824
     22 C           5.3616   -3.5852   20.4860 C.ar    1  UNL1        0.1384
     23 C           4.7632   -3.1498   19.1813 C.ar    1  UNL1        0.0369
     24 C           3.7275   -2.0650   19.1561 C.ar    1  UNL1        0.0033
     25 C           3.2902   -1.4157   20.4356 C.ar    1  UNL1        0.0022
     26 C           3.8886   -1.8511   21.7403 C.ar    1  UNL1       -0.0183
     27 C           3.4512   -1.2018   23.0198 C.3     1  UNL1        0.0311
     28 C           4.9242   -2.9359   21.7655 C.ar    1  UNL1        0.0327
     29 C           7.7864   -4.3696   20.9907 C.3     1  UNL1        0.2525
     30 O           6.3972   -4.6700   20.5113 O.3     1  UNL1       -0.4714
     31 N           1.9742   -0.9520   30.5734 N.3     1  UNL1       -0.2982
     32 H           2.2383   -1.9028   30.3154 H       1  UNL1        0.1232
     33 C           3.0540   -0.4324   31.4756 C.3     1  UNL1        0.0540
     34 C           4.2201   -1.3066   31.8304 C.3     1  UNL1        0.0157
     35 C           5.2999   -0.7870   32.7326 C.3     1  UNL1        0.0014
     36 C           5.2135    0.6068   33.2801 C.3     1  UNL1        0.0001
     37 C           5.5759    1.8466   34.0429 C.3     1  UNL1        0.0000
     38 C           6.5055    0.1631   33.8997 C.3     1  UNL1        0.0000
     39 C           4.0475    1.4810   32.9254 C.3     1  UNL1        0.0014
     40 C           2.9676    0.9614   32.0232 C.3     1  UNL1        0.0157
@<TRIPOS>BOND
     1    29    30    1
     2    30    22    1
     3    22    23   ar
     4    23    24   ar
     5    24    25   ar
     6    25    17    1
     7    17    18   ar
     8    18    19   ar
     9    19    20   ar
    10    20    13    1
    11    13    14    2
    12    13    15   am
    13    15    16    1
    14     1    15    1
    15     1     2    1
    16     2     3    1
    17     3     4    1
    18     4     5   am
    19     5     6    2
    20     5     7   am
    21     7     8    1
    22     8     9    1
    23     9    10    1
    24    10    31    1
    25    31    33    1
    26    33    34    1
    27    34    35    1
    28    35    36    1
    29    36    37    1
    30    36    38    1
    31    36    39    1
    32    39    40    1
    33    10    11    1
    34     4    12    1
    35    20    21   ar
    36    25    26   ar
    37    26    27    1
    38    26    28   ar
    39    28    22   ar
    40    21    17   ar
    41    12     1    1
    42    11     7    1
    43    40    33    1
    44    31    32    1
@<TRIPOS>MOLECULE
*****
 40 44 0 0 0
SMALL
GASTEIGER

@<TRIPOS>ATOM
      1 C           1.1100    3.7755   22.1129 C.3     1  UNL1        0.0972
      2 C           2.4132    3.6014   22.8350 C.3     1  UNL1        0.0431
      3 C           2.1125    3.1310   24.2273 C.3     1  UNL1        0.0968
      4 N           0.6235    3.0143   24.3656 N.am    1  UNL1       -0.2623
      5 C          -0.1161    2.5762   25.5949 C.2     1  UNL1        0.3073
      6 O          -1.6145    2.5079   25.5841 O.2     1  UNL1       -0.2523
      7 N           0.6427    2.2065   26.8348 N.am    1  UNL1       -0.2626
      8 C           2.1340    2.2257   26.9944 C.3     1  UNL1        0.0964
      9 C           2.4564    1.7836   28.3912 C.3     1  UNL1        0.0390
     10 C           1.1642    1.4913   29.0947 C.3     1  UNL1        0.0758
     11 C           0.0433    1.7526   28.1328 C.3     1  UNL1        0.1106
     12 C           0.0039    3.4126   23.0589 C.3     1  UNL1        0.1147
     13 C           0.9896    3.2349   19.5746 C.2     1  UNL1        0.2551
     14 O           0.8220    3.6916   18.1557 O.2     1  UNL1       -0.2694
     15 N           0.9424    4.2322   20.6940 N.am    1  UNL1       -0.2738
     16 C           0.7275    5.6861   20.3945 C.3     1  UNL1        0.1152
     17 C           2.2689   -0.3756   20.2021 C.ar    1  UNL1        0.0293
     18 C           0.8015   -0.5378   20.4674 C.ar    1  UNL1        0.0071
     19 C           0.1436    0.7949   20.2646 C.ar    1  UNL1        0.0115
     20 C           1.2045    1.7808   19.8740 C.ar    1  UNL1        0.0830
     21 S           2.5179    1.0574   19.8354 S.2     1  UNL1       -0.0824
     22 C           5.3780   -3.6184   20.4611 C.ar    1  UNL1        0.1384
     23 C           4.7978   -3.2402   19.1306 C.ar    1  UNL1        0.0369
     24 C           3.7614   -2.1593   19.0443 C.ar    1  UNL1        0.0033
     25 C           3.3053   -1.4565   20.2884 C.ar    1  UNL1        0.0022
     26 C           3.8855   -1.8347   21.6189 C.ar    1  UNL1       -0.0183
     27 C           3.4293   -1.1320   22.8632 C.3     1  UNL1        0.0311
     28 C           4.9219   -2.9157   21.7052 C.ar    1  UNL1        0.0327
     29 C           7.8162   -4.3631   20.9618 C.3     1  UNL1        0.2525
     30 O           6.4144   -4.6994   20.5474 O.3     1  UNL1       -0.4714
     31 N           1.0187    1.0203   30.5114 N.3     1  UNL1       -0.2982
     32 H           1.7355    0.3102   30.6607 H       1  UNL1        0.1232
     33 C           1.1356    1.9983   31.6426 C.3     1  UNL1        0.0540
     34 C           2.0384    1.6990   32.8025 C.3     1  UNL1        0.0157
     35 C           2.1554    2.6771   33.9338 C.3     1  UNL1        0.0014
     36 C           1.3695    3.9544   33.9051 C.3     1  UNL1        0.0001
     37 C           0.8324    5.2887   34.3307 C.3     1  UNL1        0.0000
     38 C           2.0858    4.1184   35.2128 C.3     1  UNL1        0.0000
     39 C           0.4667    4.2537   32.7453 C.3     1  UNL1        0.0014
     40 C           0.3498    3.2756   31.6140 C.3     1  UNL1        0.0157
@<TRIPOS>BOND
     1    29    30    1
     2    30    22    1
     3    22    23   ar
     4    23    24   ar
     5    24    25   ar
     6    25    17    1
     7    17    18   ar
     8    18    19   ar
     9    19    20   ar
    10    20    13    1
    11    13    14    2
    12    13    15   am
    13    15    16    1
    14     1    15    1
    15     1     2    1
    16     2     3    1
    17     3     4    1
    18     4     5   am
    19     5     6    2
    20     5     7   am
    21     7     8    1
    22     8     9    1
    23     9    10    1
    24    10    31    1
    25    31    33    1
    26    33    34    1
    27    34    35    1
    28    35    36    1
    29    36    37    1
    30    36    38    1
    31    36    39    1
    32    39    40    1
    33    10    11    1
    34     4    12    1
    35    20    21   ar
    36    25    26   ar
    37    26    27    1
    38    26    28   ar
    39    28    22   ar
    40    21    17   ar
    41    12     1    1
    42    11     7    1
    43    40    33    1
    44    31    32    1
@<TRIPOS>MOLECULE
*****
 40 44 0 0 0
SMALL
GASTEIGER

@<TRIPOS>ATOM
      1 C          -0.4456    2.9486   25.5950 C.3     1  UNL1        0.0972
      2 C           0.8896    3.5723   25.8748 C.3     1  UNL1        0.0431
      3 C           1.5666    2.7605   26.9391 C.3     1  UNL1        0.0968
      4 N           0.6498    1.6351   27.3170 N.am    1  UNL1       -0.2623
      5 C           0.9278    0.5788   28.3452 C.2     1  UNL1        0.3073
      6 O          -0.0895   -0.4895   28.6170 O.2     1  UNL1       -0.2523
      7 N           2.2231    0.5909   29.1016 N.am    1  UNL1       -0.2626
      8 C           3.3297    1.5904   28.9389 C.3     1  UNL1        0.0964
      9 C           4.4297    1.2228   29.8903 C.3     1  UNL1        0.0390
     10 C           4.0029   -0.0038   30.6408 C.3     1  UNL1        0.0758
     11 C           2.6391   -0.3943   30.1533 C.3     1  UNL1        0.1106
     12 C          -0.5938    1.7512   26.4864 C.3     1  UNL1        0.1147
     13 C          -1.1673    3.3389   23.1298 C.2     1  UNL1        0.2551
     14 O          -2.1770    3.8268   22.1336 O.2     1  UNL1       -0.2694
     15 N          -1.4553    3.4364   24.5987 N.am    1  UNL1       -0.2738
     16 C          -2.7529    4.0218   25.0713 C.3     1  UNL1        0.1152
     17 C           1.8191    1.1689   21.9307 C.ar    1  UNL1        0.0293
     18 C           2.4354    2.5365   21.9290 C.ar    1  UNL1        0.0071
     19 C           1.3917    3.5158   22.3779 C.ar    1  UNL1        0.0115
     20 C           0.1304    2.7535   22.6572 C.ar    1  UNL1        0.0830
     21 S           0.3945    1.3031   22.3808 S.2     1  UNL1       -0.0824
     22 C           3.8819   -2.6634   20.7867 C.ar    1  UNL1        0.1384
     23 C           3.9125   -2.1911   22.2100 C.ar    1  UNL1        0.0369
     24 C           3.2249   -0.9137   22.5914 C.ar    1  UNL1        0.0033
     25 C           2.5067   -0.1085   21.5494 C.ar    1  UNL1        0.0022
     26 C           2.4760   -0.5808   20.1260 C.ar    1  UNL1       -0.0183
     27 C           1.7578    0.2244   19.0839 C.3     1  UNL1        0.0311
     28 C           3.1636   -1.8582   19.7447 C.ar    1  UNL1        0.0327
     29 C           3.9350   -4.8656   19.4093 C.3     1  UNL1        0.2525
     30 O           4.5694   -3.9408   20.4053 O.3     1  UNL1       -0.4714
     31 N           4.7999   -0.7150   31.6938 N.3     1  UNL1       -0.2982
     32 H           4.1559   -0.9311   32.4547 H       1  UNL1        0.1232
     33 C           5.5174   -1.9889   31.3587 C.3     1  UNL1        0.0540
     34 C           5.9291   -2.2679   29.9436 C.3     1  UNL1        0.0157
     35 C           6.6466   -3.5418   29.6084 C.3     1  UNL1        0.0014
     36 C           6.9523   -4.5368   30.6885 C.3     1  UNL1        0.0001
     37 C           7.4626   -5.7784   31.3577 C.3     1  UNL1        0.0000
     38 C           7.5412   -5.2469   29.5057 C.3     1  UNL1        0.0000
     39 C           6.5406   -4.2579   32.1036 C.3     1  UNL1        0.0014
     40 C           5.8231   -2.9839   32.4388 C.3     1  UNL1        0.0157
@<TRIPOS>BOND
     1    29    30    1
     2    30    22    1
     3    22    23   ar
     4    23    24   ar
     5    24    25   ar
     6    25    17    1
     7    17    18   ar
     8    18    19   ar
     9    19    20   ar
    10    20    13    1
    11    13    14    2
    12    13    15   am
    13    15    16    1
    14     1    15    1
    15     1     2    1
    16     2     3    1
    17     3     4    1
    18     4     5   am
    19     5     6    2
    20     5     7   am
    21     7     8    1
    22     8     9    1
    23     9    10    1
    24    10    31    1
    25    31    33    1
    26    33    34    1
    27    34    35    1
    28    35    36    1
    29    36    37    1
    30    36    38    1
    31    36    39    1
    32    39    40    1
    33    10    11    1
    34     4    12    1
    35    20    21   ar
    36    25    26   ar
    37    26    27    1
    38    26    28   ar
    39    28    22   ar
    40    21    17   ar
    41    12     1    1
    42    11     7    1
    43    40    33    1
    44    31    32    1
@<TRIPOS>MOLECULE
*****
 40 44 0 0 0
SMALL
GASTEIGER

@<TRIPOS>ATOM
      1 C           4.0860   -1.6662   19.6257 C.3     1  UNL1        0.0972
      2 C           4.5611   -0.4583   18.8739 C.3     1  UNL1        0.0431
      3 C           3.4520    0.5516   18.8707 C.3     1  UNL1        0.0968
      4 N           2.2915   -0.0321   19.6206 N.am    1  UNL1       -0.2623
      5 C           0.9709    0.6373   19.8615 C.2     1  UNL1        0.3073
      6 O          -0.1008   -0.0741   20.6332 O.2     1  UNL1       -0.2523
      7 N           0.7221    2.0180   19.3309 N.am    1  UNL1       -0.2626
      8 C           1.6933    2.8492   18.5460 C.3     1  UNL1        0.0964
      9 C           1.0298    4.1549   18.2220 C.3     1  UNL1        0.0390
     10 C          -0.3514    4.1307   18.8066 C.3     1  UNL1        0.0758
     11 C          -0.5416    2.8100   19.4919 C.3     1  UNL1        0.1106
     12 C           2.6833   -1.4028   20.0872 C.3     1  UNL1        0.1147
     13 C           5.5122   -3.1509   21.2106 C.2     1  UNL1        0.2551
     14 O           6.3012   -4.4024   21.4576 O.2     1  UNL1       -0.2694
     15 N           4.8751   -2.9177   19.8727 N.am    1  UNL1       -0.2738
     16 C           5.0271   -3.9360   18.7820 C.3     1  UNL1        0.1152
     17 C           4.5443   -0.9491   24.2570 C.ar    1  UNL1        0.0293
     18 C           5.7082   -0.1821   23.7031 C.ar    1  UNL1        0.0071
     19 C           6.2125   -0.9135   22.4945 C.ar    1  UNL1        0.0115
     20 C           5.3602   -2.1326   22.3014 C.ar    1  UNL1        0.0830
     21 S           4.3292   -2.1546   23.3907 S.2     1  UNL1       -0.0824
     22 C           2.1228    0.1697   27.8812 C.ar    1  UNL1        0.1384
     23 C           3.1533   -0.9164   27.9737 C.ar    1  UNL1        0.0369
     24 C           3.9604   -1.2893   26.7657 C.ar    1  UNL1        0.0033
     25 C           3.7371   -0.5762   25.4651 C.ar    1  UNL1        0.0022
     26 C           2.7067    0.5098   25.3726 C.ar    1  UNL1       -0.0183
     27 C           2.4833    1.2230   24.0720 C.3     1  UNL1        0.0311
     28 C           1.8995    0.8828   26.5807 C.ar    1  UNL1        0.0327
     29 C          -0.1594    0.7825   28.9609 C.3     1  UNL1        0.2525
     30 O           1.3157    0.5426   29.0893 O.3     1  UNL1       -0.4714
     31 N          -1.3645    5.2335   18.7209 N.3     1  UNL1       -0.2982
     32 H          -1.2879    5.6316   17.7849 H       1  UNL1        0.1232
     33 C          -2.8172    4.9367   18.9476 C.3     1  UNL1        0.0540
     34 C          -3.5128    5.4778   20.1614 C.3     1  UNL1        0.0157
     35 C          -4.9655    5.1810   20.3882 C.3     1  UNL1        0.0014
     36 C          -5.7227    4.3430   19.4011 C.3     1  UNL1        0.0001
     37 C          -6.8585    3.6037   18.7580 C.3     1  UNL1        0.0000
     38 C          -6.8127    4.6274   20.3916 C.3     1  UNL1        0.0000
     39 C          -5.0272    3.8018   18.1873 C.3     1  UNL1        0.0014
     40 C          -3.5744    4.0986   17.9605 C.3     1  UNL1        0.0157
@<TRIPOS>BOND
     1    29    30    1
     2    30    22    1
     3    22    23   ar
     4    23    24   ar
     5    24    25   ar
     6    25    17    1
     7    17    18   ar
     8    18    19   ar
     9    19    20   ar
    10    20    13    1
    11    13    14    2
    12    13    15   am
    13    15    16    1
    14     1    15    1
    15     1     2    1
    16     2     3    1
    17     3     4    1
    18     4     5   am
    19     5     6    2
    20     5     7   am
    21     7     8    1
    22     8     9    1
    23     9    10    1
    24    10    31    1
    25    31    33    1
    26    33    34    1
    27    34    35    1
    28    35    36    1
    29    36    37    1
    30    36    38    1
    31    36    39    1
    32    39    40    1
    33    10    11    1
    34     4    12    1
    35    20    21   ar
    36    25    26   ar
    37    26    27    1
    38    26    28   ar
    39    28    22   ar
    40    21    17   ar
    41    12     1    1
    42    11     7    1
    43    40    33    1
    44    31    32    1
@<TRIPOS>MOLECULE
*****
 40 44 0 0 0
SMALL
GASTEIGER

@<TRIPOS>ATOM
      1 C           3.2154    1.8864   32.6676 C.3     1  UNL1        0.0972
      2 C           3.9533    2.7896   31.7244 C.3     1  UNL1        0.0431
      3 C           3.3910    2.5829   30.3492 C.3     1  UNL1        0.0968
      4 N           2.3056    1.5518   30.4425 N.am    1  UNL1       -0.2623
      5 C           1.4746    1.0409   29.3030 C.2     1  UNL1        0.3073
      6 O           0.4200    0.0032   29.5501 O.2     1  UNL1       -0.2523
      7 N           1.6981    1.5677   27.9165 N.am    1  UNL1       -0.2626
      8 C           2.7103    2.6007   27.5184 C.3     1  UNL1        0.0964
      9 C           2.5865    2.8255   26.0404 C.3     1  UNL1        0.0390
     10 C           1.4979    1.9314   25.5252 C.3     1  UNL1        0.0758
     11 C           0.9488    1.1540   26.6846 C.3     1  UNL1        0.1106
     12 C           2.1970    1.1213   31.8752 C.3     1  UNL1        0.1147
     13 C           4.6042    0.9530   34.6550 C.2     1  UNL1        0.2551
     14 O           4.8427    0.8354   36.1312 O.2     1  UNL1       -0.2694
     15 N           3.4539    1.7688   34.1438 N.am    1  UNL1       -0.2738
     16 C           2.5422    2.4669   35.1088 C.3     1  UNL1        0.1152
     17 C           6.4408   -1.3963   32.1705 C.ar    1  UNL1        0.0293
     18 C           7.3972   -0.2428   32.2396 C.ar    1  UNL1        0.0071
     19 C           6.8257    0.7776   33.1787 C.ar    1  UNL1        0.0115
     20 C           5.5160    0.2548   33.6900 C.ar    1  UNL1        0.0830
     21 S           5.2782   -1.0887   33.0669 S.2     1  UNL1       -0.0824
     22 C           6.9673   -5.1248   29.7065 C.ar    1  UNL1        0.1384
     23 C           7.1489   -5.1773   31.1945 C.ar    1  UNL1        0.0369
     24 C           6.9734   -3.9345   32.0159 C.ar    1  UNL1        0.0033
     25 C           6.6163   -2.6392   31.3492 C.ar    1  UNL1        0.0022
     26 C           6.4347   -2.5867   29.8612 C.ar    1  UNL1       -0.0183
     27 C           6.0776   -1.2913   29.1944 C.3     1  UNL1        0.0311
     28 C           6.6102   -3.8295   29.0398 C.ar    1  UNL1        0.0327
     29 C           8.4097   -6.5827   28.1116 C.3     1  UNL1        0.2525
     30 O           7.1427   -6.3677   28.8852 O.3     1  UNL1       -0.4714
     31 N           1.0389    1.8321   24.1006 N.3     1  UNL1       -0.2982
     32 H           1.1919    2.7475   23.6775 H       1  UNL1        0.1232
     33 C           1.6586    0.8213   23.1818 C.3     1  UNL1        0.0540
     34 C           2.7209   -0.1058   23.6936 C.3     1  UNL1        0.0157
     35 C           3.3405   -1.1166   22.7748 C.3     1  UNL1        0.0014
     36 C           2.8979   -1.2003   21.3440 C.3     1  UNL1        0.0001
     37 C           2.8141   -1.6617   19.9192 C.3     1  UNL1        0.0000
     38 C           3.9311   -2.2876   21.3612 C.3     1  UNL1        0.0000
     39 C           1.8357   -0.2733   20.8322 C.3     1  UNL1        0.0014
     40 C           1.2159    0.7376   21.7510 C.3     1  UNL1        0.0157
@<TRIPOS>BOND
     1    29    30    1
     2    30    22    1
     3    22    23   ar
     4    23    24   ar
     5    24    25   ar
     6    25    17    1
     7    17    18   ar
     8    18    19   ar
     9    19    20   ar
    10    20    13    1
    11    13    14    2
    12    13    15   am
    13    15    16    1
    14     1    15    1
    15     1     2    1
    16     2     3    1
    17     3     4    1
    18     4     5   am
    19     5     6    2
    20     5     7   am
    21     7     8    1
    22     8     9    1
    23     9    10    1
    24    10    31    1
    25    31    33    1
    26    33    34    1
    27    34    35    1
    28    35    36    1
    29    36    37    1
    30    36    38    1
    31    36    39    1
    32    39    40    1
    33    10    11    1
    34     4    12    1
    35    20    21   ar
    36    25    26   ar
    37    26    27    1
    38    26    28   ar
    39    28    22   ar
    40    21    17   ar
    41    12     1    1
    42    11     7    1
    43    40    33    1
    44    31    32    1
