@<TRIPOS>MOLECULE
*****
 25 27 0 0 0
SMALL
GASTEIGER

@<TRIPOS>ATOM
      1 C          -8.5461  -17.6372   21.9818 C.ar    1  UNL1        0.1655
      2 N          -9.6548  -17.3959   21.0007 N.ar    1  UNL1       -0.2239
      3 C         -10.9576  -17.6263   21.7076 C.ar    1  UNL1        0.0892
      4 C         -12.3811  -17.5363   21.2432 C.ar    1  UNL1        0.0196
      5 C         -13.5010  -17.8300   22.1969 C.ar    1  UNL1        0.0054
      6 C         -13.1974  -18.2136   23.6149 C.ar    1  UNL1        0.0720
      7 C         -11.7740  -18.3036   24.0792 C.ar    1  UNL1        0.0119
      8 C         -10.6541  -18.0100   23.1255 C.ar    1  UNL1        0.0497
      9 S          -9.1637  -18.0167   23.2950 S.2     1  UNL1       -0.0514
     10 C          -6.2818  -18.7408   21.3456 C.2     1  UNL1        0.2270
     11 O          -6.9543  -20.0797   21.2745 O.2     1  UNL1       -0.2747
     12 N          -7.0777  -17.5196   21.6992 N.am    1  UNL1       -0.2641
     13 H          -6.6362  -16.6408   21.7459 H       1  UNL1        0.1567
     14 C          -1.3931  -18.2949   23.0489 C.3     1  UNL1        0.0000
     15 C          -2.3690  -18.4002   21.9147 C.3     1  UNL1        0.0005
     16 C          -1.8764  -18.3880   20.4980 C.3     1  UNL1        0.0000
     17 C          -2.8524  -18.4934   19.3637 C.3     1  UNL1        0.0005
     18 C          -2.3598  -18.4811   17.9470 C.3     1  UNL1        0.0000
     19 C          -4.3208  -18.6110   19.6462 C.3     1  UNL1        0.0091
     20 C          -4.8133  -18.6232   21.0631 C.3     1  UNL1        0.0769
     21 C          -3.8374  -18.5178   22.1973 C.3     1  UNL1        0.0091
     22 C         -14.3174  -18.5073   24.5686 C.3     1  UNL1        0.4186
     23 F         -15.4374  -18.8010   25.5222 F       1  UNL1       -0.1659
     24 F         -13.3580  -18.4309   25.7190 F       1  UNL1       -0.1659
     25 F         -15.2769  -18.5837   23.4182 F       1  UNL1       -0.1659
@<TRIPOS>BOND
     1    14    15    1
     2    15    16    1
     3    16    17    1
     4    17    18    1
     5    17    19    1
     6    19    20    1
     7    20    10    1
     8    10    11    2
     9    10    12   am
    10    12     1    1
    11     1     2   ar
    12     2     3   ar
    13     3     4   ar
    14     4     5   ar
    15     5     6   ar
    16     6    22    1
    17    22    23    1
    18    22    24    1
    19    22    25    1
    20     6     7   ar
    21     7     8   ar
    22     8     9   ar
    23    20    21    1
    24    21    15    1
    25     9     1   ar
    26     8     3   ar
    27    12    13    1
@<TRIPOS>MOLECULE
*****
 25 27 0 0 0
SMALL
GASTEIGER

@<TRIPOS>ATOM
      1 C          -8.5638  -17.6371   21.9904 C.ar    1  UNL1        0.1655
      2 N          -9.6775  -17.4040   21.0131 N.ar    1  UNL1       -0.2239
      3 C         -10.9765  -17.6345   21.7269 C.ar    1  UNL1        0.0892
      4 C         -12.4023  -17.5509   21.2685 C.ar    1  UNL1        0.0196
      5 C         -13.5171  -17.8429   22.2286 C.ar    1  UNL1        0.0054
      6 C         -13.2062  -18.2185   23.6472 C.ar    1  UNL1        0.0720
      7 C         -11.7804  -18.3021   24.1056 C.ar    1  UNL1        0.0119
      8 C         -10.6656  -18.0101   23.1455 C.ar    1  UNL1        0.0497
      9 S          -9.1744  -18.0117   23.3083 S.2     1  UNL1       -0.0514
     10 C          -6.2922  -18.7421   21.3831 C.2     1  UNL1        0.2270
     11 O          -6.9543  -20.0878   21.3551 O.2     1  UNL1       -0.2747
     12 N          -7.0969  -17.5168   21.7008 N.am    1  UNL1       -0.2641
     13 H          -6.6624  -16.6336   21.7192 H       1  UNL1        0.1567
     14 C          -2.3866  -18.4827   17.9657 C.3     1  UNL1        0.0000
     15 C          -2.8726  -18.4921   19.3847 C.3     1  UNL1        0.0005
     16 C          -1.8917  -18.3811   20.5141 C.3     1  UNL1        0.0000
     17 C          -2.3776  -18.3905   21.9332 C.3     1  UNL1        0.0005
     18 C          -1.3968  -18.2795   23.0626 C.3     1  UNL1        0.0000
     19 C          -3.8445  -18.5108   22.2229 C.3     1  UNL1        0.0091
     20 C          -4.8254  -18.6218   21.0934 C.3     1  UNL1        0.0769
     21 C          -4.3394  -18.6124   19.6744 C.3     1  UNL1        0.0091
     22 C         -14.3211  -18.5105   24.6073 C.3     1  UNL1        0.4186
     23 F         -15.4359  -18.8025   25.5673 F       1  UNL1       -0.1659
     24 F         -13.3503  -18.4608   25.7497 F       1  UNL1       -0.1659
     25 F         -15.2918  -18.5601   23.4649 F       1  UNL1       -0.1659
@<TRIPOS>BOND
     1    14    15    1
     2    15    16    1
     3    16    17    1
     4    17    18    1
     5    17    19    1
     6    19    20    1
     7    20    10    1
     8    10    11    2
     9    10    12   am
    10    12     1    1
    11     1     2   ar
    12     2     3   ar
    13     3     4   ar
    14     4     5   ar
    15     5     6   ar
    16     6    22    1
    17    22    23    1
    18    22    24    1
    19    22    25    1
    20     6     7   ar
    21     7     8   ar
    22     8     9   ar
    23    20    21    1
    24    21    15    1
    25     9     1   ar
    26     8     3   ar
    27    12    13    1
@<TRIPOS>MOLECULE
*****
 25 27 0 0 0
SMALL
GASTEIGER

@<TRIPOS>ATOM
      1 C           6.7113   -3.9910   22.7503 C.ar    1  UNL1        0.1655
      2 N           7.5722   -5.1148   22.2545 N.ar    1  UNL1       -0.2239
      3 C           8.0061   -5.9244   23.4404 C.ar    1  UNL1        0.0892
      4 C           8.8643   -7.1487   23.5601 C.ar    1  UNL1        0.0196
      5 C           9.1297   -7.7495   24.9086 C.ar    1  UNL1        0.0054
      6 C           8.5369   -7.1261   26.1374 C.ar    1  UNL1        0.0720
      7 C           7.6786   -5.9018   26.0176 C.ar    1  UNL1        0.0119
      8 C           7.4132   -5.3009   24.6691 C.ar    1  UNL1        0.0497
      9 S           6.6130   -4.1061   24.2426 S.2     1  UNL1       -0.0514
     10 C           4.8487   -3.2725   21.0876 C.2     1  UNL1        0.2270
     11 O           4.2835   -4.6616   21.1204 O.2     1  UNL1       -0.2747
     12 N           6.0625   -2.9372   21.9025 N.am    1  UNL1       -0.2641
     13 H           6.4334   -2.0255   21.8810 H       1  UNL1        0.1567
     14 C           4.9731   -0.0983   16.9756 C.3     1  UNL1        0.0000
     15 C           4.2621   -0.6316   18.1839 C.3     1  UNL1        0.0005
     16 C           2.9024   -0.1111   18.5445 C.3     1  UNL1        0.0000
     17 C           2.1913   -0.6443   19.7529 C.3     1  UNL1        0.0005
     18 C           0.8316   -0.1238   20.1135 C.3     1  UNL1        0.0000
     19 C           2.8401   -1.6981   20.6006 C.3     1  UNL1        0.0091
     20 C           4.1999   -2.2187   20.2399 C.3     1  UNL1        0.0769
     21 C           4.9109   -1.6854   19.0316 C.3     1  UNL1        0.0091
     22 C           8.8023   -7.7271   27.4859 C.3     1  UNL1        0.4186
     23 F           9.0677   -8.3280   28.8344 F       1  UNL1       -0.1659
     24 F           9.2288   -6.3842   28.0004 F       1  UNL1       -0.1659
     25 F           8.3757   -9.0699   26.9714 F       1  UNL1       -0.1659
@<TRIPOS>BOND
     1    14    15    1
     2    15    16    1
     3    16    17    1
     4    17    18    1
     5    17    19    1
     6    19    20    1
     7    20    10    1
     8    10    11    2
     9    10    12   am
    10    12     1    1
    11     1     2   ar
    12     2     3   ar
    13     3     4   ar
    14     4     5   ar
    15     5     6   ar
    16     6    22    1
    17    22    23    1
    18    22    24    1
    19    22    25    1
    20     6     7   ar
    21     7     8   ar
    22     8     9   ar
    23    20    21    1
    24    21    15    1
    25     9     1   ar
    26     8     3   ar
    27    12    13    1
@<TRIPOS>MOLECULE
*****
 25 27 0 0 0
SMALL
GASTEIGER

@<TRIPOS>ATOM
      1 C           6.7149   -3.9957   22.7528 C.ar    1  UNL1        0.1655
      2 N           7.5767   -5.1176   22.2542 N.ar    1  UNL1       -0.2239
      3 C           8.0120   -5.9292   23.4382 C.ar    1  UNL1        0.0892
      4 C           8.8715   -7.1529   23.5550 C.ar    1  UNL1        0.0196
      5 C           9.1382   -7.7563   24.9020 C.ar    1  UNL1        0.0054
      6 C           8.5454   -7.1360   26.1324 C.ar    1  UNL1        0.0720
      7 C           7.6858   -5.9123   26.0157 C.ar    1  UNL1        0.0119
      8 C           7.4191   -5.3089   24.6686 C.ar    1  UNL1        0.0497
      9 S           6.6175   -4.1140   24.2449 S.2     1  UNL1       -0.0514
     10 C           4.8550   -3.2775   21.0869 C.2     1  UNL1        0.2270
     11 O           4.2957   -4.6691   21.1114 O.2     1  UNL1       -0.2747
     12 N           6.0646   -2.9408   21.9076 N.am    1  UNL1       -0.2641
     13 H           6.4317   -2.0274   21.8915 H       1  UNL1        0.1567
     14 C           0.8335   -0.1322   20.1203 C.3     1  UNL1        0.0000
     15 C           2.1940   -0.6499   19.7585 C.3     1  UNL1        0.0005
     16 C           2.9042   -0.1127   18.5514 C.3     1  UNL1        0.0000
     17 C           4.2648   -0.6304   18.1895 C.3     1  UNL1        0.0005
     18 C           4.9750   -0.0932   16.9825 C.3     1  UNL1        0.0000
     19 C           4.9151   -1.6854   19.0347 C.3     1  UNL1        0.0091
     20 C           4.2048   -2.2226   20.2418 C.3     1  UNL1        0.0769
     21 C           2.8443   -1.7048   20.6036 C.3     1  UNL1        0.0091
     22 C           8.8122   -7.7395   27.4796 C.3     1  UNL1        0.4186
     23 F           9.0789   -8.3430   28.8266 F       1  UNL1       -0.1659
     24 F           9.2578   -6.4016   27.9907 F       1  UNL1       -0.1659
     25 F           8.3665   -9.0774   26.9684 F       1  UNL1       -0.1659
@<TRIPOS>BOND
     1    14    15    1
     2    15    16    1
     3    16    17    1
     4    17    18    1
     5    17    19    1
     6    19    20    1
     7    20    10    1
     8    10    11    2
     9    10    12   am
    10    12     1    1
    11     1     2   ar
    12     2     3   ar
    13     3     4   ar
    14     4     5   ar
    15     5     6   ar
    16     6    22    1
    17    22    23    1
    18    22    24    1
    19    22    25    1
    20     6     7   ar
    21     7     8   ar
    22     8     9   ar
    23    20    21    1
    24    21    15    1
    25     9     1   ar
    26     8     3   ar
    27    12    13    1
@<TRIPOS>MOLECULE
*****
 25 27 0 0 0
SMALL
GASTEIGER

@<TRIPOS>ATOM
      1 C          -6.9121  -18.7815   21.3265 C.ar    1  UNL1        0.1655
      2 N          -7.1703  -19.8953   22.2976 N.ar    1  UNL1       -0.2239
      3 C          -8.5485  -19.7099   22.8600 C.ar    1  UNL1        0.0892
      4 C          -9.3395  -20.5008   23.8592 C.ar    1  UNL1        0.0196
      5 C         -10.7242  -20.0634   24.2350 C.ar    1  UNL1        0.0054
      6 C         -11.3179  -18.8351   23.6115 C.ar    1  UNL1        0.0720
      7 C         -10.5268  -18.0441   22.6122 C.ar    1  UNL1        0.0119
      8 C          -9.1421  -18.4815   22.2365 C.ar    1  UNL1        0.0497
      9 S          -8.1308  -17.9078   21.2888 S.2     1  UNL1       -0.0514
     10 C          -4.3370  -18.4495   21.2355 C.2     1  UNL1        0.2270
     11 O          -4.2742  -18.5257   22.7323 O.2     1  UNL1       -0.2747
     12 N          -5.6559  -18.5774   20.5326 N.am    1  UNL1       -0.2641
     13 H          -5.6971  -18.5273   19.5503 H       1  UNL1        0.1567
     14 C           0.8454  -18.1455   21.0116 C.3     1  UNL1        0.0000
     15 C          -0.4896  -18.0934   20.3296 C.3     1  UNL1        0.0005
     16 C          -0.5684  -17.8370   18.8538 C.3     1  UNL1        0.0000
     17 C          -1.9034  -17.7849   18.1718 C.3     1  UNL1        0.0005
     18 C          -1.9822  -17.5286   16.6960 C.3     1  UNL1        0.0000
     19 C          -3.1596  -17.9890   18.9657 C.3     1  UNL1        0.0091
     20 C          -3.0808  -18.2453   20.4416 C.3     1  UNL1        0.0769
     21 C          -1.7458  -18.2975   21.1235 C.3     1  UNL1        0.0091
     22 C         -12.7027  -18.3977   23.9873 C.3     1  UNL1        0.4186
     23 F         -14.0874  -17.9604   24.3630 F       1  UNL1       -0.1659
     24 F         -12.5045  -18.9546   25.3659 F       1  UNL1       -0.1659
     25 F         -12.9008  -17.8408   22.6087 F       1  UNL1       -0.1659
@<TRIPOS>BOND
     1    14    15    1
     2    15    16    1
     3    16    17    1
     4    17    18    1
     5    17    19    1
     6    19    20    1
     7    20    10    1
     8    10    11    2
     9    10    12   am
    10    12     1    1
    11     1     2   ar
    12     2     3   ar
    13     3     4   ar
    14     4     5   ar
    15     5     6   ar
    16     6    22    1
    17    22    23    1
    18    22    24    1
    19    22    25    1
    20     6     7   ar
    21     7     8   ar
    22     8     9   ar
    23    20    21    1
    24    21    15    1
    25     9     1   ar
    26     8     3   ar
    27    12    13    1
@<TRIPOS>MOLECULE
*****
 25 27 0 0 0
SMALL
GASTEIGER

@<TRIPOS>ATOM
      1 C          -6.9082  -18.7899   21.3293 C.ar    1  UNL1        0.1655
      2 N          -7.1630  -19.9043   22.3005 N.ar    1  UNL1       -0.2239
      3 C          -8.5407  -19.7215   22.8648 C.ar    1  UNL1        0.0892
      4 C          -9.3289  -20.5141   23.8650 C.ar    1  UNL1        0.0196
      5 C         -10.7139  -20.0792   24.2429 C.ar    1  UNL1        0.0054
      6 C         -11.3106  -18.8518   23.6205 C.ar    1  UNL1        0.0720
      7 C         -10.5223  -18.0592   22.6203 C.ar    1  UNL1        0.0119
      8 C          -9.1374  -18.4940   22.2425 C.ar    1  UNL1        0.0497
      9 S          -8.1285  -17.9183   21.2935 S.2     1  UNL1       -0.0514
     10 C          -4.3356  -18.4393   21.2354 C.2     1  UNL1        0.2270
     11 O          -4.2724  -18.5019   22.7329 O.2     1  UNL1       -0.2747
     12 N          -5.6535  -18.5833   20.5337 N.am    1  UNL1       -0.2641
     13 H          -5.6949  -18.5422   19.5509 H       1  UNL1        0.1567
     14 C          -1.9886  -17.5166   16.6923 C.3     1  UNL1        0.0000
     15 C          -1.9074  -17.7714   18.1683 C.3     1  UNL1        0.0005
     16 C          -0.5715  -17.8196   18.8486 C.3     1  UNL1        0.0000
     17 C          -0.4902  -18.0744   20.3246 C.3     1  UNL1        0.0005
     18 C           0.8458  -18.1226   21.0049 C.3     1  UNL1        0.0000
     19 C          -1.7449  -18.2810   21.1202 C.3     1  UNL1        0.0091
     20 C          -3.0809  -18.2327   20.4398 C.3     1  UNL1        0.0769
     21 C          -3.1621  -17.9779   18.9639 C.3     1  UNL1        0.0091
     22 C         -12.6956  -18.4170   23.9984 C.3     1  UNL1        0.4186
     23 F         -14.0806  -17.9822   24.3762 F       1  UNL1       -0.1659
     24 F         -12.4988  -18.9843   25.3729 F       1  UNL1       -0.1659
     25 F         -12.8924  -17.8496   22.6239 F       1  UNL1       -0.1659
@<TRIPOS>BOND
     1    14    15    1
     2    15    16    1
     3    16    17    1
     4    17    18    1
     5    17    19    1
     6    19    20    1
     7    20    10    1
     8    10    11    2
     9    10    12   am
    10    12     1    1
    11     1     2   ar
    12     2     3   ar
    13     3     4   ar
    14     4     5   ar
    15     5     6   ar
    16     6    22    1
    17    22    23    1
    18    22    24    1
    19    22    25    1
    20     6     7   ar
    21     7     8   ar
    22     8     9   ar
    23    20    21    1
    24    21    15    1
    25     9     1   ar
    26     8     3   ar
    27    12    13    1
@<TRIPOS>MOLECULE
*****
 25 27 0 0 0
SMALL
GASTEIGER

@<TRIPOS>ATOM
      1 C          -5.3249  -18.9205   21.4983 C.ar    1  UNL1        0.1655
      2 N          -5.0789  -18.8600   20.0198 N.ar    1  UNL1       -0.2239
      3 C          -3.6380  -18.5033   19.8038 C.ar    1  UNL1        0.0892
      4 C          -2.8297  -18.3035   18.5563 C.ar    1  UNL1        0.0196
      5 C          -1.3767  -17.9437   18.6537 C.ar    1  UNL1        0.0054
      6 C          -0.7322  -17.7837   19.9986 C.ar    1  UNL1        0.0720
      7 C          -1.5406  -17.9835   21.2462 C.ar    1  UNL1        0.0119
      8 C          -2.9935  -18.3433   21.1488 C.ar    1  UNL1        0.0497
      9 S          -4.0361  -18.6011   22.1960 S.2     1  UNL1       -0.0514
     10 C          -7.7559  -18.2526   22.1261 C.2     1  UNL1        0.2270
     11 O          -7.5757  -16.9384   21.4256 O.2     1  UNL1       -0.2747
     12 N          -6.6305  -19.2436   22.1624 N.am    1  UNL1       -0.2641
     13 H          -6.7488  -20.1061   22.6221 H       1  UNL1        0.1567
     14 C         -12.7909  -17.2225   22.8928 C.3     1  UNL1        0.0000
     15 C         -11.5790  -18.0606   23.1735 C.3     1  UNL1        0.0005
     16 C         -11.6727  -19.2219   24.1183 C.3     1  UNL1        0.0000
     17 C         -10.4608  -20.0601   24.3991 C.3     1  UNL1        0.0005
     18 C         -10.5546  -21.2213   25.3439 C.3     1  UNL1        0.0000
     19 C          -9.1552  -19.7370   23.7350 C.3     1  UNL1        0.0091
     20 C          -9.0615  -18.5757   22.7901 C.3     1  UNL1        0.0769
     21 C         -10.2734  -17.7375   22.5094 C.3     1  UNL1        0.0091
     22 C           0.7208  -17.4239   20.0960 C.3     1  UNL1        0.4186
     23 F           2.1737  -17.0640   20.1933 F       1  UNL1       -0.1659
     24 F           1.0867  -18.8753   19.9999 F       1  UNL1       -0.1659
     25 F           0.3548  -15.9724   20.1921 F       1  UNL1       -0.1659
@<TRIPOS>BOND
     1    14    15    1
     2    15    16    1
     3    16    17    1
     4    17    18    1
     5    17    19    1
     6    19    20    1
     7    20    10    1
     8    10    11    2
     9    10    12   am
    10    12     1    1
    11     1     2   ar
    12     2     3   ar
    13     3     4   ar
    14     4     5   ar
    15     5     6   ar
    16     6    22    1
    17    22    23    1
    18    22    24    1
    19    22    25    1
    20     6     7   ar
    21     7     8   ar
    22     8     9   ar
    23    20    21    1
    24    21    15    1
    25     9     1   ar
    26     8     3   ar
    27    12    13    1
@<TRIPOS>MOLECULE
*****
 25 27 0 0 0
SMALL
GASTEIGER

@<TRIPOS>ATOM
      1 C          -5.3368  -18.9223   21.4783 C.ar    1  UNL1        0.1655
      2 N          -5.0852  -18.8608   20.0009 N.ar    1  UNL1       -0.2239
      3 C          -3.6422  -18.5089   19.7907 C.ar    1  UNL1        0.0892
      4 C          -2.8286  -18.3104   18.5463 C.ar    1  UNL1        0.0196
      5 C          -1.3748  -17.9558   18.6495 C.ar    1  UNL1        0.0054
      6 C          -0.7346  -17.7999   19.9971 C.ar    1  UNL1        0.0720
      7 C          -1.5483  -17.9984   21.2414 C.ar    1  UNL1        0.0119
      8 C          -3.0021  -18.3529   21.1382 C.ar    1  UNL1        0.0497
      9 S          -4.0494  -18.6084   22.1812 S.2     1  UNL1       -0.0514
     10 C          -7.7572  -18.2341   22.1251 C.2     1  UNL1        0.2270
     11 O          -7.5592  -16.9072   21.4540 O.2     1  UNL1       -0.2747
     12 N          -6.6460  -19.2416   22.1372 N.am    1  UNL1       -0.2641
     13 H          -6.7760  -20.1125   22.5776 H       1  UNL1        0.1567
     14 C         -10.5749  -21.1886   25.3393 C.3     1  UNL1        0.0000
     15 C         -10.4752  -20.0307   24.3910 C.3     1  UNL1        0.0005
     16 C         -11.6847  -19.1920   24.1016 C.3     1  UNL1        0.0000
     17 C         -11.5851  -18.0340   23.1533 C.3     1  UNL1        0.0005
     18 C         -12.7946  -17.1954   22.8640 C.3     1  UNL1        0.0000
     19 C         -10.2759  -17.7147   22.4945 C.3     1  UNL1        0.0091
     20 C          -9.0663  -18.5534   22.7839 C.3     1  UNL1        0.0769
     21 C          -9.1660  -19.7113   23.7322 C.3     1  UNL1        0.0091
     22 C           0.7193  -17.4453   20.1002 C.3     1  UNL1        0.4186
     23 F           2.1731  -17.0908   20.2034 F       1  UNL1       -0.1659
     24 F           0.3587  -15.9919   20.1874 F       1  UNL1       -0.1659
     25 F           1.0798  -18.8987   20.0131 F       1  UNL1       -0.1659
@<TRIPOS>BOND
     1    14    15    1
     2    15    16    1
     3    16    17    1
     4    17    18    1
     5    17    19    1
     6    19    20    1
     7    20    10    1
     8    10    11    2
     9    10    12   am
    10    12     1    1
    11     1     2   ar
    12     2     3   ar
    13     3     4   ar
    14     4     5   ar
    15     5     6   ar
    16     6    22    1
    17    22    23    1
    18    22    24    1
    19    22    25    1
    20     6     7   ar
    21     7     8   ar
    22     8     9   ar
    23    20    21    1
    24    21    15    1
    25     9     1   ar
    26     8     3   ar
    27    12    13    1
@<TRIPOS>MOLECULE
*****
 25 27 0 0 0
SMALL
GASTEIGER

@<TRIPOS>ATOM
      1 C           4.9148    0.5392   35.1681 C.ar    1  UNL1        0.1655
      2 N           4.2355    1.8426   34.8688 N.ar    1  UNL1       -0.2239
      3 C           3.3707    2.1950   36.0426 C.ar    1  UNL1        0.0892
      4 C           2.4701    3.3642   36.3107 C.ar    1  UNL1        0.0196
      5 C           1.7143    3.4477   37.6036 C.ar    1  UNL1        0.0054
      6 C           1.8590    2.3620   38.6285 C.ar    1  UNL1        0.0720
      7 C           2.7596    1.1928   38.3604 C.ar    1  UNL1        0.0119
      8 C           3.5155    1.1093   37.0675 C.ar    1  UNL1        0.0497
      9 S           4.4698    0.0860   36.5270 S.2     1  UNL1       -0.0514
     10 C           5.4001   -1.3582   33.4610 C.2     1  UNL1        0.2270
     11 O           3.9726   -1.8091   33.5563 O.2     1  UNL1       -0.2747
     12 N           5.8712   -0.1841   34.2669 N.am    1  UNL1       -0.2641
     13 H           6.8080    0.1119   34.2043 H       1  UNL1        0.1567
     14 C           7.0814   -5.7740   31.2992 C.3     1  UNL1        0.0000
     15 C           7.1971   -4.2894   31.4788 C.3     1  UNL1        0.0005
     16 C           8.2692   -3.5279   30.7572 C.3     1  UNL1        0.0000
     17 C           8.3850   -2.0432   30.9368 C.3     1  UNL1        0.0005
     18 C           9.4571   -1.2818   30.2152 C.3     1  UNL1        0.0000
     19 C           7.4286   -1.3199   31.8381 C.3     1  UNL1        0.0091
     20 C           6.3565   -2.0815   32.5597 C.3     1  UNL1        0.0769
     21 C           6.2407   -3.5661   32.3801 C.3     1  UNL1        0.0091
     22 C           1.1031    2.4455   39.9215 C.3     1  UNL1        0.4186
     23 F           0.3473    2.5290   41.2144 F       1  UNL1       -0.1659
     24 F           2.1246    3.4047   40.4567 F       1  UNL1       -0.1659
     25 F           0.0817    1.4864   39.3862 F       1  UNL1       -0.1659
@<TRIPOS>BOND
     1    14    15    1
     2    15    16    1
     3    16    17    1
     4    17    18    1
     5    17    19    1
     6    19    20    1
     7    20    10    1
     8    10    11    2
     9    10    12   am
    10    12     1    1
    11     1     2   ar
    12     2     3   ar
    13     3     4   ar
    14     4     5   ar
    15     5     6   ar
    16     6    22    1
    17    22    23    1
    18    22    24    1
    19    22    25    1
    20     6     7   ar
    21     7     8   ar
    22     8     9   ar
    23    20    21    1
    24    21    15    1
    25     9     1   ar
    26     8     3   ar
    27    12    13    1
