@<TRIPOS>MOLECULE
*****
 28 30 0 0 0
SMALL
GASTEIGER

@<TRIPOS>ATOM
      1 C           3.2351   -4.2070   19.0410 C.3     1  UNL1        0.0342
      2 C           4.4202   -3.3463   19.3643 C.ar    1  UNL1        0.0115
      3 C           5.6850   -3.9718   19.8731 C.ar    1  UNL1       -0.0052
      4 C           6.8701   -3.1110   20.1964 C.ar    1  UNL1       -0.0165
      5 C           6.7905   -1.6247   20.0108 C.ar    1  UNL1       -0.0052
      6 C           5.5257   -0.9992   19.5020 C.ar    1  UNL1        0.0115
      7 C           5.4459    0.4872   19.3165 C.3     1  UNL1        0.0342
      8 C           4.3405   -1.8599   19.1788 C.ar    1  UNL1        0.1306
      9 C           8.1350   -3.7366   20.7052 C.3     1  UNL1        0.0755
     10 C           8.0948   -4.6470   21.8967 C.ar    1  UNL1        0.1051
     11 C           7.8094   -4.2364   23.3109 C.ar    1  UNL1        0.0585
     12 C           7.8712   -5.4635   24.1713 C.ar    1  UNL1        0.1766
     13 O           8.1948   -6.6326   23.2889 O.2     1  UNL1       -0.3537
     14 N           8.3330   -6.1279   21.8831 N.ar    1  UNL1       -0.0810
     15 C           7.6485   -5.5129   25.6539 C.ar    1  UNL1        0.0372
     16 C           8.1580   -6.6774   26.4504 C.ar    1  UNL1        0.0036
     17 C           7.9353   -6.7268   27.9329 C.ar    1  UNL1        0.0068
     18 C           7.2030   -5.6117   28.6189 C.ar    1  UNL1        0.0346
     19 BR          6.9803   -5.6611   30.1015 Br      1  UNL1       -0.0490
     20 C           6.6936   -4.4473   27.8223 C.ar    1  UNL1        0.0068
     21 C           6.9163   -4.3979   26.3398 C.ar    1  UNL1        0.0036
     22 O           3.0757   -1.2343   18.6699 O.3     1  UNL1       -0.4780
     23 C           2.2521   -0.3659   19.5741 C.3     1  UNL1        0.1646
     24 C           1.9469    0.5445   18.4216 C.3     1  UNL1        0.0495
     25 C           2.5572   -1.2763   20.7265 C.3     1  UNL1        0.0495
     26 C           1.4284    0.5025   20.4782 C.2     1  UNL1        0.0863
     27 O          -0.0485    0.2706   20.5999 O.co2   1  UNL1       -0.5457
     28 O           2.0818    1.6030   21.2607 O.co2   1  UNL1       -0.5457
@<TRIPOS>UNITY_ATOM_ATTR
27 1
charge -1
@<TRIPOS>BOND
     1     1     2    1
     2     2     3   ar
     3     3     4   ar
     4     4     9    1
     5     9    10    1
     6    10    11   ar
     7    11    12   ar
     8    12    15    1
     9    15    16   ar
    10    16    17   ar
    11    17    18   ar
    12    18    19    1
    13    18    20   ar
    14    20    21   ar
    15    12    13   ar
    16    13    14   ar
    17     4     5   ar
    18     5     6   ar
    19     6     7    1
    20     6     8   ar
    21     8    22    1
    22    22    23    1
    23    23    24    1
    24    23    25    1
    25    23    26    1
    26    26    27   ar
    27    26    28   ar
    28     8     2   ar
    29    14    10   ar
    30    21    15   ar
@<TRIPOS>MOLECULE
*****
 28 30 0 0 0
SMALL
GASTEIGER

@<TRIPOS>ATOM
      1 C           5.3597    0.4987   19.1160 C.3     1  UNL1        0.0342
      2 C           5.4545   -0.9776   19.3638 C.ar    1  UNL1        0.0115
      3 C           6.7331   -1.5716   19.8760 C.ar    1  UNL1       -0.0052
      4 C           6.8279   -3.0479   20.1238 C.ar    1  UNL1       -0.0165
      5 C           5.6442   -3.9303   19.8593 C.ar    1  UNL1       -0.0052
      6 C           4.3656   -3.3364   19.3470 C.ar    1  UNL1        0.0115
      7 C           3.1817   -4.2188   19.0825 C.3     1  UNL1        0.0342
      8 C           4.2708   -1.8600   19.0993 C.ar    1  UNL1        0.1306
      9 C           8.1066   -3.6418   20.6360 C.3     1  UNL1        0.0755
     10 C           8.0844   -4.5627   21.8199 C.ar    1  UNL1        0.1051
     11 C           7.7889   -4.1699   23.2371 C.ar    1  UNL1        0.0585
     12 C           7.8757   -5.4024   24.0875 C.ar    1  UNL1        0.1766
     13 O           8.2248   -6.5571   23.1959 O.2     1  UNL1       -0.3537
     14 N           8.3538   -6.0381   21.7945 N.ar    1  UNL1       -0.0810
     15 C           7.6525   -5.4687   25.5693 C.ar    1  UNL1        0.0372
     16 C           8.2136   -6.6121   26.3618 C.ar    1  UNL1        0.0036
     17 C           7.9904   -6.6783   27.8436 C.ar    1  UNL1        0.0068
     18 C           7.2062   -5.6013   28.5329 C.ar    1  UNL1        0.0346
     19 BR          6.9830   -5.6677   30.0148 Br      1  UNL1       -0.0490
     20 C           6.6451   -4.4581   27.7403 C.ar    1  UNL1        0.0068
     21 C           6.8683   -4.3918   26.2585 C.ar    1  UNL1        0.0036
     22 O           2.9921   -1.2661   18.5870 O.3     1  UNL1       -0.4780
     23 C           2.2010   -0.3295   19.4513 C.3     1  UNL1        0.1646
     24 C           2.4039   -1.2413   20.6250 C.3     1  UNL1        0.0495
     25 C           1.9982    0.5822   18.2777 C.3     1  UNL1        0.0495
     26 C           1.4100    0.6070   20.3157 C.2     1  UNL1        0.0863
     27 O           0.0074    0.2555   20.7145 O.co2   1  UNL1       -0.5457
     28 O           2.0216    1.8952   20.7812 O.co2   1  UNL1       -0.5457
@<TRIPOS>UNITY_ATOM_ATTR
27 1
charge -1
@<TRIPOS>BOND
     1     1     2    1
     2     2     3   ar
     3     3     4   ar
     4     4     9    1
     5     9    10    1
     6    10    11   ar
     7    11    12   ar
     8    12    15    1
     9    15    16   ar
    10    16    17   ar
    11    17    18   ar
    12    18    19    1
    13    18    20   ar
    14    20    21   ar
    15    12    13   ar
    16    13    14   ar
    17     4     5   ar
    18     5     6   ar
    19     6     7    1
    20     6     8   ar
    21     8    22    1
    22    22    23    1
    23    23    24    1
    24    23    25    1
    25    23    26    1
    26    26    27   ar
    27    26    28   ar
    28     8     2   ar
    29    14    10   ar
    30    21    15   ar
@<TRIPOS>MOLECULE
*****
 28 30 0 0 0
SMALL
GASTEIGER

@<TRIPOS>ATOM
      1 C           2.5848    3.2483   29.4112 C.3     1  UNL1        0.0342
      2 C           1.4899    2.6645   28.5683 C.ar    1  UNL1        0.0115
      3 C           1.2327    3.2055   27.1931 C.ar    1  UNL1       -0.0052
      4 C           0.1378    2.6217   26.3503 C.ar    1  UNL1       -0.0165
      5 C          -0.6998    1.4970   26.8825 C.ar    1  UNL1       -0.0052
      6 C          -0.4426    0.9561   28.2577 C.ar    1  UNL1        0.0115
      7 C          -1.2802   -0.1687   28.7901 C.3     1  UNL1        0.0342
      8 C           0.6523    1.5398   29.1006 C.ar    1  UNL1        0.1306
      9 C          -0.1195    3.1627   24.9750 C.3     1  UNL1        0.0755
     10 C           0.2492    2.3510   23.7687 C.ar    1  UNL1        0.1051
     11 C           1.2952    1.2772   23.7145 C.ar    1  UNL1        0.0585
     12 C           1.3291    0.7332   22.3171 C.ar    1  UNL1        0.1766
     13 O           0.3041    1.4707   21.5075 O.2     1  UNL1       -0.3537
     14 N          -0.3633    2.4706   22.4047 N.ar    1  UNL1       -0.0810
     15 C           2.2299   -0.3570   21.8171 C.ar    1  UNL1        0.0372
     16 C           2.1546   -0.7937   20.3840 C.ar    1  UNL1        0.0036
     17 C           3.0554   -1.8839   19.8839 C.ar    1  UNL1        0.0068
     18 C           4.0313   -2.5374   20.8169 C.ar    1  UNL1        0.0346
     19 BR          4.9321   -3.6277   20.3168 Br      1  UNL1       -0.0490
     20 C           4.1065   -2.1007   22.2499 C.ar    1  UNL1        0.0068
     21 C           3.2058   -1.0105   22.7500 C.ar    1  UNL1        0.0036
     22 O           0.9096    0.9988   30.4758 O.3     1  UNL1       -0.4780
     23 C           2.1879    0.2707   30.7683 C.3     1  UNL1        0.1646
     24 C           2.3399    1.0489   32.0416 C.3     1  UNL1        0.0495
     25 C           2.0360   -0.5076   29.4950 C.3     1  UNL1        0.0495
     26 C           3.4663   -0.4575   31.0607 C.2     1  UNL1        0.0863
     27 O           4.6652   -0.2500   30.1836 O.co2   1  UNL1       -0.5457
     28 O           3.5457   -1.3933   32.2304 O.co2   1  UNL1       -0.5457
@<TRIPOS>UNITY_ATOM_ATTR
27 1
charge -1
@<TRIPOS>BOND
     1     1     2    1
     2     2     3   ar
     3     3     4   ar
     4     4     9    1
     5     9    10    1
     6    10    11   ar
     7    11    12   ar
     8    12    15    1
     9    15    16   ar
    10    16    17   ar
    11    17    18   ar
    12    18    19    1
    13    18    20   ar
    14    20    21   ar
    15    12    13   ar
    16    13    14   ar
    17     4     5   ar
    18     5     6   ar
    19     6     7    1
    20     6     8   ar
    21     8    22    1
    22    22    23    1
    23    23    24    1
    24    23    25    1
    25    23    26    1
    26    26    27   ar
    27    26    28   ar
    28     8     2   ar
    29    14    10   ar
    30    21    15   ar
@<TRIPOS>MOLECULE
*****
 28 30 0 0 0
SMALL
GASTEIGER

@<TRIPOS>ATOM
      1 C           2.0951    0.1208   19.8210 C.3     1  UNL1        0.0342
      2 C           2.6408   -0.4766   21.0841 C.ar    1  UNL1        0.0115
      3 C           2.3597    0.1763   22.4049 C.ar    1  UNL1       -0.0052
      4 C           2.9054   -0.4211   23.6680 C.ar    1  UNL1       -0.0165
      5 C           3.7321   -1.6713   23.6102 C.ar    1  UNL1       -0.0052
      6 C           4.0132   -2.3242   22.2894 C.ar    1  UNL1        0.0115
      7 C           4.8399   -3.5745   22.2315 C.3     1  UNL1        0.0342
      8 C           3.4675   -1.7268   21.0263 C.ar    1  UNL1        0.1306
      9 C           2.6243    0.2319   24.9889 C.3     1  UNL1        0.0755
     10 C           1.7310    1.4350   25.0558 C.ar    1  UNL1        0.1051
     11 C           0.2312    1.4215   25.0419 C.ar    1  UNL1        0.0585
     12 C          -0.2461    2.8411   25.1258 C.ar    1  UNL1        0.1766
     13 O           0.9589    3.7320   25.1916 O.2     1  UNL1       -0.3537
     14 N           2.1808    2.8630   25.1484 N.ar    1  UNL1       -0.0810
     15 C          -1.6770    3.2907   25.1412 C.ar    1  UNL1        0.0372
     16 C          -2.4032    3.4365   26.4456 C.ar    1  UNL1        0.0036
     17 C          -3.8342    3.8861   26.4610 C.ar    1  UNL1        0.0068
     18 C          -4.5388    4.1900   25.1721 C.ar    1  UNL1        0.0346
     19 BR         -5.9698    4.6397   25.1875 Br      1  UNL1       -0.0490
     20 C          -3.8125    4.0442   23.8678 C.ar    1  UNL1        0.0068
     21 C          -2.3815    3.5946   23.8524 C.ar    1  UNL1        0.0036
     22 O           3.7485   -2.3797   19.7054 O.3     1  UNL1       -0.4780
     23 C           5.1535   -2.4422   19.1835 C.3     1  UNL1        0.1646
     24 C           4.9384   -3.8695   18.7754 C.3     1  UNL1        0.0495
     25 C           5.3685   -1.0149   19.5916 C.3     1  UNL1        0.0495
     26 C           6.5584   -2.5047   18.6617 C.2     1  UNL1        0.0863
     27 O           7.6862   -2.8593   19.5848 O.co2   1  UNL1       -0.5457
     28 O           6.8354   -2.2125   17.2167 O.co2   1  UNL1       -0.5457
@<TRIPOS>UNITY_ATOM_ATTR
27 1
charge -1
@<TRIPOS>BOND
     1     1     2    1
     2     2     3   ar
     3     3     4   ar
     4     4     9    1
     5     9    10    1
     6    10    11   ar
     7    11    12   ar
     8    12    15    1
     9    15    16   ar
    10    16    17   ar
    11    17    18   ar
    12    18    19    1
    13    18    20   ar
    14    20    21   ar
    15    12    13   ar
    16    13    14   ar
    17     4     5   ar
    18     5     6   ar
    19     6     7    1
    20     6     8   ar
    21     8    22    1
    22    22    23    1
    23    23    24    1
    24    23    25    1
    25    23    26    1
    26    26    27   ar
    27    26    28   ar
    28     8     2   ar
    29    14    10   ar
    30    21    15   ar
@<TRIPOS>MOLECULE
*****
 28 30 0 0 0
SMALL
GASTEIGER

@<TRIPOS>ATOM
      1 C           5.4727    0.5337   19.7745 C.3     1  UNL1        0.0342
      2 C           5.5514   -0.9508   19.9752 C.ar    1  UNL1        0.0115
      3 C           6.7296   -1.5503   20.6839 C.ar    1  UNL1       -0.0052
      4 C           6.8084   -3.0347   20.8846 C.ar    1  UNL1       -0.0165
      5 C           5.7088   -3.9196   20.3767 C.ar    1  UNL1       -0.0052
      6 C           4.5306   -3.3201   19.6680 C.ar    1  UNL1        0.0115
      7 C           3.4310   -4.2049   19.1601 C.3     1  UNL1        0.0342
      8 C           4.4519   -1.8356   19.4673 C.ar    1  UNL1        0.1306
      9 C           7.9867   -3.6343   21.5933 C.3     1  UNL1        0.0755
     10 C           7.7917   -4.3581   22.8926 C.ar    1  UNL1        0.1051
     11 C           7.6335   -3.7214   24.2415 C.ar    1  UNL1        0.0585
     12 C           7.4647   -4.8155   25.2536 C.ar    1  UNL1        0.1766
     13 O           7.5186   -6.1284   24.5303 O.2     1  UNL1       -0.3537
     14 N           7.7206   -5.8457   23.0711 N.ar    1  UNL1       -0.0810
     15 C           7.2753   -4.6293   26.7299 C.ar    1  UNL1        0.0372
     16 C           6.9120   -3.2800   27.2751 C.ar    1  UNL1        0.0036
     17 C           6.7225   -3.0938   28.7514 C.ar    1  UNL1        0.0068
     18 C           6.8965   -4.2569   29.6825 C.ar    1  UNL1        0.0346
     19 BR          6.7070   -4.0707   31.1588 Br      1  UNL1       -0.0490
     20 C           7.2598   -5.6063   29.1372 C.ar    1  UNL1        0.0068
     21 C           7.4492   -5.7924   27.6609 C.ar    1  UNL1        0.0036
     22 O           3.2736   -1.2361   18.7586 O.3     1  UNL1       -0.4780
     23 C           2.3342   -0.3308   19.4988 C.3     1  UNL1        0.1646
     24 C           2.3057    0.6007   18.3235 C.3     1  UNL1        0.0495
     25 C           2.3626   -1.2624   20.6742 C.3     1  UNL1        0.0495
     26 C           1.3948    0.5745   20.2391 C.2     1  UNL1        0.0863
     27 O           1.8115    1.9760   20.5738 O.co2   1  UNL1       -0.5457
     28 O           0.0386    0.0781   20.6448 O.co2   1  UNL1       -0.5457
@<TRIPOS>UNITY_ATOM_ATTR
27 1
charge -1
@<TRIPOS>BOND
     1     1     2    1
     2     2     3   ar
     3     3     4   ar
     4     4     9    1
     5     9    10    1
     6    10    11   ar
     7    11    12   ar
     8    12    15    1
     9    15    16   ar
    10    16    17   ar
    11    17    18   ar
    12    18    19    1
    13    18    20   ar
    14    20    21   ar
    15    12    13   ar
    16    13    14   ar
    17     4     5   ar
    18     5     6   ar
    19     6     7    1
    20     6     8   ar
    21     8    22    1
    22    22    23    1
    23    23    24    1
    24    23    25    1
    25    23    26    1
    26    26    27   ar
    27    26    28   ar
    28     8     2   ar
    29    14    10   ar
    30    21    15   ar
@<TRIPOS>MOLECULE
*****
 28 30 0 0 0
SMALL
GASTEIGER

@<TRIPOS>ATOM
      1 C           1.0922   -0.5661   20.0232 C.3     1  UNL1        0.0342
      2 C           1.8425   -0.1497   21.2535 C.ar    1  UNL1        0.0115
      3 C           1.4047    1.0595   22.0256 C.ar    1  UNL1       -0.0052
      4 C           2.1550    1.4760   23.2559 C.ar    1  UNL1       -0.0165
      5 C           3.3431    0.6832   23.7141 C.ar    1  UNL1       -0.0052
      6 C           3.7808   -0.5260   22.9421 C.ar    1  UNL1        0.0115
      7 C           4.9690   -1.3188   23.4003 C.3     1  UNL1        0.0342
      8 C           3.0305   -0.9424   21.7118 C.ar    1  UNL1        0.1306
      9 C           1.7172    2.6853   24.0280 C.3     1  UNL1        0.0755
     10 C           0.3343    2.7459   24.6060 C.ar    1  UNL1        0.1051
     11 C          -0.8896    3.2649   23.9113 C.ar    1  UNL1        0.0585
     12 C          -2.0478    3.1379   24.8561 C.ar    1  UNL1        0.1766
     13 O          -1.5396    2.5404   26.1347 O.2     1  UNL1       -0.3537
     14 N          -0.0674    2.2981   25.9801 N.ar    1  UNL1       -0.0810
     15 C          -3.4652    3.5382   24.5722 C.ar    1  UNL1        0.0372
     16 C          -4.3119    4.1242   25.6630 C.ar    1  UNL1        0.0036
     17 C          -5.7293    4.5244   25.3790 C.ar    1  UNL1        0.0068
     18 C          -6.3001    4.3387   24.0043 C.ar    1  UNL1        0.0346
     19 BR         -7.7176    4.7390   23.7204 Br      1  UNL1       -0.0490
     20 C          -5.4534    3.7527   22.9136 C.ar    1  UNL1        0.0068
     21 C          -4.0359    3.3524   23.1976 C.ar    1  UNL1        0.0036
     22 O           3.4684   -2.1517   20.9397 O.3     1  UNL1       -0.4780
     23 C           3.9737   -2.0024   19.5353 C.3     1  UNL1        0.1646
     24 C           3.2793   -3.2749   19.1501 C.3     1  UNL1        0.0495
     25 C           4.6681   -0.7298   19.9204 C.3     1  UNL1        0.0495
     26 C           4.4790   -1.8530   18.1309 C.2     1  UNL1        0.0863
     27 O           5.7075   -2.5940   17.6931 O.co2   1  UNL1       -0.5457
     28 O           3.7558   -0.9627   17.1642 O.co2   1  UNL1       -0.5457
@<TRIPOS>UNITY_ATOM_ATTR
27 1
charge -1
@<TRIPOS>BOND
     1     1     2    1
     2     2     3   ar
     3     3     4   ar
     4     4     9    1
     5     9    10    1
     6    10    11   ar
     7    11    12   ar
     8    12    15    1
     9    15    16   ar
    10    16    17   ar
    11    17    18   ar
    12    18    19    1
    13    18    20   ar
    14    20    21   ar
    15    12    13   ar
    16    13    14   ar
    17     4     5   ar
    18     5     6   ar
    19     6     7    1
    20     6     8   ar
    21     8    22    1
    22    22    23    1
    23    23    24    1
    24    23    25    1
    25    23    26    1
    26    26    27   ar
    27    26    28   ar
    28     8     2   ar
    29    14    10   ar
    30    21    15   ar
@<TRIPOS>MOLECULE
*****
 28 30 0 0 0
SMALL
GASTEIGER

@<TRIPOS>ATOM
      1 C           3.6356   -0.7181   17.0582 C.3     1  UNL1        0.0342
      2 C           3.1603   -0.0694   18.3244 C.ar    1  UNL1        0.0115
      3 C           2.5541    1.3020   18.2827 C.ar    1  UNL1       -0.0052
      4 C           2.0788    1.9506   19.5489 C.ar    1  UNL1       -0.0165
      5 C           2.2096    1.2279   20.8568 C.ar    1  UNL1       -0.0052
      6 C           2.8158   -0.1435   20.8984 C.ar    1  UNL1        0.0115
      7 C           2.9466   -0.8663   22.2063 C.3     1  UNL1        0.0342
      8 C           3.2911   -0.7922   19.6322 C.ar    1  UNL1        0.1306
      9 C           1.4726    3.3221   19.5072 C.3     1  UNL1        0.0755
     10 C          -0.0156    3.4816   19.4081 C.ar    1  UNL1        0.1051
     11 C          -0.9658    3.6240   20.5599 C.ar    1  UNL1        0.0585
     12 C          -2.3524    3.7571   20.0034 C.ar    1  UNL1        0.1766
     13 O          -2.2591    3.6970   18.5075 O.2     1  UNL1       -0.3537
     14 N          -0.8150    3.5267   18.1396 N.ar    1  UNL1       -0.0810
     15 C          -3.6111    3.9215   20.8025 C.ar    1  UNL1        0.0372
     16 C          -3.5354    4.1406   22.2845 C.ar    1  UNL1        0.0036
     17 C          -4.7941    4.3050   23.0835 C.ar    1  UNL1        0.0068
     18 C          -6.1285    4.2503   22.4006 C.ar    1  UNL1        0.0346
     19 BR         -7.3873    4.4147   23.1998 Br      1  UNL1       -0.0490
     20 C          -6.2042    4.0313   20.9186 C.ar    1  UNL1        0.0068
     21 C          -4.9455    3.8669   20.1196 C.ar    1  UNL1        0.0036
     22 O           3.8973   -2.1636   19.6739 O.3     1  UNL1       -0.4780
     23 C           5.3258   -2.3650   19.2631 C.3     1  UNL1        0.1646
     24 C           5.7218   -1.1462   20.0428 C.3     1  UNL1        0.0495
     25 C           4.9298   -3.5838   18.4835 C.3     1  UNL1        0.0495
     26 C           6.7543   -2.5664   18.8523 C.2     1  UNL1        0.0863
     27 O           7.1811   -2.2598   17.4474 O.co2   1  UNL1       -0.5457
     28 O           7.7562   -3.0743   19.8466 O.co2   1  UNL1       -0.5457
@<TRIPOS>UNITY_ATOM_ATTR
27 1
charge -1
@<TRIPOS>BOND
     1     1     2    1
     2     2     3   ar
     3     3     4   ar
     4     4     9    1
     5     9    10    1
     6    10    11   ar
     7    11    12   ar
     8    12    15    1
     9    15    16   ar
    10    16    17   ar
    11    17    18   ar
    12    18    19    1
    13    18    20   ar
    14    20    21   ar
    15    12    13   ar
    16    13    14   ar
    17     4     5   ar
    18     5     6   ar
    19     6     7    1
    20     6     8   ar
    21     8    22    1
    22    22    23    1
    23    23    24    1
    24    23    25    1
    25    23    26    1
    26    26    27   ar
    27    26    28   ar
    28     8     2   ar
    29    14    10   ar
    30    21    15   ar
@<TRIPOS>MOLECULE
*****
 28 30 0 0 0
SMALL
GASTEIGER

@<TRIPOS>ATOM
      1 C           3.3272    3.8159   18.4850 C.3     1  UNL1        0.0342
      2 C           2.9756    2.3707   18.6791 C.ar    1  UNL1        0.0115
      3 C           3.7647    1.3060   17.9764 C.ar    1  UNL1       -0.0052
      4 C           3.4130   -0.1393   18.1704 C.ar    1  UNL1       -0.0165
      5 C           2.2724   -0.5198   19.0671 C.ar    1  UNL1       -0.0052
      6 C           1.4834    0.5449   19.7697 C.ar    1  UNL1        0.0115
      7 C           0.3426    0.1644   20.6665 C.3     1  UNL1        0.0342
      8 C           1.8350    1.9901   19.5757 C.ar    1  UNL1        0.1306
      9 C           4.2021   -1.2040   17.4677 C.3     1  UNL1        0.0755
     10 C           5.3875   -1.8277   18.1429 C.ar    1  UNL1        0.1051
     11 C           5.3699   -2.5722   19.4450 C.ar    1  UNL1        0.0585
     12 C           6.7702   -3.0210   19.7413 C.ar    1  UNL1        0.1766
     13 O           7.6533   -2.5539   18.6224 O.2     1  UNL1       -0.3537
     14 N           6.7987   -1.8164   17.6345 N.ar    1  UNL1       -0.0810
     15 C           7.2101   -3.8001   20.9453 C.ar    1  UNL1        0.0372
     16 C           6.4601   -3.6701   22.2378 C.ar    1  UNL1        0.0036
     17 C           6.9000   -4.4492   23.4417 C.ar    1  UNL1        0.0068
     18 C           8.0899   -5.3583   23.3531 C.ar    1  UNL1        0.0346
     19 BR          8.5298   -6.1374   24.5571 Br      1  UNL1       -0.0490
     20 C           8.8398   -5.4882   22.0605 C.ar    1  UNL1        0.0068
     21 C           8.3999   -4.7091   20.8566 C.ar    1  UNL1        0.0036
     22 O           1.0459    3.0549   20.2784 O.3     1  UNL1       -0.4780
     23 C          -0.4240    3.1963   20.0145 C.3     1  UNL1        0.1646
     24 C          -0.1555    3.2334   18.5392 C.3     1  UNL1        0.0495
     25 C          -0.6924    3.1592   21.4898 C.3     1  UNL1        0.0495
     26 C          -1.8938    3.3378   19.7506 C.2     1  UNL1        0.0863
     27 O          -2.8878    2.7687   20.7190 O.co2   1  UNL1       -0.5457
     28 O          -2.3695    4.0484   18.5182 O.co2   1  UNL1       -0.5457
@<TRIPOS>UNITY_ATOM_ATTR
27 1
charge -1
@<TRIPOS>BOND
     1     1     2    1
     2     2     3   ar
     3     3     4   ar
     4     4     9    1
     5     9    10    1
     6    10    11   ar
     7    11    12   ar
     8    12    15    1
     9    15    16   ar
    10    16    17   ar
    11    17    18   ar
    12    18    19    1
    13    18    20   ar
    14    20    21   ar
    15    12    13   ar
    16    13    14   ar
    17     4     5   ar
    18     5     6   ar
    19     6     7    1
    20     6     8   ar
    21     8    22    1
    22    22    23    1
    23    23    24    1
    24    23    25    1
    25    23    26    1
    26    26    27   ar
    27    26    28   ar
    28     8     2   ar
    29    14    10   ar
    30    21    15   ar
@<TRIPOS>MOLECULE
*****
 28 30 0 0 0
SMALL
GASTEIGER

@<TRIPOS>ATOM
      1 C           3.5287    1.6193   28.7145 C.3     1  UNL1        0.0342
      2 C           2.1557    1.5211   28.1184 C.ar    1  UNL1        0.0115
      3 C           1.8828    2.1039   26.7635 C.ar    1  UNL1       -0.0052
      4 C           0.5098    2.0056   26.1675 C.ar    1  UNL1       -0.0165
      5 C          -0.5903    1.3246   26.9263 C.ar    1  UNL1       -0.0052
      6 C          -0.3174    0.7418   28.2812 C.ar    1  UNL1        0.0115
      7 C          -1.4175    0.0607   29.0402 C.3     1  UNL1        0.0342
      8 C           1.0556    0.8400   28.8773 C.ar    1  UNL1        0.1306
      9 C           0.2370    2.5885   24.8125 C.3     1  UNL1        0.0755
     10 C           0.5434    1.7929   23.5783 C.ar    1  UNL1        0.1051
     11 C           1.6430    0.7834   23.4304 C.ar    1  UNL1        0.0585
     12 C           1.5833    0.2338   22.0360 C.ar    1  UNL1        0.1766
     13 O           0.4468    0.9036   21.3221 O.2     1  UNL1       -0.3537
     14 N          -0.1959    1.8672   22.2753 N.ar    1  UNL1       -0.0810
     15 C           2.4992   -0.8035   21.4572 C.ar    1  UNL1        0.0372
     16 C           3.5365   -1.4551   22.3230 C.ar    1  UNL1        0.0036
     17 C           4.4524   -2.4924   21.7443 C.ar    1  UNL1        0.0068
     18 C           4.3311   -2.8781   20.2998 C.ar    1  UNL1        0.0346
     19 BR          5.2471   -3.9155   19.7210 Br      1  UNL1       -0.0490
     20 C           3.2938   -2.2266   19.4341 C.ar    1  UNL1        0.0068
     21 C           2.3779   -1.1892   20.0129 C.ar    1  UNL1        0.0036
     22 O           1.3284    0.2572   30.2323 O.3     1  UNL1       -0.4780
     23 C           1.7759    1.1459   31.3547 C.3     1  UNL1        0.1646
     24 C           0.6453    2.0868   31.0605 C.3     1  UNL1        0.0495
     25 C           2.9065    0.2051   31.6490 C.3     1  UNL1        0.0495
     26 C           2.2233    2.0347   32.4772 C.2     1  UNL1        0.0863
     27 O           3.6080    1.8962   33.0371 O.co2   1  UNL1       -0.5457
     28 O           1.2861    3.0619   33.0397 O.co2   1  UNL1       -0.5457
@<TRIPOS>UNITY_ATOM_ATTR
27 1
charge -1
@<TRIPOS>BOND
     1     1     2    1
     2     2     3   ar
     3     3     4   ar
     4     4     9    1
     5     9    10    1
     6    10    11   ar
     7    11    12   ar
     8    12    15    1
     9    15    16   ar
    10    16    17   ar
    11    17    18   ar
    12    18    19    1
    13    18    20   ar
    14    20    21   ar
    15    12    13   ar
    16    13    14   ar
    17     4     5   ar
    18     5     6   ar
    19     6     7    1
    20     6     8   ar
    21     8    22    1
    22    22    23    1
    23    23    24    1
    24    23    25    1
    25    23    26    1
    26    26    27   ar
    27    26    28   ar
    28     8     2   ar
    29    14    10   ar
    30    21    15   ar
