@<TRIPOS>MOLECULE
*****
 45 50 0 0 0
SMALL
GASTEIGER

@<TRIPOS>ATOM
      1 C          -2.8839    4.3455   21.8915 C.ar    1  UNL1        0.1348
      2 C          -2.6737    5.1602   23.1333 C.ar    1  UNL1        0.0346
      3 C          -1.5148    4.8630   24.0381 C.ar    1  UNL1        0.0065
      4 C          -0.5661    3.7511   23.7010 C.ar    1  UNL1        0.0432
      5 C          -0.7763    2.9365   22.4592 C.ar    1  UNL1        0.1256
      6 N          -1.9352    3.2337   21.5545 N.ar    1  UNL1       -0.2222
      7 C           0.5928    3.4539   24.6058 C.ar    1  UNL1        0.0850
      8 C           1.9732    4.0290   24.4884 C.ar    1  UNL1        0.1001
      9 N           2.8083    3.4599   25.5969 N.ar    1  UNL1       -0.2264
     10 C           1.9440    2.5331   26.3994 C.ar    1  UNL1        0.1474
     11 C           2.2270    1.6921   27.6088 C.ar    1  UNL1        0.0332
     12 C           1.1406    0.8474   28.2057 C.ar    1  UNL1       -0.0174
     13 C           1.4235    0.0064   29.4151 C.3     1  UNL1        0.0312
     14 C          -0.2287    0.8436   27.5932 C.ar    1  UNL1        0.0149
     15 C          -0.5116    1.6846   26.3838 C.ar    1  UNL1        0.0811
     16 N           0.5748    2.5294   25.7869 N.ar    1  UNL1       -0.2888
     17 C           2.4370    5.0023   23.4455 C.ar    1  UNL1        0.0327
     18 C           1.9897    6.4329   23.5029 C.ar    1  UNL1        0.0043
     19 C           2.4535    7.4062   22.4600 C.ar    1  UNL1        0.0207
     20 C           3.3647    6.9489   21.3598 C.ar    1  UNL1        0.0984
     21 N           3.8121    5.5184   21.3024 N.ar    1  UNL1       -0.2481
     22 C           3.3482    4.5451   22.3453 C.ar    1  UNL1        0.0609
     23 C           3.7956    3.1144   22.2878 C.3     1  UNL1        0.0521
     24 C          -5.3995    4.0833   21.2972 C.2     1  UNL1        0.2414
     25 O          -5.5973    3.2266   22.5126 O.2     1  UNL1       -0.2733
     26 N          -4.0428    4.6427   20.9867 N.am    1  UNL1       -0.2682
     27 H          -3.9130    5.2050   20.1890 H       1  UNL1        0.1563
     28 C          -6.5584    4.3805   20.3925 C.3     1  UNL1        0.1319
     29 C          -6.6548    3.7121   19.0530 C.3     1  UNL1        0.0270
     30 C          -7.3688    6.2682   21.9830 C.3     1  UNL1        0.0862
     31 N          -7.6208    5.3461   20.8271 N.3     1  UNL1       -0.2902
     32 H          -7.8311    5.9348   20.0211 H       1  UNL1        0.1237
     33 C           0.1725    1.8245   22.1221 C.1     1  UNL1       -0.0404
     34 C           1.1211    0.7126   21.7851 C.1     1  UNL1       -0.0583
     35 C           2.0699   -0.3993   21.4480 C.ar    1  UNL1        0.0420
     36 C           2.1116   -0.9531   20.0546 C.ar    1  UNL1        0.0083
     37 C           3.0603   -2.0650   19.7176 C.ar    1  UNL1        0.0018
     38 C           3.9673   -2.6230   20.7740 C.ar    1  UNL1        0.0137
     39 C           4.9161   -3.7350   20.4369 C.ar    1  UNL1        0.0594
     40 C           4.9577   -4.2888   19.0435 C.3     1  UNL1        0.0521
     41 N           5.8231   -4.2930   21.4932 N.ar    1  UNL1       -0.2481
     42 C           5.7814   -3.7391   22.8866 C.ar    1  UNL1        0.0984
     43 C           4.8327   -2.6273   23.2236 C.ar    1  UNL1        0.0207
     44 C           3.9257   -2.0692   22.1673 C.ar    1  UNL1        0.0033
     45 C           2.9769   -0.9574   22.5043 C.ar    1  UNL1        0.0083
@<TRIPOS>BOND
     1    30    31    1
     2    31    28    1
     3    28    29    1
     4    28    24    1
     5    24    25    2
     6    24    26   am
     7    26     1    1
     8     1     2   ar
     9     2     3   ar
    10     3     4   ar
    11     4     7    1
    12     7     8   ar
    13     8    17    1
    14    17    18   ar
    15    18    19   ar
    16    19    20   ar
    17    20    21   ar
    18    21    22   ar
    19    22    23    1
    20     8     9   ar
    21     9    10   ar
    22    10    11   ar
    23    11    12   ar
    24    12    13    1
    25    12    14   ar
    26    14    15   ar
    27    15    16   ar
    28     4     5   ar
    29     5    33    1
    30    33    34    3
    31    34    35    1
    32    35    36   ar
    33    36    37   ar
    34    37    38   ar
    35    38    39   ar
    36    39    40    1
    37    39    41   ar
    38    41    42   ar
    39    42    43   ar
    40    43    44   ar
    41    44    45   ar
    42     5     6   ar
    43     6     1   ar
    44    16     7   ar
    45    45    35   ar
    46    22    17   ar
    47    16    10   ar
    48    44    38   ar
    49    31    32    1
    50    26    27    1
@<TRIPOS>MOLECULE
*****
 45 50 0 0 0
SMALL
GASTEIGER

@<TRIPOS>ATOM
      1 C           3.8678   -0.6016   30.6502 C.ar    1  UNL1        0.1348
      2 C           5.1399   -1.1303   31.2437 C.ar    1  UNL1        0.0346
      3 C           6.1932   -1.7219   30.3545 C.ar    1  UNL1        0.0065
      4 C           5.9744   -1.7848   28.8720 C.ar    1  UNL1        0.0432
      5 C           4.7023   -1.2561   28.2785 C.ar    1  UNL1        0.1256
      6 N           3.6490   -0.6645   29.1676 N.ar    1  UNL1       -0.2222
      7 C           7.0277   -2.3765   27.9828 C.ar    1  UNL1        0.0850
      8 C           8.2063   -1.6487   27.4073 C.ar    1  UNL1        0.1001
      9 N           8.9943   -2.6221   26.5819 N.ar    1  UNL1       -0.2264
     10 C           8.3028   -3.9516   26.6473 C.ar    1  UNL1        0.1474
     11 C           8.6228   -5.2809   26.0303 C.ar    1  UNL1        0.0332
     12 C           7.7274   -6.4582   26.2791 C.ar    1  UNL1       -0.0174
     13 C           8.0474   -7.7875   25.6622 C.3     1  UNL1        0.0312
     14 C           6.5119   -6.3065   27.1450 C.ar    1  UNL1        0.0149
     15 C           6.1919   -4.9772   27.7620 C.ar    1  UNL1        0.0811
     16 N           7.0874   -3.7998   27.5131 N.ar    1  UNL1       -0.2888
     17 C           8.5385   -0.2014   27.6198 C.ar    1  UNL1        0.0327
     18 C           9.2033    0.2366   28.8912 C.ar    1  UNL1        0.0043
     19 C           9.5355    1.6838   29.1038 C.ar    1  UNL1        0.0207
     20 C           9.2030    2.6930   28.0450 C.ar    1  UNL1        0.0984
     21 N           8.5383    2.2550   26.7737 N.ar    1  UNL1       -0.2481
     22 C           8.2060    0.8077   26.5612 C.ar    1  UNL1        0.0609
     23 C           7.5413    0.3698   25.2898 C.3     1  UNL1        0.0521
     24 C           2.6151    1.4761   31.5796 C.2     1  UNL1        0.2414
     25 O           3.4691    2.3707   30.7307 O.2     1  UNL1       -0.2733
     26 N           2.8145   -0.0100   31.5393 N.am    1  UNL1       -0.2682
     27 H           2.2540   -0.5971   32.0965 H       1  UNL1        0.1563
     28 C           1.5618    2.0678   32.4687 C.3     1  UNL1        0.1319
     29 C           0.3761    2.7622   31.8672 C.3     1  UNL1        0.0270
     30 C           3.0543    1.9098   34.5894 C.3     1  UNL1        0.0862
     31 N           1.6942    1.9649   33.9593 N.3     1  UNL1       -0.2902
     32 H           1.2197    2.7771   34.3538 H       1  UNL1        0.1237
     33 C           4.4835   -1.3190   26.7958 C.1     1  UNL1       -0.0404
     34 C           4.2647   -1.3820   25.3132 C.1     1  UNL1       -0.0583
     35 C           4.0458   -1.4449   23.8306 C.ar    1  UNL1        0.0420
     36 C           3.3713   -0.3072   23.1231 C.ar    1  UNL1        0.0083
     37 C           3.1525   -0.3701   21.6405 C.ar    1  UNL1        0.0018
     38 C           3.6082   -1.5708   20.8654 C.ar    1  UNL1        0.0137
     39 C           3.3894   -1.6337   19.3827 C.ar    1  UNL1        0.0594
     40 C           2.7149   -0.4960   18.6752 C.3     1  UNL1        0.0521
     41 N           3.8451   -2.8343   18.6076 N.ar    1  UNL1       -0.2481
     42 C           4.5197   -3.9721   19.3152 C.ar    1  UNL1        0.0984
     43 C           4.7385   -3.9091   20.7978 C.ar    1  UNL1        0.0207
     44 C           4.2828   -2.7085   21.5729 C.ar    1  UNL1        0.0033
     45 C           4.5016   -2.6455   23.0555 C.ar    1  UNL1        0.0083
@<TRIPOS>BOND
     1    30    31    1
     2    31    28    1
     3    28    29    1
     4    28    24    1
     5    24    25    2
     6    24    26   am
     7    26     1    1
     8     1     2   ar
     9     2     3   ar
    10     3     4   ar
    11     4     7    1
    12     7     8   ar
    13     8    17    1
    14    17    18   ar
    15    18    19   ar
    16    19    20   ar
    17    20    21   ar
    18    21    22   ar
    19    22    23    1
    20     8     9   ar
    21     9    10   ar
    22    10    11   ar
    23    11    12   ar
    24    12    13    1
    25    12    14   ar
    26    14    15   ar
    27    15    16   ar
    28     4     5   ar
    29     5    33    1
    30    33    34    3
    31    34    35    1
    32    35    36   ar
    33    36    37   ar
    34    37    38   ar
    35    38    39   ar
    36    39    40    1
    37    39    41   ar
    38    41    42   ar
    39    42    43   ar
    40    43    44   ar
    41    44    45   ar
    42     5     6   ar
    43     6     1   ar
    44    16     7   ar
    45    45    35   ar
    46    22    17   ar
    47    16    10   ar
    48    44    38   ar
    49    31    32    1
    50    26    27    1
@<TRIPOS>MOLECULE
*****
 45 50 0 0 0
SMALL
GASTEIGER

@<TRIPOS>ATOM
      1 C           2.6941   -0.0943   29.8324 C.ar    1  UNL1        0.1348
      2 C           2.1460    1.2821   30.0671 C.ar    1  UNL1        0.0346
      3 C           1.8680    2.1872   28.9036 C.ar    1  UNL1        0.0065
      4 C           2.1382    1.7159   27.5055 C.ar    1  UNL1        0.0432
      5 C           2.6863    0.3395   27.2708 C.ar    1  UNL1        0.1256
      6 N           2.9643   -0.5656   28.4343 N.ar    1  UNL1       -0.2222
      7 C           1.8603    2.6209   26.3421 C.ar    1  UNL1        0.0850
      8 C           2.8839    3.3816   25.5525 C.ar    1  UNL1        0.1001
      9 N           2.1662    4.1550   24.4864 N.ar    1  UNL1       -0.2264
     10 C           0.6989    3.8724   24.6170 C.ar    1  UNL1        0.1474
     11 C          -0.4895    4.3558   23.8398 C.ar    1  UNL1        0.0332
     12 C          -1.8670    3.8911   24.2096 C.ar    1  UNL1       -0.0174
     13 C          -3.0553    4.3746   23.4324 C.3     1  UNL1        0.0312
     14 C          -2.0561    2.9430   25.3565 C.ar    1  UNL1        0.0149
     15 C          -0.8677    2.4595   26.1336 C.ar    1  UNL1        0.0811
     16 N           0.5098    2.9242   25.7639 N.ar    1  UNL1       -0.2888
     17 C           4.3654    3.3708   25.7877 C.ar    1  UNL1        0.0327
     18 C           5.2508    2.4927   24.9539 C.ar    1  UNL1        0.0043
     19 C           6.7322    2.4819   25.1891 C.ar    1  UNL1        0.0207
     20 C           7.3282    3.3491   26.2582 C.ar    1  UNL1        0.0984
     21 N           6.4428    4.2270   27.0919 N.ar    1  UNL1       -0.2481
     22 C           4.9614    4.2379   26.8567 C.ar    1  UNL1        0.0609
     23 C           4.0760    5.1159   27.6906 C.3     1  UNL1        0.0521
     24 C           4.3742   -1.1580   31.5044 C.2     1  UNL1        0.2414
     25 O           5.4986   -0.4116   30.8494 O.2     1  UNL1       -0.2733
     26 N           2.9721   -0.9993   30.9958 N.am    1  UNL1       -0.2682
     27 H           2.2342   -1.4892   31.4257 H       1  UNL1        0.1563
     28 C           4.6522   -2.0631   32.6678 C.3     1  UNL1        0.1319
     29 C           4.2360   -1.6565   34.0504 C.3     1  UNL1        0.0270
     30 C           6.8210   -3.4065   32.1766 C.3     1  UNL1        0.0862
     31 N           5.3463   -3.3746   32.4487 N.3     1  UNL1       -0.2902
     32 H           5.1893   -3.9345   33.2867 H       1  UNL1        0.1237
     33 C           2.9566   -0.1319   25.8726 C.1     1  UNL1       -0.0404
     34 C           3.2267   -0.6032   24.4745 C.1     1  UNL1       -0.0583
     35 C           3.4969   -1.0746   23.0763 C.ar    1  UNL1        0.0420
     36 C           4.1466   -2.4068   22.8464 C.ar    1  UNL1        0.0083
     37 C           4.4168   -2.8781   21.4482 C.ar    1  UNL1        0.0018
     38 C           4.0373   -2.0172   20.2800 C.ar    1  UNL1        0.0137
     39 C           4.3075   -2.4885   18.8818 C.ar    1  UNL1        0.0594
     40 C           4.9571   -3.8208   18.6519 C.3     1  UNL1        0.0521
     41 N           3.9280   -1.6275   17.7136 N.ar    1  UNL1       -0.2481
     42 C           3.2783   -0.2952   17.9436 C.ar    1  UNL1        0.0984
     43 C           3.0082    0.1761   19.3418 C.ar    1  UNL1        0.0207
     44 C           3.3876   -0.6849   20.5100 C.ar    1  UNL1        0.0033
     45 C           3.1175   -0.2136   21.9081 C.ar    1  UNL1        0.0083
@<TRIPOS>BOND
     1    30    31    1
     2    31    28    1
     3    28    29    1
     4    28    24    1
     5    24    25    2
     6    24    26   am
     7    26     1    1
     8     1     2   ar
     9     2     3   ar
    10     3     4   ar
    11     4     7    1
    12     7     8   ar
    13     8    17    1
    14    17    18   ar
    15    18    19   ar
    16    19    20   ar
    17    20    21   ar
    18    21    22   ar
    19    22    23    1
    20     8     9   ar
    21     9    10   ar
    22    10    11   ar
    23    11    12   ar
    24    12    13    1
    25    12    14   ar
    26    14    15   ar
    27    15    16   ar
    28     4     5   ar
    29     5    33    1
    30    33    34    3
    31    34    35    1
    32    35    36   ar
    33    36    37   ar
    34    37    38   ar
    35    38    39   ar
    36    39    40    1
    37    39    41   ar
    38    41    42   ar
    39    42    43   ar
    40    43    44   ar
    41    44    45   ar
    42     5     6   ar
    43     6     1   ar
    44    16     7   ar
    45    45    35   ar
    46    22    17   ar
    47    16    10   ar
    48    44    38   ar
    49    31    32    1
    50    26    27    1
@<TRIPOS>MOLECULE
*****
 45 50 0 0 0
SMALL
GASTEIGER

@<TRIPOS>ATOM
      1 C          -2.4424    4.4159   24.5345 C.ar    1  UNL1        0.1348
      2 C          -1.9225    5.0815   25.7741 C.ar    1  UNL1        0.0346
      3 C          -0.5815    4.6972   26.3255 C.ar    1  UNL1        0.0065
      4 C           0.2396    3.6474   25.6374 C.ar    1  UNL1        0.0432
      5 C          -0.2803    2.9818   24.3978 C.ar    1  UNL1        0.1256
      6 N          -1.6213    3.3660   23.8463 N.ar    1  UNL1       -0.2222
      7 C           1.5806    3.2631   26.1889 C.ar    1  UNL1        0.0850
      8 C           1.8265    2.3444   27.3489 C.ar    1  UNL1        0.1001
      9 N           3.3090    2.2436   27.5541 N.ar    1  UNL1       -0.2264
     10 C           3.9793    3.0999   26.5210 C.ar    1  UNL1        0.1474
     11 C           5.4243    3.3874   26.2396 C.ar    1  UNL1        0.0332
     12 C           5.8011    4.3050   25.1143 C.ar    1  UNL1       -0.0174
     13 C           7.2461    4.5924   24.8329 C.3     1  UNL1        0.0312
     14 C           4.7329    4.9351   24.2705 C.ar    1  UNL1        0.0149
     15 C           3.2879    4.6476   24.5520 C.ar    1  UNL1        0.0811
     16 N           2.9110    3.7300   25.6773 N.ar    1  UNL1       -0.2888
     17 C           0.7747    1.6487   28.1610 C.ar    1  UNL1        0.0327
     18 C          -0.0576    0.5658   27.5407 C.ar    1  UNL1        0.0043
     19 C          -1.1095   -0.1300   28.3529 C.ar    1  UNL1        0.0207
     20 C          -1.3291    0.2572   29.7853 C.ar    1  UNL1        0.0984
     21 N          -0.4968    1.3400   30.4056 N.ar    1  UNL1       -0.2481
     22 C           0.5550    2.0358   29.5934 C.ar    1  UNL1        0.0609
     23 C           1.3873    3.1187   30.2138 C.3     1  UNL1        0.0521
     24 C          -5.0351    4.3852   24.6976 C.2     1  UNL1        0.2414
     25 O          -4.9460    3.5858   25.9638 O.2     1  UNL1       -0.2733
     26 N          -3.7833    4.8001   23.9830 N.am    1  UNL1       -0.2682
     27 H          -3.8419    5.3247   23.1519 H       1  UNL1        0.1563
     28 C          -6.3761    4.7694   24.1461 C.3     1  UNL1        0.1319
     29 C          -6.7857    4.3062   22.7795 C.3     1  UNL1        0.0270
     30 C          -8.4268    6.3579   24.2920 C.3     1  UNL1        0.0862
     31 N          -7.3074    5.6169   24.9612 N.3     1  UNL1       -0.2902
     32 H          -7.7341    5.0023   25.6545 H       1  UNL1        0.1237
     33 C           0.5408    1.9318   23.7096 C.1     1  UNL1       -0.0404
     34 C           1.3619    0.8820   23.0215 C.1     1  UNL1       -0.0583
     35 C           2.1830   -0.1680   22.3334 C.ar    1  UNL1        0.0420
     36 C           2.0242   -0.3977   20.8596 C.ar    1  UNL1        0.0083
     37 C           2.8453   -1.4476   20.1715 C.ar    1  UNL1        0.0018
     38 C           3.8252   -2.2677   20.9572 C.ar    1  UNL1        0.0137
     39 C           4.6463   -3.3177   20.2690 C.ar    1  UNL1        0.0594
     40 C           4.4875   -3.5474   18.7952 C.3     1  UNL1        0.0521
     41 N           5.6261   -4.1378   21.0546 N.ar    1  UNL1       -0.2481
     42 C           5.7849   -3.9080   22.5284 C.ar    1  UNL1        0.0984
     43 C           4.9638   -2.8582   23.2165 C.ar    1  UNL1        0.0207
     44 C           3.9839   -2.0380   22.4309 C.ar    1  UNL1        0.0033
     45 C           3.1629   -0.9881   23.1190 C.ar    1  UNL1        0.0083
@<TRIPOS>BOND
     1    30    31    1
     2    31    28    1
     3    28    29    1
     4    28    24    1
     5    24    25    2
     6    24    26   am
     7    26     1    1
     8     1     2   ar
     9     2     3   ar
    10     3     4   ar
    11     4     7    1
    12     7     8   ar
    13     8    17    1
    14    17    18   ar
    15    18    19   ar
    16    19    20   ar
    17    20    21   ar
    18    21    22   ar
    19    22    23    1
    20     8     9   ar
    21     9    10   ar
    22    10    11   ar
    23    11    12   ar
    24    12    13    1
    25    12    14   ar
    26    14    15   ar
    27    15    16   ar
    28     4     5   ar
    29     5    33    1
    30    33    34    3
    31    34    35    1
    32    35    36   ar
    33    36    37   ar
    34    37    38   ar
    35    38    39   ar
    36    39    40    1
    37    39    41   ar
    38    41    42   ar
    39    42    43   ar
    40    43    44   ar
    41    44    45   ar
    42     5     6   ar
    43     6     1   ar
    44    16     7   ar
    45    45    35   ar
    46    22    17   ar
    47    16    10   ar
    48    44    38   ar
    49    31    32    1
    50    26    27    1
@<TRIPOS>MOLECULE
*****
 45 50 0 0 0
SMALL
GASTEIGER

@<TRIPOS>ATOM
      1 C           3.8456   -1.0243   24.7368 C.ar    1  UNL1        0.1348
      2 C           5.1841   -1.3896   24.1669 C.ar    1  UNL1        0.0346
      3 C           5.5290   -1.0075   22.7580 C.ar    1  UNL1        0.0065
      4 C           4.5353   -0.2600   21.9190 C.ar    1  UNL1        0.0432
      5 C           3.1968    0.1053   22.4890 C.ar    1  UNL1        0.1256
      6 N           2.8520   -0.2768   23.8979 N.ar    1  UNL1       -0.2222
      7 C           4.8802    0.1222   20.5101 C.ar    1  UNL1        0.0850
      8 C           4.9760   -0.8129   19.3412 C.ar    1  UNL1        0.1001
      9 N           5.3448   -0.0065   18.1314 N.ar    1  UNL1       -0.2264
     10 C           5.4770    1.4271   18.5526 C.ar    1  UNL1        0.1474
     11 C           5.8217    2.6704   17.7875 C.ar    1  UNL1        0.0332
     12 C           5.8792    3.9931   18.4924 C.ar    1  UNL1       -0.0174
     13 C           6.2239    5.2364   17.7273 C.3     1  UNL1        0.0312
     14 C           5.5921    4.0727   19.9626 C.ar    1  UNL1        0.0149
     15 C           5.2474    2.8295   20.7277 C.ar    1  UNL1        0.0811
     16 N           5.1898    1.5066   20.0228 N.ar    1  UNL1       -0.2888
     17 C           4.7438   -2.2944   19.3760 C.ar    1  UNL1        0.0327
     18 C           3.3742   -2.8454   19.1097 C.ar    1  UNL1        0.0043
     19 C           3.1419   -4.3269   19.1444 C.ar    1  UNL1        0.0207
     20 C           4.2792   -5.2575   19.4454 C.ar    1  UNL1        0.0984
     21 N           5.6487   -4.7065   19.7117 N.ar    1  UNL1       -0.2481
     22 C           5.8809   -3.2250   19.6770 C.ar    1  UNL1        0.0609
     23 C           7.2505   -2.6742   19.9433 C.3     1  UNL1        0.0521
     24 C           3.4914   -0.3645   27.2246 C.2     1  UNL1        0.2414
     25 O           3.8270    1.0598   26.8946 O.2     1  UNL1       -0.2733
     26 N           3.5007   -1.4065   26.1457 N.am    1  UNL1       -0.2682
     27 H           3.2805   -2.3413   26.3623 H       1  UNL1        0.1563
     28 C           3.1466   -0.7467   28.6335 C.3     1  UNL1        0.1319
     29 C           4.2380   -0.9818   29.6354 C.3     1  UNL1        0.0270
     30 C           0.6872    0.0865   28.5485 C.3     1  UNL1        0.0862
     31 N           1.7104   -0.8937   29.0406 N.3     1  UNL1       -0.2902
     32 H           1.4086   -1.8164   28.7276 H       1  UNL1        0.1237
     33 C           2.2031    0.8529   21.6500 C.1     1  UNL1       -0.0404
     34 C           1.2095    1.6004   20.8111 C.1     1  UNL1       -0.0583
     35 C           0.2157    2.3479   19.9721 C.ar    1  UNL1        0.0420
     36 C           0.5301    2.6634   18.5398 C.ar    1  UNL1        0.0083
     37 C          -0.4636    3.4108   17.7009 C.ar    1  UNL1        0.0018
     38 C          -1.7717    3.8429   18.2944 C.ar    1  UNL1        0.0137
     39 C          -2.7654    4.5904   17.4554 C.ar    1  UNL1        0.0594
     40 C          -2.4510    4.9059   16.0231 C.3     1  UNL1        0.0521
     41 N          -4.0735    5.0225   18.0489 N.ar    1  UNL1       -0.2481
     42 C          -4.3879    4.7070   19.4813 C.ar    1  UNL1        0.0984
     43 C          -3.3942    3.9595   20.3201 C.ar    1  UNL1        0.0207
     44 C          -2.0861    3.5274   19.7267 C.ar    1  UNL1        0.0033
     45 C          -1.0924    2.7800   20.5656 C.ar    1  UNL1        0.0083
@<TRIPOS>BOND
     1    30    31    1
     2    31    28    1
     3    28    29    1
     4    28    24    1
     5    24    25    2
     6    24    26   am
     7    26     1    1
     8     1     2   ar
     9     2     3   ar
    10     3     4   ar
    11     4     7    1
    12     7     8   ar
    13     8    17    1
    14    17    18   ar
    15    18    19   ar
    16    19    20   ar
    17    20    21   ar
    18    21    22   ar
    19    22    23    1
    20     8     9   ar
    21     9    10   ar
    22    10    11   ar
    23    11    12   ar
    24    12    13    1
    25    12    14   ar
    26    14    15   ar
    27    15    16   ar
    28     4     5   ar
    29     5    33    1
    30    33    34    3
    31    34    35    1
    32    35    36   ar
    33    36    37   ar
    34    37    38   ar
    35    38    39   ar
    36    39    40    1
    37    39    41   ar
    38    41    42   ar
    39    42    43   ar
    40    43    44   ar
    41    44    45   ar
    42     5     6   ar
    43     6     1   ar
    44    16     7   ar
    45    45    35   ar
    46    22    17   ar
    47    16    10   ar
    48    44    38   ar
    49    31    32    1
    50    26    27    1
@<TRIPOS>MOLECULE
*****
 45 50 0 0 0
SMALL
GASTEIGER

@<TRIPOS>ATOM
      1 C          -0.2068    1.8055   20.5029 C.ar    1  UNL1        0.1348
      2 C           0.2367    1.7928   19.0700 C.ar    1  UNL1        0.0346
      3 C           1.5100    1.0994   18.6851 C.ar    1  UNL1        0.0065
      4 C           2.3397    0.4189   19.7331 C.ar    1  UNL1        0.0432
      5 C           1.8962    0.4316   21.1660 C.ar    1  UNL1        0.1256
      6 N           0.6229    1.1249   21.5508 N.ar    1  UNL1       -0.2222
      7 C           3.6129   -0.2745   19.3482 C.ar    1  UNL1        0.0850
      8 C           4.9188    0.3920   19.0312 C.ar    1  UNL1        0.1001
      9 N           5.9168   -0.6776   18.6998 N.ar    1  UNL1       -0.2264
     10 C           5.2278   -2.0053   18.8121 C.ar    1  UNL1        0.1474
     11 C           5.7129   -3.4089   18.6013 C.ar    1  UNL1        0.0332
     12 C           4.7742   -4.5633   18.7912 C.ar    1  UNL1       -0.0174
     13 C           5.2594   -5.9670   18.5803 C.3     1  UNL1        0.0312
     14 C           3.3503   -4.3143   19.1919 C.ar    1  UNL1        0.0149
     15 C           2.8652   -2.9106   19.4028 C.ar    1  UNL1        0.0811
     16 N           3.8039   -1.7561   19.2129 N.ar    1  UNL1       -0.2888
     17 C           5.1806    1.8689   19.0433 C.ar    1  UNL1        0.0327
     18 C           4.9382    2.6838   17.8074 C.ar    1  UNL1        0.0043
     19 C           5.2001    4.1607   17.8195 C.ar    1  UNL1        0.0207
     20 C           5.7044    4.8228   19.0674 C.ar    1  UNL1        0.0984
     21 N           5.9468    4.0080   20.3032 N.ar    1  UNL1       -0.2481
     22 C           5.6849    2.5311   20.2911 C.ar    1  UNL1        0.0609
     23 C           5.9274    1.7163   21.5270 C.3     1  UNL1        0.0521
     24 C          -1.4358    3.7194   21.7585 C.2     1  UNL1        0.2414
     25 O          -0.1182    4.2466   22.2445 O.2     1  UNL1       -0.2733
     26 N          -1.4800    2.4989   20.8877 N.am    1  UNL1       -0.2682
     27 H          -2.3448    2.1529   20.5688 H       1  UNL1        0.1563
     28 C          -2.7090    4.4127   22.1434 C.3     1  UNL1        0.1319
     29 C          -2.6614    5.6658   22.9666 C.3     1  UNL1        0.0270
     30 C          -4.9187    3.1636   22.6973 C.3     1  UNL1        0.0862
     31 N          -4.0298    3.8531   21.7051 N.3     1  UNL1       -0.2902
     32 H          -4.5660    4.6307   21.3201 H       1  UNL1        0.1237
     33 C           2.7259   -0.2490   22.2140 C.1     1  UNL1       -0.0404
     34 C           3.5556   -0.9296   23.2620 C.1     1  UNL1       -0.0583
     35 C           4.3853   -1.6103   24.3101 C.ar    1  UNL1        0.0420
     36 C           4.2874   -1.1766   25.7427 C.ar    1  UNL1        0.0083
     37 C           5.1171   -1.8572   26.7906 C.ar    1  UNL1        0.0018
     38 C           6.0448   -2.9715   26.4060 C.ar    1  UNL1        0.0137
     39 C           6.8745   -3.6521   27.4541 C.ar    1  UNL1        0.0594
     40 C           6.7765   -3.2185   28.8867 C.3     1  UNL1        0.0521
     41 N           7.8022   -4.7663   27.0695 N.ar    1  UNL1       -0.2481
     42 C           7.9001   -5.1999   25.6368 C.ar    1  UNL1        0.0984
     43 C           7.0704   -4.5193   24.5888 C.ar    1  UNL1        0.0207
     44 C           6.1427   -3.4051   24.9735 C.ar    1  UNL1        0.0033
     45 C           5.3130   -2.7245   23.9255 C.ar    1  UNL1        0.0083
@<TRIPOS>BOND
     1    30    31    1
     2    31    28    1
     3    28    29    1
     4    28    24    1
     5    24    25    2
     6    24    26   am
     7    26     1    1
     8     1     2   ar
     9     2     3   ar
    10     3     4   ar
    11     4     7    1
    12     7     8   ar
    13     8    17    1
    14    17    18   ar
    15    18    19   ar
    16    19    20   ar
    17    20    21   ar
    18    21    22   ar
    19    22    23    1
    20     8     9   ar
    21     9    10   ar
    22    10    11   ar
    23    11    12   ar
    24    12    13    1
    25    12    14   ar
    26    14    15   ar
    27    15    16   ar
    28     4     5   ar
    29     5    33    1
    30    33    34    3
    31    34    35    1
    32    35    36   ar
    33    36    37   ar
    34    37    38   ar
    35    38    39   ar
    36    39    40    1
    37    39    41   ar
    38    41    42   ar
    39    42    43   ar
    40    43    44   ar
    41    44    45   ar
    42     5     6   ar
    43     6     1   ar
    44    16     7   ar
    45    45    35   ar
    46    22    17   ar
    47    16    10   ar
    48    44    38   ar
    49    31    32    1
    50    26    27    1
@<TRIPOS>MOLECULE
*****
 45 50 0 0 0
SMALL
GASTEIGER

@<TRIPOS>ATOM
      1 C           6.8897   -2.6456   27.9829 C.ar    1  UNL1        0.1348
      2 C           7.7635   -2.9649   26.8062 C.ar    1  UNL1        0.0346
      3 C           7.3789   -2.4910   25.4360 C.ar    1  UNL1        0.0065
      4 C           6.1207   -1.6978   25.2424 C.ar    1  UNL1        0.0432
      5 C           5.2469   -1.3785   26.4190 C.ar    1  UNL1        0.1256
      6 N           5.6314   -1.8524   27.7893 N.ar    1  UNL1       -0.2222
      7 C           5.7361   -1.2240   23.8721 C.ar    1  UNL1        0.0850
      8 C           5.8455    0.1826   23.3627 C.ar    1  UNL1        0.1001
      9 N           5.3517    0.2024   21.9464 N.ar    1  UNL1       -0.2264
     10 C           4.9371   -1.1919   21.5806 C.ar    1  UNL1        0.1474
     11 C           4.3739   -1.7728   20.3175 C.ar    1  UNL1        0.0332
     12 C           4.0483   -3.2352   20.2446 C.ar    1  UNL1       -0.0174
     13 C           3.4851   -3.8161   18.9815 C.3     1  UNL1        0.0312
     14 C           4.2858   -4.1168   21.4347 C.ar    1  UNL1        0.0149
     15 C           4.8490   -3.5360   22.6978 C.ar    1  UNL1        0.0811
     16 N           5.1747   -2.0735   22.7707 N.ar    1  UNL1       -0.2888
     17 C           6.3587    1.3623   24.1340 C.ar    1  UNL1        0.0327
     18 C           5.3960    2.3580   24.7102 C.ar    1  UNL1        0.0043
     19 C           5.9091    3.5377   25.4815 C.ar    1  UNL1        0.0207
     20 C           7.3849    3.7218   25.6768 C.ar    1  UNL1        0.0984
     21 N           8.3476    2.7261   25.1006 N.ar    1  UNL1       -0.2481
     22 C           7.8344    1.5464   24.3293 C.ar    1  UNL1        0.0609
     23 C           8.7972    0.5507   23.7532 C.3     1  UNL1        0.0521
     24 C           6.9127   -4.5062   29.7961 C.2     1  UNL1        0.2414
     25 O           6.1665   -5.4191   28.8687 O.2     1  UNL1       -0.2733
     26 N           7.2742   -3.1195   29.3531 N.am    1  UNL1       -0.2682
     27 H           7.7639   -2.5203   29.9618 H       1  UNL1        0.1563
     28 C           7.2972   -4.9800   31.1663 C.3     1  UNL1        0.1319
     29 C           8.5503   -5.7819   31.3584 C.3     1  UNL1        0.0270
     30 C           5.9213   -3.2536   32.5360 C.3     1  UNL1        0.0862
     31 N           6.4287   -4.6521   32.3445 N.3     1  UNL1       -0.2902
     32 H           5.6095   -5.2568   32.2837 H       1  UNL1        0.1237
     33 C           3.9885   -0.5853   26.2255 C.1     1  UNL1       -0.0404
     34 C           2.7303    0.2079   26.0319 C.1     1  UNL1       -0.0583
     35 C           1.4719    1.0012   25.8383 C.ar    1  UNL1        0.0420
     36 C           0.5652    1.2655   27.0036 C.ar    1  UNL1        0.0083
     37 C          -0.6931    2.0586   26.8100 C.ar    1  UNL1        0.0018
     38 C          -1.0446    2.5876   25.4511 C.ar    1  UNL1        0.0137
     39 C          -2.3030    3.3808   25.2575 C.ar    1  UNL1        0.0594
     40 C          -3.2097    3.6451   26.4228 C.3     1  UNL1        0.0521
     41 N          -2.6546    3.9097   23.8986 N.ar    1  UNL1       -0.2481
     42 C          -1.7478    3.6454   22.7332 C.ar    1  UNL1        0.0984
     43 C          -0.4895    2.8522   22.9268 C.ar    1  UNL1        0.0207
     44 C          -0.1379    2.3233   24.2858 C.ar    1  UNL1        0.0033
     45 C           1.1203    1.5301   24.4794 C.ar    1  UNL1        0.0083
@<TRIPOS>BOND
     1    30    31    1
     2    31    28    1
     3    28    29    1
     4    28    24    1
     5    24    25    2
     6    24    26   am
     7    26     1    1
     8     1     2   ar
     9     2     3   ar
    10     3     4   ar
    11     4     7    1
    12     7     8   ar
    13     8    17    1
    14    17    18   ar
    15    18    19   ar
    16    19    20   ar
    17    20    21   ar
    18    21    22   ar
    19    22    23    1
    20     8     9   ar
    21     9    10   ar
    22    10    11   ar
    23    11    12   ar
    24    12    13    1
    25    12    14   ar
    26    14    15   ar
    27    15    16   ar
    28     4     5   ar
    29     5    33    1
    30    33    34    3
    31    34    35    1
    32    35    36   ar
    33    36    37   ar
    34    37    38   ar
    35    38    39   ar
    36    39    40    1
    37    39    41   ar
    38    41    42   ar
    39    42    43   ar
    40    43    44   ar
    41    44    45   ar
    42     5     6   ar
    43     6     1   ar
    44    16     7   ar
    45    45    35   ar
    46    22    17   ar
    47    16    10   ar
    48    44    38   ar
    49    31    32    1
    50    26    27    1
@<TRIPOS>MOLECULE
*****
 45 50 0 0 0
SMALL
GASTEIGER

@<TRIPOS>ATOM
      1 C           2.1139    0.7549   25.2203 C.ar    1  UNL1        0.1348
      2 C           3.5477    0.7947   24.7816 C.ar    1  UNL1        0.0346
      3 C           3.9016    1.3181   23.4211 C.ar    1  UNL1        0.0065
      4 C           2.8215    1.8018   22.4994 C.ar    1  UNL1        0.0432
      5 C           1.3877    1.7620   22.9381 C.ar    1  UNL1        0.1256
      6 N           1.0339    1.2386   24.2986 N.ar    1  UNL1       -0.2222
      7 C           3.1754    2.3252   21.1390 C.ar    1  UNL1        0.0850
      8 C           3.6717    1.5096   19.9821 C.ar    1  UNL1        0.1001
      9 N           3.8981    2.4365   18.8246 N.ar    1  UNL1       -0.2264
     10 C           3.5416    3.8250   19.2662 C.ar    1  UNL1        0.1474
     11 C           3.5661    5.1431   18.5506 C.ar    1  UNL1        0.0332
     12 C           3.1438    6.3924   19.2654 C.ar    1  UNL1       -0.0174
     13 C           3.1683    7.7105   18.5498 C.3     1  UNL1        0.0312
     14 C           2.6972    6.3237   20.6957 C.ar    1  UNL1        0.0149
     15 C           2.6727    5.0056   21.4113 C.ar    1  UNL1        0.0811
     16 N           3.0950    3.7562   20.6965 N.ar    1  UNL1       -0.2888
     17 C           3.9014    0.0273   19.9825 C.ar    1  UNL1        0.0327
     18 C           5.2935   -0.5160   20.1134 C.ar    1  UNL1        0.0043
     19 C           5.5231   -1.9983   20.1139 C.ar    1  UNL1        0.0207
     20 C           4.3608   -2.9374   19.9834 C.ar    1  UNL1        0.0984
     21 N           2.9688   -2.3941   19.8525 N.ar    1  UNL1       -0.2481
     22 C           2.7391   -0.9118   19.8521 C.ar    1  UNL1        0.0609
     23 C           1.3470   -0.3687   19.7212 C.3     1  UNL1        0.0521
     24 C           1.3924    1.1848   27.6788 C.2     1  UNL1        0.2414
     25 O           1.3784    2.6617   27.4165 O.2     1  UNL1       -0.2733
     26 N           1.7601    0.2315   26.5808 N.am    1  UNL1       -0.2682
     27 H           1.7693   -0.7378   26.7529 H       1  UNL1        0.1563
     28 C           1.0385    0.6614   29.0393 C.3     1  UNL1        0.1319
     29 C           1.6590    1.2701   30.2618 C.3     1  UNL1        0.0270
     30 C          -1.3515   -0.3029   28.7112 C.3     1  UNL1        0.0862
     31 N           0.0643   -0.4707   29.1773 N.3     1  UNL1       -0.2902
     32 H           0.4533   -1.2587   28.6594 H       1  UNL1        0.1237
     33 C           0.3076    2.2457   22.0164 C.1     1  UNL1       -0.0404
     34 C          -0.7724    2.7293   21.0947 C.1     1  UNL1       -0.0583
     35 C          -1.8525    3.2130   20.1729 C.ar    1  UNL1        0.0420
     36 C          -1.4964    3.7629   18.8236 C.ar    1  UNL1        0.0083
     37 C          -2.5764    4.2465   17.9020 C.ar    1  UNL1        0.0018
     38 C          -4.0126    4.1802   18.3296 C.ar    1  UNL1        0.0137
     39 C          -5.0927    4.6639   17.4079 C.ar    1  UNL1        0.0594
     40 C          -4.7366    5.2138   16.0586 C.3     1  UNL1        0.0521
     41 N          -6.5290    4.5976   17.8355 N.ar    1  UNL1       -0.2481
     42 C          -6.8851    4.0476   19.1849 C.ar    1  UNL1        0.0984
     43 C          -5.8050    3.5640   20.1066 C.ar    1  UNL1        0.0207
     44 C          -4.3688    3.6303   19.6789 C.ar    1  UNL1        0.0033
     45 C          -3.2887    3.1467   20.6006 C.ar    1  UNL1        0.0083
@<TRIPOS>BOND
     1    30    31    1
     2    31    28    1
     3    28    29    1
     4    28    24    1
     5    24    25    2
     6    24    26   am
     7    26     1    1
     8     1     2   ar
     9     2     3   ar
    10     3     4   ar
    11     4     7    1
    12     7     8   ar
    13     8    17    1
    14    17    18   ar
    15    18    19   ar
    16    19    20   ar
    17    20    21   ar
    18    21    22   ar
    19    22    23    1
    20     8     9   ar
    21     9    10   ar
    22    10    11   ar
    23    11    12   ar
    24    12    13    1
    25    12    14   ar
    26    14    15   ar
    27    15    16   ar
    28     4     5   ar
    29     5    33    1
    30    33    34    3
    31    34    35    1
    32    35    36   ar
    33    36    37   ar
    34    37    38   ar
    35    38    39   ar
    36    39    40    1
    37    39    41   ar
    38    41    42   ar
    39    42    43   ar
    40    43    44   ar
    41    44    45   ar
    42     5     6   ar
    43     6     1   ar
    44    16     7   ar
    45    45    35   ar
    46    22    17   ar
    47    16    10   ar
    48    44    38   ar
    49    31    32    1
    50    26    27    1
@<TRIPOS>MOLECULE
*****
 45 50 0 0 0
SMALL
GASTEIGER

@<TRIPOS>ATOM
      1 C           6.3485   -3.3264   25.0596 C.ar    1  UNL1        0.1348
      2 C           7.3690   -2.9755   24.0178 C.ar    1  UNL1        0.0346
      3 C           7.1480   -1.7950   23.1191 C.ar    1  UNL1        0.0065
      4 C           5.9066   -0.9654   23.2622 C.ar    1  UNL1        0.0432
      5 C           4.8861   -1.3163   24.3040 C.ar    1  UNL1        0.1256
      6 N           5.1070   -2.4968   25.2027 N.ar    1  UNL1       -0.2222
      7 C           5.6857    0.2151   22.3635 C.ar    1  UNL1        0.0850
      8 C           5.2210    0.1634   20.9382 C.ar    1  UNL1        0.1001
      9 N           5.1388    1.5709   20.4261 N.ar    1  UNL1       -0.2264
     10 C           5.5526    2.4925   21.5349 C.ar    1  UNL1        0.1474
     11 C           5.6653    3.9864   21.6090 C.ar    1  UNL1        0.0332
     12 C           6.1161    4.6423   22.8804 C.ar    1  UNL1       -0.0174
     13 C           6.2288    6.1362   22.9545 C.3     1  UNL1        0.0312
     14 C           6.4541    3.8044   24.0778 C.ar    1  UNL1        0.0149
     15 C           6.3414    2.3105   24.0037 C.ar    1  UNL1        0.0811
     16 N           5.8906    1.6545   22.7323 N.ar    1  UNL1       -0.2888
     17 C           4.8957   -1.0778   20.1614 C.ar    1  UNL1        0.0327
     18 C           5.9697   -1.7787   19.3832 C.ar    1  UNL1        0.0043
     19 C           5.6444   -3.0199   18.6063 C.ar    1  UNL1        0.0207
     20 C           4.2451   -3.5604   18.6076 C.ar    1  UNL1        0.0984
     21 N           3.1712   -2.8596   19.3858 N.ar    1  UNL1       -0.2481
     22 C           3.4965   -1.6183   20.1626 C.ar    1  UNL1        0.0609
     23 C           2.4225   -0.9175   20.9408 C.3     1  UNL1        0.0521
     24 C           7.3287   -4.3411   27.2412 C.2     1  UNL1        0.2414
     25 O           7.8671   -2.9948   27.6254 O.2     1  UNL1       -0.2733
     26 N           6.5694   -4.5069   25.9582 N.am    1  UNL1       -0.2682
     27 H           6.2160   -5.3905   25.7060 H       1  UNL1        0.1563
     28 C           7.5496   -5.5216   28.1398 C.3     1  UNL1        0.1319
     29 C           8.7434   -6.4067   27.9356 C.3     1  UNL1        0.0270
     30 C           7.0017   -5.6782   30.6746 C.3     1  UNL1        0.0862
     31 N           6.5769   -5.8170   29.2428 N.3     1  UNL1       -0.2902
     32 H           5.7820   -5.1919   29.1095 H       1  UNL1        0.1237
     33 C           3.6446   -0.4867   24.4471 C.1     1  UNL1       -0.0404
     34 C           2.4031    0.3428   24.5902 C.1     1  UNL1       -0.0583
     35 C           1.1615    1.1725   24.7334 C.ar    1  UNL1        0.0420
     36 C           0.4767    1.2741   26.0640 C.ar    1  UNL1        0.0083
     37 C          -0.7647    2.1037   26.2071 C.ar    1  UNL1        0.0018
     38 C          -1.3214    2.8316   25.0196 C.ar    1  UNL1        0.0137
     39 C          -2.5629    3.6612   25.1627 C.ar    1  UNL1        0.0594
     40 C          -3.2477    3.7629   26.4934 C.3     1  UNL1        0.0521
     41 N          -3.1196    4.3892   23.9752 N.ar    1  UNL1       -0.2481
     42 C          -2.4347    4.2875   22.6445 C.ar    1  UNL1        0.0984
     43 C          -1.1932    3.4579   22.5014 C.ar    1  UNL1        0.0207
     44 C          -0.6366    2.7300   23.6889 C.ar    1  UNL1        0.0033
     45 C           0.6049    1.9004   23.5458 C.ar    1  UNL1        0.0083
@<TRIPOS>BOND
     1    30    31    1
     2    31    28    1
     3    28    29    1
     4    28    24    1
     5    24    25    2
     6    24    26   am
     7    26     1    1
     8     1     2   ar
     9     2     3   ar
    10     3     4   ar
    11     4     7    1
    12     7     8   ar
    13     8    17    1
    14    17    18   ar
    15    18    19   ar
    16    19    20   ar
    17    20    21   ar
    18    21    22   ar
    19    22    23    1
    20     8     9   ar
    21     9    10   ar
    22    10    11   ar
    23    11    12   ar
    24    12    13    1
    25    12    14   ar
    26    14    15   ar
    27    15    16   ar
    28     4     5   ar
    29     5    33    1
    30    33    34    3
    31    34    35    1
    32    35    36   ar
    33    36    37   ar
    34    37    38   ar
    35    38    39   ar
    36    39    40    1
    37    39    41   ar
    38    41    42   ar
    39    42    43   ar
    40    43    44   ar
    41    44    45   ar
    42     5     6   ar
    43     6     1   ar
    44    16     7   ar
    45    45    35   ar
    46    22    17   ar
    47    16    10   ar
    48    44    38   ar
    49    31    32    1
    50    26    27    1
