@<TRIPOS>MOLECULE
*****
 33 35 0 0 0
SMALL
GASTEIGER

@<TRIPOS>ATOM
      1 N           3.4725   -1.1832   22.2242 N.pl3   1  UNL1       -0.3037
      2 C           2.7329   -0.2860   21.2765 C.ar    1  UNL1        0.0490
      3 C           1.3522   -0.6530   20.8196 C.ar    1  UNL1        0.0153
      4 C           0.6126    0.2442   19.8719 C.ar    1  UNL1        0.0124
      5 C           1.2537    1.5083   19.3811 C.ar    1  UNL1        0.0791
      6 C           2.6346    1.8753   19.8380 C.ar    1  UNL1        0.0685
      7 CL          3.2757    3.1394   19.3472 Cl      1  UNL1       -0.0815
      8 C           3.3742    0.9781   20.7857 C.ar    1  UNL1        0.0266
      9 C           0.5141    2.4054   18.4334 C.1     1  UNL1        0.1013
     10 N          -0.2255    3.3026   17.4857 N.1     1  UNL1       -0.1908
     11 N           2.9246    0.0919   25.8491 N.3     1  UNL1       -0.1577
     12 C           3.9024   -1.0224   26.0785 C.3     1  UNL1        0.0972
     13 C           4.2266   -1.6357   24.7484 C.3     1  UNL1        0.0403
     14 C           3.4493   -0.9004   23.6972 C.3     1  UNL1        0.0922
     15 C           2.6446    0.1673   24.3774 C.3     1  UNL1        0.1151
     16 S           2.3312    0.9755   26.9058 S.O2    1  UNL1        0.0439
     17 O           2.6322   -0.0642   27.9443 O.2     1  UNL1       -0.1573
     18 O           2.0301    2.0153   25.8674 O.2     1  UNL1       -0.1573
     19 C           1.7377    1.8592   27.9626 C.3     1  UNL1        0.1690
     20 C           0.2845    1.5747   30.0975 C.3     1  UNL1        0.0019
     21 C           0.4357    1.4865   28.6078 C.3     1  UNL1        0.0253
     22 C          -0.7149    1.0255   27.7631 C.3     1  UNL1        0.0019
     23 C           4.2354   -2.3631   21.6990 C.3     1  UNL1        0.1176
     24 C           5.2535   -2.1751   20.6136 C.ar    1  UNL1        0.0015
     25 C           6.4433   -1.2918   20.8462 C.ar    1  UNL1       -0.0027
     26 C           7.4614   -1.1038   19.7608 C.ar    1  UNL1       -0.0003
     27 C           7.2899   -1.7993   18.4429 C.ar    1  UNL1       -0.0001
     28 C           6.1001   -2.6827   18.2103 C.ar    1  UNL1        0.0036
     29 C           5.0819   -2.8707   19.2957 C.ar    1  UNL1        0.0691
     30 C           3.8922   -3.7540   19.0632 C.3     1  UNL1        0.4183
     31 F           2.7025   -4.6374   18.8306 F       1  UNL1       -0.1659
     32 F           3.0566   -2.5473   18.7539 F       1  UNL1       -0.1659
     33 F           4.7277   -4.9607   19.3724 F       1  UNL1       -0.1659
@<TRIPOS>BOND
     1    20    21    1
     2    21    22    1
     3    21    19    1
     4    19    16    1
     5    16    17    2
     6    16    18    2
     7    16    11    1
     8    11    12    1
     9    12    13    1
    10    13    14    1
    11    14     1    1
    12     1    23    1
    13    23    24    1
    14    24    25   ar
    15    25    26   ar
    16    26    27   ar
    17    27    28   ar
    18    28    29   ar
    19    29    30    1
    20    30    31    1
    21    30    32    1
    22    30    33    1
    23     1     2    1
    24     2     3   ar
    25     3     4   ar
    26     4     5   ar
    27     5     9    1
    28     9    10    3
    29     5     6   ar
    30     6     7    1
    31     6     8   ar
    32    14    15    1
    33    15    11    1
    34    29    24   ar
    35     8     2   ar
@<TRIPOS>MOLECULE
*****
 33 35 0 0 0
SMALL
GASTEIGER

@<TRIPOS>ATOM
      1 N           5.5471   -3.2913   23.1606 N.pl3   1  UNL1       -0.3037
      2 C           4.5717   -2.2050   23.5051 C.ar    1  UNL1        0.0490
      3 C           3.7225   -1.5914   22.4317 C.ar    1  UNL1        0.0153
      4 C           2.7471   -0.5051   22.7763 C.ar    1  UNL1        0.0124
      5 C           2.6211   -0.0324   24.1943 C.ar    1  UNL1        0.0791
      6 C           3.4704   -0.6460   25.2677 C.ar    1  UNL1        0.0685
      7 CL          3.3443   -0.1734   26.6857 Cl      1  UNL1       -0.0815
      8 C           4.4457   -1.7323   24.9232 C.ar    1  UNL1        0.0266
      9 C           1.6457    1.0538   24.5388 C.1     1  UNL1        0.1013
     10 N           0.6704    2.1401   24.8834 N.1     1  UNL1       -0.1908
     11 N           7.8473   -4.7921   25.9032 N.3     1  UNL1       -0.1577
     12 C           8.7205   -3.7012   25.3576 C.3     1  UNL1        0.0972
     13 C           7.9651   -3.0062   24.2638 C.3     1  UNL1        0.0403
     14 C           6.6251   -3.6676   24.1334 C.3     1  UNL1        0.0922
     15 C           6.5523   -4.7713   25.1466 C.3     1  UNL1        0.1151
     16 S           8.2061   -5.7377   27.0109 S.O2    1  UNL1        0.0439
     17 O           7.1108   -6.6648   26.5742 O.2     1  UNL1       -0.1573
     18 O           9.3014   -4.8105   27.4477 O.2     1  UNL1       -0.1573
     19 C           8.5650   -6.6833   28.1186 C.3     1  UNL1        0.1690
     20 C           9.2276   -6.6467   30.6306 C.3     1  UNL1        0.0019
     21 C           8.2474   -6.3274   29.5409 C.3     1  UNL1        0.0253
     22 C           6.9499   -5.6523   29.8733 C.3     1  UNL1        0.0019
     23 C           5.4445   -4.0012   21.8432 C.3     1  UNL1        0.1176
     24 C           5.9428   -3.3384   20.5933 C.ar    1  UNL1        0.0015
     25 C           7.2159   -2.5457   20.6211 C.ar    1  UNL1       -0.0027
     26 C           7.7143   -1.8829   19.3711 C.ar    1  UNL1       -0.0003
     27 C           6.9395   -2.0129   18.0933 C.ar    1  UNL1       -0.0001
     28 C           5.6664   -2.8057   18.0654 C.ar    1  UNL1        0.0036
     29 C           5.1680   -3.4684   19.3154 C.ar    1  UNL1        0.0691
     30 C           3.8950   -4.2611   19.2875 C.3     1  UNL1        0.4183
     31 F           2.6219   -5.0539   19.2597 F       1  UNL1       -0.1659
     32 F           4.6702   -5.4935   18.9269 F       1  UNL1       -0.1659
     33 F           3.1197   -3.0288   19.6482 F       1  UNL1       -0.1659
@<TRIPOS>BOND
     1    20    21    1
     2    21    22    1
     3    21    19    1
     4    19    16    1
     5    16    17    2
     6    16    18    2
     7    16    11    1
     8    11    12    1
     9    12    13    1
    10    13    14    1
    11    14     1    1
    12     1    23    1
    13    23    24    1
    14    24    25   ar
    15    25    26   ar
    16    26    27   ar
    17    27    28   ar
    18    28    29   ar
    19    29    30    1
    20    30    31    1
    21    30    32    1
    22    30    33    1
    23     1     2    1
    24     2     3   ar
    25     3     4   ar
    26     4     5   ar
    27     5     9    1
    28     9    10    3
    29     5     6   ar
    30     6     7    1
    31     6     8   ar
    32    14    15    1
    33    15    11    1
    34    29    24   ar
    35     8     2   ar
@<TRIPOS>MOLECULE
*****
 33 35 0 0 0
SMALL
GASTEIGER

@<TRIPOS>ATOM
      1 N           6.7500   -2.6245   26.3127 N.pl3   1  UNL1       -0.3037
      2 C           5.9347   -2.0965   27.4557 C.ar    1  UNL1        0.0490
      3 C           6.4984   -2.1044   28.8457 C.ar    1  UNL1        0.0153
      4 C           5.6831   -1.5764   29.9887 C.ar    1  UNL1        0.0124
      5 C           4.3040   -1.0406   29.7417 C.ar    1  UNL1        0.0791
      6 C           3.7402   -1.0327   28.3517 C.ar    1  UNL1        0.0685
      7 CL          2.3612   -0.4968   28.1047 Cl      1  UNL1       -0.0815
      8 C           4.5555   -1.5607   27.2087 C.ar    1  UNL1        0.0266
      9 C           3.4887   -0.5126   30.8848 C.1     1  UNL1        0.1013
     10 N           2.6734    0.0153   32.0278 N.1     1  UNL1       -0.1908
     11 N           5.4362   -2.3452   22.6710 N.3     1  UNL1       -0.1577
     12 C           6.2193   -1.0719   22.7950 C.3     1  UNL1        0.0972
     13 C           6.8068   -1.0215   24.1744 C.3     1  UNL1        0.0403
     14 C           6.3867   -2.2637   24.9027 C.3     1  UNL1        0.0922
     15 C           5.5397   -3.0818   23.9736 C.3     1  UNL1        0.1151
     16 S           4.6821   -2.8018   21.4575 S.O2    1  UNL1        0.0439
     17 O           5.0326   -4.2253   21.7752 O.2     1  UNL1       -0.1573
     18 O           4.3315   -1.3784   21.1397 O.2     1  UNL1       -0.1573
     19 C           3.9279   -3.2584   20.2439 C.3     1  UNL1        0.1690
     20 C           4.5241   -5.2505   18.6862 C.3     1  UNL1        0.0019
     21 C           4.6708   -3.8055   19.0611 C.3     1  UNL1        0.0253
     22 C           5.5602   -2.9076   18.2532 C.3     1  UNL1        0.0019
     23 C           7.9285   -3.5132   26.5795 C.3     1  UNL1        0.1176
     24 C           7.9140   -4.9385   26.1125 C.ar    1  UNL1        0.0015
     25 C           8.3801   -5.2789   24.7280 C.ar    1  UNL1       -0.0027
     26 C           8.3657   -6.7043   24.2610 C.ar    1  UNL1       -0.0003
     27 C           7.8851   -7.7893   25.1784 C.ar    1  UNL1       -0.0001
     28 C           7.4190   -7.4489   26.5630 C.ar    1  UNL1        0.0036
     29 C           7.4334   -6.0236   27.0300 C.ar    1  UNL1        0.0691
     30 C           6.9673   -5.6832   28.4145 C.3     1  UNL1        0.4183
     31 F           6.5013   -5.3429   29.7990 F       1  UNL1       -0.1659
     32 F           8.3656   -5.8585   28.9284 F       1  UNL1       -0.1659
     33 F           5.5691   -5.5080   27.9007 F       1  UNL1       -0.1659
@<TRIPOS>BOND
     1    20    21    1
     2    21    22    1
     3    21    19    1
     4    19    16    1
     5    16    17    2
     6    16    18    2
     7    16    11    1
     8    11    12    1
     9    12    13    1
    10    13    14    1
    11    14     1    1
    12     1    23    1
    13    23    24    1
    14    24    25   ar
    15    25    26   ar
    16    26    27   ar
    17    27    28   ar
    18    28    29   ar
    19    29    30    1
    20    30    31    1
    21    30    32    1
    22    30    33    1
    23     1     2    1
    24     2     3   ar
    25     3     4   ar
    26     4     5   ar
    27     5     9    1
    28     9    10    3
    29     5     6   ar
    30     6     7    1
    31     6     8   ar
    32    14    15    1
    33    15    11    1
    34    29    24   ar
    35     8     2   ar
@<TRIPOS>MOLECULE
*****
 33 35 0 0 0
SMALL
GASTEIGER

@<TRIPOS>ATOM
      1 N           6.2873   -2.0870   26.9427 N.pl3   1  UNL1       -0.3037
      2 C           5.9592   -2.5656   25.5595 C.ar    1  UNL1        0.0490
      3 C           6.6868   -3.7427   24.9808 C.ar    1  UNL1        0.0153
      4 C           6.3587   -4.2213   23.5976 C.ar    1  UNL1        0.0124
      5 C           5.3030   -3.5228   22.7930 C.ar    1  UNL1        0.0791
      6 C           4.5753   -2.3456   23.3716 C.ar    1  UNL1        0.0685
      7 CL          3.5196   -1.6471   22.5671 Cl      1  UNL1       -0.0815
      8 C           4.9034   -1.8670   24.7549 C.ar    1  UNL1        0.0266
      9 C           4.9749   -4.0014   21.4098 C.1     1  UNL1        0.1013
     10 N           4.6468   -4.4799   20.0266 N.1     1  UNL1       -0.1908
     11 N           3.5432    0.1210   28.5737 N.3     1  UNL1       -0.1577
     12 C           4.7228    1.0468   28.6152 C.3     1  UNL1        0.0972
     13 C           5.8943    0.3323   28.0092 C.3     1  UNL1        0.0403
     14 C           5.4387   -1.0350   27.5933 C.3     1  UNL1        0.0922
     15 C           3.9857   -1.1656   27.9421 C.3     1  UNL1        0.1151
     16 S           2.1635    0.4280   29.0756 S.O2    1  UNL1        0.0439
     17 O           1.7467   -0.9853   28.7943 O.2     1  UNL1       -0.1573
     18 O           2.5801    1.8412   29.3570 O.2     1  UNL1       -0.1573
     19 C           0.7837    0.7349   29.5776 C.3     1  UNL1        0.1690
     20 C          -1.5535   -0.2523   29.0178 C.3     1  UNL1        0.0019
     21 C          -0.3925    0.6247   28.6531 C.3     1  UNL1        0.0253
     22 C          -0.4077    1.3916   27.3640 C.3     1  UNL1        0.0019
     23 C           7.4639   -2.6604   27.6753 C.3     1  UNL1        0.1176
     24 C           7.2853   -3.2310   29.0510 C.ar    1  UNL1        0.0015
     25 C           7.3391   -2.3304   30.2493 C.ar    1  UNL1       -0.0027
     26 C           7.1606   -2.9010   31.6250 C.ar    1  UNL1       -0.0003
     27 C           6.9283   -4.3722   31.8024 C.ar    1  UNL1       -0.0001
     28 C           6.8745   -5.2729   30.6041 C.ar    1  UNL1        0.0036
     29 C           7.0530   -4.7023   29.2284 C.ar    1  UNL1        0.0691
     30 C           6.9992   -5.6030   28.0301 C.3     1  UNL1        0.4183
     31 F           6.9455   -6.5036   26.8318 F       1  UNL1       -0.1659
     32 F           5.5055   -5.4702   27.9974 F       1  UNL1       -0.1659
     33 F           8.4930   -5.7357   28.0629 F       1  UNL1       -0.1659
@<TRIPOS>BOND
     1    20    21    1
     2    21    22    1
     3    21    19    1
     4    19    16    1
     5    16    17    2
     6    16    18    2
     7    16    11    1
     8    11    12    1
     9    12    13    1
    10    13    14    1
    11    14     1    1
    12     1    23    1
    13    23    24    1
    14    24    25   ar
    15    25    26   ar
    16    26    27   ar
    17    27    28   ar
    18    28    29   ar
    19    29    30    1
    20    30    31    1
    21    30    32    1
    22    30    33    1
    23     1     2    1
    24     2     3   ar
    25     3     4   ar
    26     4     5   ar
    27     5     9    1
    28     9    10    3
    29     5     6   ar
    30     6     7    1
    31     6     8   ar
    32    14    15    1
    33    15    11    1
    34    29    24   ar
    35     8     2   ar
@<TRIPOS>MOLECULE
*****
 33 35 0 0 0
SMALL
GASTEIGER

@<TRIPOS>ATOM
      1 N           3.9438    0.9017   32.8362 N.pl3   1  UNL1       -0.3037
      2 C           4.6690   -0.3872   32.5858 C.ar    1  UNL1        0.0490
      3 C           4.1705   -1.6604   33.2026 C.ar    1  UNL1        0.0153
      4 C           4.8957   -2.9493   32.9522 C.ar    1  UNL1        0.0124
      5 C           6.1194   -2.9651   32.0849 C.ar    1  UNL1        0.0791
      6 C           6.6180   -1.6919   31.4680 C.ar    1  UNL1        0.0685
      7 CL          7.8417   -1.7077   30.6008 Cl      1  UNL1       -0.0815
      8 C           5.8928   -0.4030   31.7184 C.ar    1  UNL1        0.0266
      9 C           6.8446   -4.2541   31.8345 C.1     1  UNL1        0.1013
     10 N           7.5698   -5.5430   31.5841 N.1     1  UNL1       -0.1908
     11 N           0.9351    1.2136   30.4039 N.3     1  UNL1       -0.1577
     12 C           0.5035    2.1221   31.5167 C.3     1  UNL1        0.0972
     13 C           1.5781    2.1159   32.5634 C.3     1  UNL1        0.0403
     14 C           2.6737    1.2035   32.0973 C.3     1  UNL1        0.0922
     15 C           2.2763    0.6459   30.7627 C.3     1  UNL1        0.1151
     16 S           0.1613    0.9238   29.1521 S.O2    1  UNL1        0.0439
     17 O           1.3886    1.1902   28.3318 O.2     1  UNL1       -0.1573
     18 O          -1.0660    0.6573   29.9723 O.2     1  UNL1       -0.1573
     19 C          -0.6125    0.6339   27.9002 C.3     1  UNL1        0.1690
     20 C          -0.1467    1.3418   25.4441 C.3     1  UNL1        0.0019
     21 C          -0.6839    1.6598   26.8081 C.3     1  UNL1        0.0253
     22 C          -1.2924    3.0035   27.0799 C.3     1  UNL1        0.0019
     23 C           4.4886    1.8888   33.8254 C.3     1  UNL1        0.1176
     24 C           4.2099    1.7155   35.2891 C.ar    1  UNL1        0.0015
     25 C           2.9173    2.2071   35.8699 C.ar    1  UNL1       -0.0027
     26 C           2.6387    2.0337   37.3335 C.ar    1  UNL1       -0.0003
     27 C           3.6527    1.3687   38.2164 C.ar    1  UNL1       -0.0001
     28 C           4.9454    0.8770   37.6356 C.ar    1  UNL1        0.0036
     29 C           5.2240    1.0504   36.1720 C.ar    1  UNL1        0.0691
     30 C           6.5167    0.5588   35.5912 C.3     1  UNL1        0.4183
     31 F           7.8093    0.0671   35.0104 F       1  UNL1       -0.1659
     32 F           7.0522    1.9598   35.5972 F       1  UNL1       -0.1659
     33 F           5.9811   -0.8423   35.5852 F       1  UNL1       -0.1659
@<TRIPOS>BOND
     1    20    21    1
     2    21    22    1
     3    21    19    1
     4    19    16    1
     5    16    17    2
     6    16    18    2
     7    16    11    1
     8    11    12    1
     9    12    13    1
    10    13    14    1
    11    14     1    1
    12     1    23    1
    13    23    24    1
    14    24    25   ar
    15    25    26   ar
    16    26    27   ar
    17    27    28   ar
    18    28    29   ar
    19    29    30    1
    20    30    31    1
    21    30    32    1
    22    30    33    1
    23     1     2    1
    24     2     3   ar
    25     3     4   ar
    26     4     5   ar
    27     5     9    1
    28     9    10    3
    29     5     6   ar
    30     6     7    1
    31     6     8   ar
    32    14    15    1
    33    15    11    1
    34    29    24   ar
    35     8     2   ar
@<TRIPOS>MOLECULE
*****
 33 35 0 0 0
SMALL
GASTEIGER

@<TRIPOS>ATOM
      1 N           3.4677   -1.1734   22.4358 N.pl3   1  UNL1       -0.3037
      2 C           2.7763   -0.2986   23.4393 C.ar    1  UNL1        0.0490
      3 C           1.6566    0.6002   23.0054 C.ar    1  UNL1        0.0153
      4 C           0.9652    1.4749   24.0088 C.ar    1  UNL1        0.0124
      5 C           1.3935    1.4508   25.4461 C.ar    1  UNL1        0.0791
      6 C           2.5133    0.5520   25.8800 C.ar    1  UNL1        0.0685
      7 CL          2.9417    0.5279   27.3173 Cl      1  UNL1       -0.0815
      8 C           3.2047   -0.3227   24.8766 C.ar    1  UNL1        0.0266
      9 C           0.7022    2.3255   26.4495 C.1     1  UNL1        0.1013
     10 N           0.0108    3.2003   27.4529 N.1     1  UNL1       -0.1908
     11 N           6.8029   -2.9354   23.3508 N.3     1  UNL1       -0.1577
     12 C           7.3065   -1.6637   22.7348 C.3     1  UNL1        0.0972
     13 C           6.1183   -0.8489   22.3171 C.3     1  UNL1        0.0403
     14 C           4.8806   -1.6170   22.6749 C.3     1  UNL1        0.0922
     15 C           5.3037   -2.9065   23.3138 C.3     1  UNL1        0.1151
     16 S           7.6499   -4.0417   23.9062 S.O2    1  UNL1        0.0439
     17 O           7.0478   -4.9980   22.9198 O.2     1  UNL1       -0.1573
     18 O           8.2522   -3.0855   24.8926 O.2     1  UNL1       -0.1573
     19 C           8.4970   -5.1480   24.4617 C.3     1  UNL1        0.1690
     20 C           8.1821   -7.6894   24.9008 C.3     1  UNL1        0.0019
     21 C           7.8602   -6.2633   25.2368 C.3     1  UNL1        0.0253
     22 C           6.9015   -5.9526   26.3477 C.3     1  UNL1        0.0019
     23 C           2.7463   -1.6044   21.1934 C.3     1  UNL1        0.1176
     24 C           3.2650   -1.1983   19.8458 C.ar    1  UNL1        0.0015
     25 C           3.0827    0.2109   19.3655 C.ar    1  UNL1       -0.0027
     26 C           3.6014    0.6170   18.0179 C.ar    1  UNL1       -0.0003
     27 C           4.3025   -0.3861   17.1507 C.ar    1  UNL1       -0.0001
     28 C           4.4849   -1.7954   17.6310 C.ar    1  UNL1        0.0036
     29 C           3.9662   -2.2015   18.9785 C.ar    1  UNL1        0.0691
     30 C           4.1486   -3.6107   19.4589 C.3     1  UNL1        0.4183
     31 F           4.3309   -5.0200   19.9392 F       1  UNL1       -0.1659
     32 F           5.5146   -3.2599   19.9696 F       1  UNL1       -0.1659
     33 F           2.7825   -3.9616   18.9481 F       1  UNL1       -0.1659
@<TRIPOS>BOND
     1    20    21    1
     2    21    22    1
     3    21    19    1
     4    19    16    1
     5    16    17    2
     6    16    18    2
     7    16    11    1
     8    11    12    1
     9    12    13    1
    10    13    14    1
    11    14     1    1
    12     1    23    1
    13    23    24    1
    14    24    25   ar
    15    25    26   ar
    16    26    27   ar
    17    27    28   ar
    18    28    29   ar
    19    29    30    1
    20    30    31    1
    21    30    32    1
    22    30    33    1
    23     1     2    1
    24     2     3   ar
    25     3     4   ar
    26     4     5   ar
    27     5     9    1
    28     9    10    3
    29     5     6   ar
    30     6     7    1
    31     6     8   ar
    32    14    15    1
    33    15    11    1
    34    29    24   ar
    35     8     2   ar
@<TRIPOS>MOLECULE
*****
 33 35 0 0 0
SMALL
GASTEIGER

@<TRIPOS>ATOM
      1 N           3.4338   -1.1300   22.2195 N.pl3   1  UNL1       -0.3037
      2 C           2.6921   -0.2377   21.2689 C.ar    1  UNL1        0.0490
      3 C           1.3253   -0.6255   20.7880 C.ar    1  UNL1        0.0153
      4 C           0.5836    0.2668   19.8373 C.ar    1  UNL1        0.0124
      5 C           1.2087    1.5468   19.3676 C.ar    1  UNL1        0.0791
      6 C           2.5756    1.9346   19.8485 C.ar    1  UNL1        0.0685
      7 CL          3.2008    3.2146   19.3788 Cl      1  UNL1       -0.0815
      8 C           3.3174    1.0424   20.7991 C.ar    1  UNL1        0.0266
      9 C           0.4670    2.4391   18.4170 C.1     1  UNL1        0.1013
     10 N          -0.2747    3.3314   17.4663 N.1     1  UNL1       -0.1908
     11 N           3.9355   -0.8952   26.0613 N.3     1  UNL1       -0.1577
     12 C           2.8663    0.1345   25.8451 C.3     1  UNL1        0.0972
     13 C           2.5482    0.1718   24.3796 C.3     1  UNL1        0.0403
     14 C           3.4209   -0.8347   23.6902 C.3     1  UNL1        0.0922
     15 C           4.2782   -1.4942   24.7294 C.3     1  UNL1        0.1151
     16 S           4.5534   -1.2615   27.3780 S.O2    1  UNL1        0.0439
     17 O           5.9192   -1.1516   26.7676 O.2     1  UNL1       -0.1573
     18 O           3.1877   -1.3714   27.9885 O.2     1  UNL1       -0.1573
     19 C           5.1714   -1.6278   28.6948 C.3     1  UNL1        0.1690
     20 C           5.3643    0.7882   29.6307 C.3     1  UNL1        0.0019
     21 C           5.0995   -0.6721   29.8487 C.3     1  UNL1        0.0253
     22 C           4.7629   -1.1766   31.2206 C.3     1  UNL1        0.0019
     23 C           4.1885   -2.3175   21.6996 C.3     1  UNL1        0.1176
     24 C           5.2011   -2.1429   20.6068 C.ar    1  UNL1        0.0015
     25 C           6.3928   -1.2580   20.8230 C.ar    1  UNL1       -0.0027
     26 C           7.4054   -1.0834   19.7302 C.ar    1  UNL1       -0.0003
     27 C           7.2263   -1.7937   18.4213 C.ar    1  UNL1       -0.0001
     28 C           6.0345   -2.6787   18.2051 C.ar    1  UNL1        0.0036
     29 C           5.0219   -2.8532   19.2978 C.ar    1  UNL1        0.0691
     30 C           3.8302   -3.7381   19.0817 C.3     1  UNL1        0.4183
     31 F           2.6385   -4.6230   18.8655 F       1  UNL1       -0.1659
     32 F           3.0058   -2.5390   18.7178 F       1  UNL1       -0.1659
     33 F           4.6546   -4.9372   19.4456 F       1  UNL1       -0.1659
@<TRIPOS>BOND
     1    20    21    1
     2    21    22    1
     3    21    19    1
     4    19    16    1
     5    16    17    2
     6    16    18    2
     7    16    11    1
     8    11    12    1
     9    12    13    1
    10    13    14    1
    11    14     1    1
    12     1    23    1
    13    23    24    1
    14    24    25   ar
    15    25    26   ar
    16    26    27   ar
    17    27    28   ar
    18    28    29   ar
    19    29    30    1
    20    30    31    1
    21    30    32    1
    22    30    33    1
    23     1     2    1
    24     2     3   ar
    25     3     4   ar
    26     4     5   ar
    27     5     9    1
    28     9    10    3
    29     5     6   ar
    30     6     7    1
    31     6     8   ar
    32    14    15    1
    33    15    11    1
    34    29    24   ar
    35     8     2   ar
@<TRIPOS>MOLECULE
*****
 33 35 0 0 0
SMALL
GASTEIGER

@<TRIPOS>ATOM
      1 N           1.4755    0.3355   21.7805 N.pl3   1  UNL1       -0.3037
      2 C           2.5788   -0.6680   21.6199 C.ar    1  UNL1        0.0490
      3 C           3.5560   -0.8933   22.7353 C.ar    1  UNL1        0.0153
      4 C           4.6593   -1.8967   22.5747 C.ar    1  UNL1        0.0124
      5 C           4.7854   -2.6749   21.2986 C.ar    1  UNL1        0.0791
      6 C           3.8081   -2.4497   20.1830 C.ar    1  UNL1        0.0685
      7 CL          3.9342   -3.2279   18.9069 Cl      1  UNL1       -0.0815
      8 C           2.7048   -1.4462   20.3437 C.ar    1  UNL1        0.0266
      9 C           5.8886   -3.6784   21.1379 C.1     1  UNL1        0.1013
     10 N           6.9919   -4.6819   20.9773 N.1     1  UNL1       -0.1908
     11 N           0.9173    2.1251   25.1793 N.3     1  UNL1       -0.1577
     12 C           1.8649    3.0725   24.5051 C.3     1  UNL1        0.0972
     13 C           2.1894    2.5173   23.1498 C.3     1  UNL1        0.0403
     14 C           1.4422    1.2269   22.9865 C.3     1  UNL1        0.0922
     15 C           0.6561    0.9845   24.2407 C.3     1  UNL1        0.1151
     16 S           0.3334    2.2894   26.5511 S.O2    1  UNL1        0.0439
     17 O           1.7144    2.4063   27.1248 O.2     1  UNL1       -0.1573
     18 O          -1.0476    2.1726   25.9774 O.2     1  UNL1       -0.1573
     19 C          -0.2505    2.4538   27.9230 C.3     1  UNL1        0.1690
     20 C          -0.6582   -0.0101   28.6394 C.3     1  UNL1        0.0019
     21 C          -0.1104    1.3548   28.9343 C.3     1  UNL1        0.0253
     22 C           0.5775    1.6208   30.2404 C.3     1  UNL1        0.0019
     23 C           0.4055    0.4475   20.7353 C.3     1  UNL1        0.1176
     24 C           0.1064    1.7766   20.1077 C.ar    1  UNL1        0.0015
     25 C          -0.9888    2.6385   20.6624 C.ar    1  UNL1       -0.0027
     26 C          -1.2879    3.9676   20.0347 C.ar    1  UNL1       -0.0003
     27 C          -0.4919    4.4349   18.8524 C.ar    1  UNL1       -0.0001
     28 C           0.6033    3.5730   18.2976 C.ar    1  UNL1        0.0036
     29 C           0.9024    2.2439   18.9252 C.ar    1  UNL1        0.0691
     30 C           1.9976    1.3820   18.3705 C.3     1  UNL1        0.4183
     31 F           3.0928    0.5201   17.8158 F       1  UNL1       -0.1659
     32 F           0.9792    0.5586   17.6392 F       1  UNL1       -0.1659
     33 F           3.0160    2.2053   19.1019 F       1  UNL1       -0.1659
@<TRIPOS>BOND
     1    20    21    1
     2    21    22    1
     3    21    19    1
     4    19    16    1
     5    16    17    2
     6    16    18    2
     7    16    11    1
     8    11    12    1
     9    12    13    1
    10    13    14    1
    11    14     1    1
    12     1    23    1
    13    23    24    1
    14    24    25   ar
    15    25    26   ar
    16    26    27   ar
    17    27    28   ar
    18    28    29   ar
    19    29    30    1
    20    30    31    1
    21    30    32    1
    22    30    33    1
    23     1     2    1
    24     2     3   ar
    25     3     4   ar
    26     4     5   ar
    27     5     9    1
    28     9    10    3
    29     5     6   ar
    30     6     7    1
    31     6     8   ar
    32    14    15    1
    33    15    11    1
    34    29    24   ar
    35     8     2   ar
@<TRIPOS>MOLECULE
*****
 33 35 0 0 0
SMALL
GASTEIGER

@<TRIPOS>ATOM
      1 N           2.4637   -0.4572   20.9555 N.pl3   1  UNL1       -0.3037
      2 C           2.9321   -0.6866   22.3619 C.ar    1  UNL1        0.0490
      3 C           2.3787    0.1441   23.4816 C.ar    1  UNL1        0.0153
      4 C           2.8470   -0.0853   24.8880 C.ar    1  UNL1        0.0124
      5 C           3.8688   -1.1453   25.1748 C.ar    1  UNL1        0.0791
      6 C           4.4222   -1.9761   24.0551 C.ar    1  UNL1        0.0685
      7 CL          5.4440   -3.0361   24.3418 Cl      1  UNL1       -0.0815
      8 C           3.9539   -1.7467   22.6486 C.ar    1  UNL1        0.0266
      9 C           4.3371   -1.3747   26.5812 C.1     1  UNL1        0.1013
     10 N           4.8054   -1.6041   27.9876 N.1     1  UNL1       -0.1908
     11 N           0.2162    2.5830   20.0772 N.3     1  UNL1       -0.1577
     12 C           1.5840    3.1734   19.9017 C.3     1  UNL1        0.0972
     13 C           2.5924    2.1064   20.2093 C.3     1  UNL1        0.0403
     14 C           1.8478    0.8566   20.5750 C.3     1  UNL1        0.0922
     15 C           0.3793    1.1512   20.4933 C.3     1  UNL1        0.1151
     16 S          -1.0859    3.2988   19.8725 S.O2    1  UNL1        0.0439
     17 O          -0.4069    4.2714   18.9543 O.2     1  UNL1       -0.1573
     18 O          -1.7650    2.3263   20.7906 O.2     1  UNL1       -0.1573
     19 C          -2.3881    4.0147   19.6678 C.3     1  UNL1        0.1690
     20 C          -2.1883    5.7384   21.6014 C.3     1  UNL1        0.0019
     21 C          -3.0125    4.7744   20.8006 C.3     1  UNL1        0.0253
     22 C          -4.4609    4.5701   21.1324 C.3     1  UNL1        0.0019
     23 C           2.6113   -1.5415   19.9296 C.3     1  UNL1        0.1176
     24 C           3.9149   -1.7203   19.2094 C.ar    1  UNL1        0.0015
     25 C           4.5855   -0.5415   18.5686 C.ar    1  UNL1       -0.0027
     26 C           5.8891   -0.7203   17.8484 C.ar    1  UNL1       -0.0003
     27 C           6.5221   -2.0778   17.7691 C.ar    1  UNL1       -0.0001
     28 C           5.8515   -3.2567   18.4100 C.ar    1  UNL1        0.0036
     29 C           4.5479   -3.0779   19.1301 C.ar    1  UNL1        0.0691
     30 C           3.8773   -4.2567   19.7710 C.3     1  UNL1        0.4183
     31 F           3.2066   -5.4354   20.4118 F       1  UNL1       -0.1659
     32 F           2.9428   -4.3604   18.6023 F       1  UNL1       -0.1659
     33 F           4.8117   -4.1529   20.9397 F       1  UNL1       -0.1659
@<TRIPOS>BOND
     1    20    21    1
     2    21    22    1
     3    21    19    1
     4    19    16    1
     5    16    17    2
     6    16    18    2
     7    16    11    1
     8    11    12    1
     9    12    13    1
    10    13    14    1
    11    14     1    1
    12     1    23    1
    13    23    24    1
    14    24    25   ar
    15    25    26   ar
    16    26    27   ar
    17    27    28   ar
    18    28    29   ar
    19    29    30    1
    20    30    31    1
    21    30    32    1
    22    30    33    1
    23     1     2    1
    24     2     3   ar
    25     3     4   ar
    26     4     5   ar
    27     5     9    1
    28     9    10    3
    29     5     6   ar
    30     6     7    1
    31     6     8   ar
    32    14    15    1
    33    15    11    1
    34    29    24   ar
    35     8     2   ar
