@<TRIPOS>MOLECULE
*****
 22 25 0 0 0
SMALL
GASTEIGER

@<TRIPOS>ATOM
      1 O          -6.2127  -14.6350   25.5691 O.2     1  UNL1       -0.2638
      2 C          -6.7737  -15.6220   24.5888 C.ar    1  UNL1        0.2947
      3 N          -8.2548  -15.6959   24.3634 N.ar    1  UNL1       -0.3062
      4 C          -8.8159  -16.6829   23.3830 C.ar    1  UNL1        0.1338
      5 N          -7.8959  -17.5959   22.6281 N.ar    1  UNL1       -0.2279
      6 C          -6.4148  -17.5220   22.8536 C.ar    1  UNL1        0.1247
      7 C          -5.8537  -16.5351   23.8339 C.ar    1  UNL1        0.2184
      8 O          -4.3619  -16.6909   23.8461 O.2     1  UNL1       -0.4471
      9 C          -4.0009  -17.7741   22.8733 C.ar    1  UNL1        0.1471
     10 C          -2.6809  -18.3591   22.4668 C.ar    1  UNL1        0.0384
     11 C          -2.6297  -19.4578   21.4470 C.ar    1  UNL1        0.0145
     12 C          -3.8985  -19.9715   20.8335 C.ar    1  UNL1        0.0579
     13 CL         -3.8472  -21.0702   19.8136 Cl      1  UNL1       -0.0822
     14 C          -5.2185  -19.3865   21.2400 C.ar    1  UNL1        0.0160
     15 C          -5.2697  -18.2878   22.2599 C.ar    1  UNL1        0.0562
     16 H          -8.8587  -15.0966   24.8588 H       1  UNL1        0.1702
     17 C         -10.2971  -16.7568   23.1576 C.3     1  UNL1        0.1116
     18 C         -11.1940  -17.8910   23.5563 C.3     1  UNL1        0.0249
     19 C         -12.5926  -17.5447   23.1390 C.3     1  UNL1        0.0189
     20 C         -12.5599  -16.1965   22.4823 C.3     1  UNL1        0.0689
     21 N         -11.1413  -15.7095   22.4938 N.3     1  UNL1       -0.2926
     22 H         -11.0799  -14.8344   23.0142 H       1  UNL1        0.1236
@<TRIPOS>BOND
     1     1     2    2
     2     2     3   ar
     3     3     4   ar
     4    17     4    1
     5    17    18    1
     6    18    19    1
     7    19    20    1
     8    20    21    1
     9     4     5   ar
    10     5     6   ar
    11     6     7   ar
    12     7     8   ar
    13     8     9   ar
    14     9    10   ar
    15    10    11   ar
    16    11    12   ar
    17    12    13    1
    18    12    14   ar
    19    14    15   ar
    20     7     2   ar
    21    15     9   ar
    22    21    17    1
    23    15     6   ar
    24     3    16    1
    25    21    22    1
@<TRIPOS>MOLECULE
*****
 22 25 0 0 0
SMALL
GASTEIGER

@<TRIPOS>ATOM
      1 O          -5.5386  -14.6568   25.1016 O.2     1  UNL1       -0.2638
      2 C          -5.6262  -15.7919   24.1250 C.ar    1  UNL1        0.2947
      3 N          -4.3874  -16.2912   23.4424 N.ar    1  UNL1       -0.3062
      4 C          -4.4749  -17.4263   22.4658 C.ar    1  UNL1        0.1338
      5 N          -5.8013  -18.0621   22.1717 N.ar    1  UNL1       -0.2279
      6 C          -7.0402  -17.5628   22.8543 C.ar    1  UNL1        0.1247
      7 C          -6.9526  -16.4277   23.8310 C.ar    1  UNL1        0.2184
      8 O          -8.3341  -16.1519   24.3461 O.2     1  UNL1       -0.4471
      9 C          -9.2755  -17.1165   23.6879 C.ar    1  UNL1        0.1471
     10 C         -10.7575  -17.3135   23.8089 C.ar    1  UNL1        0.0384
     11 C         -11.4399  -18.3825   23.0079 C.ar    1  UNL1        0.0145
     12 C         -10.6402  -19.2546   22.0860 C.ar    1  UNL1        0.0579
     13 CL        -11.3226  -20.3236   21.2850 Cl      1  UNL1       -0.0822
     14 C          -9.1581  -19.0576   21.9649 C.ar    1  UNL1        0.0160
     15 C          -8.4758  -17.9886   22.7659 C.ar    1  UNL1        0.0562
     16 H          -3.5168  -15.8739   23.6354 H       1  UNL1        0.1702
     17 C          -3.2361  -17.9257   21.7831 C.3     1  UNL1        0.1116
     18 C          -2.7304  -19.3378   21.7965 C.3     1  UNL1        0.0249
     19 C          -1.4673  -19.3855   20.9890 C.3     1  UNL1        0.0189
     20 C          -1.1923  -18.0029   20.4765 C.3     1  UNL1        0.0689
     21 N          -2.2855  -17.1007   20.9673 N.3     1  UNL1       -0.2926
     22 H          -2.7771  -16.6893   20.1740 H       1  UNL1        0.1236
@<TRIPOS>BOND
     1     1     2    2
     2     2     3   ar
     3     3     4   ar
     4    17     4    1
     5    17    18    1
     6    18    19    1
     7    19    20    1
     8    20    21    1
     9     4     5   ar
    10     5     6   ar
    11     6     7   ar
    12     7     8   ar
    13     8     9   ar
    14     9    10   ar
    15    10    11   ar
    16    11    12   ar
    17    12    13    1
    18    12    14   ar
    19    14    15   ar
    20     7     2   ar
    21    15     9   ar
    22    21    17    1
    23    15     6   ar
    24     3    16    1
    25    21    22    1
@<TRIPOS>MOLECULE
*****
 22 25 0 0 0
SMALL
GASTEIGER

@<TRIPOS>ATOM
      1 O          -6.1150  -21.9168   19.9178 O.2     1  UNL1       -0.2638
      2 C          -5.6755  -20.6124   20.5139 C.ar    1  UNL1        0.2947
      3 N          -4.3031  -20.0803   20.2249 N.ar    1  UNL1       -0.3062
      4 C          -3.8637  -18.7759   20.8210 C.ar    1  UNL1        0.1338
      5 N          -4.7966  -18.0036   21.7061 N.ar    1  UNL1       -0.2279
      6 C          -6.1689  -18.5357   21.9950 C.ar    1  UNL1        0.1247
      7 C          -6.6084  -19.8401   21.3989 C.ar    1  UNL1        0.2184
      8 O          -8.0100  -20.1112   21.8593 O.2     1  UNL1       -0.4471
      9 C          -8.4368  -18.9744   22.7399 C.ar    1  UNL1        0.1471
     10 C          -9.7145  -18.7001   23.4763 C.ar    1  UNL1        0.0384
     11 C          -9.8543  -17.4521   24.2965 C.ar    1  UNL1        0.0145
     12 C          -8.7164  -16.4783   24.3803 C.ar    1  UNL1        0.0579
     13 CL         -8.8563  -15.2302   25.2006 Cl      1  UNL1       -0.0822
     14 C          -7.4387  -16.7526   23.6440 C.ar    1  UNL1        0.0160
     15 C          -7.2989  -18.0006   22.8238 C.ar    1  UNL1        0.0562
     16 H          -3.6909  -20.5872   19.6441 H       1  UNL1        0.1702
     17 C          -2.4913  -18.2437   20.5321 C.3     1  UNL1        0.1116
     18 C          -1.9592  -16.9046   20.9488 C.3     1  UNL1        0.0249
     19 C          -0.5491  -16.7905   20.4500 C.3     1  UNL1        0.0189
     20 C          -0.2098  -18.0591   19.7252 C.3     1  UNL1        0.0689
     21 N          -1.4101  -18.9573   19.7759 N.3     1  UNL1       -0.2926
     22 H          -1.1715  -19.8275   20.2515 H       1  UNL1        0.1236
@<TRIPOS>BOND
     1     1     2    2
     2     2     3   ar
     3     3     4   ar
     4    17     4    1
     5    17    18    1
     6    18    19    1
     7    19    20    1
     8    20    21    1
     9     4     5   ar
    10     5     6   ar
    11     6     7   ar
    12     7     8   ar
    13     8     9   ar
    14     9    10   ar
    15    10    11   ar
    16    11    12   ar
    17    12    13    1
    18    12    14   ar
    19    14    15   ar
    20     7     2   ar
    21    15     9   ar
    22    21    17    1
    23    15     6   ar
    24     3    16    1
    25    21    22    1
@<TRIPOS>MOLECULE
*****
 22 25 0 0 0
SMALL
GASTEIGER

@<TRIPOS>ATOM
      1 O         -10.3006   -7.4282   18.9564 O.2     1  UNL1       -0.2638
      2 C         -11.6988   -6.8881   18.8979 C.ar    1  UNL1        0.2947
      3 N         -12.8671   -7.8289   18.9048 N.ar    1  UNL1       -0.3062
      4 C         -14.2652   -7.2888   18.8463 C.ar    1  UNL1        0.1338
      5 N         -14.4951   -5.8079   18.7810 N.ar    1  UNL1       -0.2279
      6 C         -13.3269   -4.8672   18.7742 C.ar    1  UNL1        0.1247
      7 C         -11.9287   -5.4073   18.8327 C.ar    1  UNL1        0.2184
      8 O         -10.9814   -4.2444   18.8111 O.2     1  UNL1       -0.4471
      9 C         -11.7941   -2.9857   18.7394 C.ar    1  UNL1        0.1471
     10 C         -11.4014   -1.5388   18.6918 C.ar    1  UNL1        0.0384
     11 C         -12.4584   -0.4768   18.6215 C.ar    1  UNL1        0.0145
     12 C         -13.9080   -0.8617   18.5986 C.ar    1  UNL1        0.0579
     13 CL        -14.9649    0.2004   18.5283 Cl      1  UNL1       -0.0822
     14 C         -14.3006   -2.3086   18.6462 C.ar    1  UNL1        0.0160
     15 C         -13.2437   -3.3706   18.7165 C.ar    1  UNL1        0.0562
     16 H         -12.7162   -8.8008   18.9476 H       1  UNL1        0.1702
     17 C         -15.4336   -8.2296   18.8531 C.3     1  UNL1        0.1116
     18 C         -16.4298   -8.4060   17.7457 C.3     1  UNL1        0.0249
     19 C         -17.4227   -9.4445   18.1767 C.3     1  UNL1        0.0189
     20 C         -17.0401   -9.9099   19.5503 C.3     1  UNL1        0.0689
     21 N         -15.8107   -9.1590   19.9684 N.3     1  UNL1       -0.2926
     22 H         -15.0489   -9.8136   20.1460 H       1  UNL1        0.1236
@<TRIPOS>BOND
     1     1     2    2
     2     2     3   ar
     3     3     4   ar
     4    17     4    1
     5    17    18    1
     6    18    19    1
     7    19    20    1
     8    20    21    1
     9     4     5   ar
    10     5     6   ar
    11     6     7   ar
    12     7     8   ar
    13     8     9   ar
    14     9    10   ar
    15    10    11   ar
    16    11    12   ar
    17    12    13    1
    18    12    14   ar
    19    14    15   ar
    20     7     2   ar
    21    15     9   ar
    22    21    17    1
    23    15     6   ar
    24     3    16    1
    25    21    22    1
@<TRIPOS>MOLECULE
*****
 22 25 0 0 0
SMALL
GASTEIGER

@<TRIPOS>ATOM
      1 O         -12.2213  -15.6173   22.5994 O.2     1  UNL1       -0.2638
      2 C         -10.8566  -16.1804   22.8650 C.ar    1  UNL1        0.2947
      3 N         -10.0661  -15.7045   24.0477 N.ar    1  UNL1       -0.3062
      4 C          -8.7015  -16.2676   24.3133 C.ar    1  UNL1        0.1338
      5 N          -8.1272  -17.3065   23.3963 N.ar    1  UNL1       -0.2279
      6 C          -8.9177  -17.7824   22.2136 C.ar    1  UNL1        0.1247
      7 C         -10.2824  -17.2193   21.9480 C.ar    1  UNL1        0.2184
      8 O         -10.8228  -17.8771   20.7130 O.2     1  UNL1       -0.4471
      9 C          -9.7921  -18.8467   20.2153 C.ar    1  UNL1        0.1471
     10 C          -9.7737  -19.7753   19.0375 C.ar    1  UNL1        0.0384
     11 C          -8.5778  -20.6454   18.7872 C.ar    1  UNL1        0.0145
     12 C          -7.4003  -20.5868   19.7146 C.ar    1  UNL1        0.0579
     13 CL         -6.2044  -21.4570   19.4642 Cl      1  UNL1       -0.0822
     14 C          -7.4188  -19.6582   20.8925 C.ar    1  UNL1        0.0160
     15 C          -8.6147  -18.7882   21.1428 C.ar    1  UNL1        0.0562
     16 H         -10.4430  -15.0226   24.6495 H       1  UNL1        0.1702
     17 C          -7.9109  -15.7918   25.4960 C.3     1  UNL1        0.1116
     18 C          -8.2689  -16.0009   26.9376 C.3     1  UNL1        0.0249
     19 C          -7.2029  -15.3617   27.7773 C.3     1  UNL1        0.0189
     20 C          -6.1862  -14.7575   26.8547 C.3     1  UNL1        0.0689
     21 N          -6.6238  -15.0233   25.4448 N.3     1  UNL1       -0.2926
     22 H          -5.9131  -15.5705   24.9591 H       1  UNL1        0.1236
@<TRIPOS>BOND
     1     1     2    2
     2     2     3   ar
     3     3     4   ar
     4    17     4    1
     5    17    18    1
     6    18    19    1
     7    19    20    1
     8    20    21    1
     9     4     5   ar
    10     5     6   ar
    11     6     7   ar
    12     7     8   ar
    13     8     9   ar
    14     9    10   ar
    15    10    11   ar
    16    11    12   ar
    17    12    13    1
    18    12    14   ar
    19    14    15   ar
    20     7     2   ar
    21    15     9   ar
    22    21    17    1
    23    15     6   ar
    24     3    16    1
    25    21    22    1
@<TRIPOS>MOLECULE
*****
 22 25 0 0 0
SMALL
GASTEIGER

@<TRIPOS>ATOM
      1 O          -7.1975  -21.8523   18.8958 O.2     1  UNL1       -0.2638
      2 C          -7.0564  -20.6654   19.8021 C.ar    1  UNL1        0.2947
      3 N          -5.7018  -20.2621   20.3043 N.ar    1  UNL1       -0.3062
      4 C          -5.5607  -19.0752   21.2106 C.ar    1  UNL1        0.1338
      5 N          -6.7742  -18.2915   21.6145 N.ar    1  UNL1       -0.2279
      6 C          -8.1289  -18.6948   21.1123 C.ar    1  UNL1        0.1247
      7 C          -8.2700  -19.8817   20.2060 C.ar    1  UNL1        0.2184
      8 O          -9.7237  -20.0396   19.8720 O.2     1  UNL1       -0.4471
      9 C         -10.4812  -18.9503   20.5718 C.ar    1  UNL1        0.1471
     10 C         -11.9410  -18.6078   20.6101 C.ar    1  UNL1        0.0384
     11 C         -12.4152  -17.4342   21.4149 C.ar    1  UNL1        0.0145
     12 C         -11.4295  -16.6030   22.1814 C.ar    1  UNL1        0.0579
     13 CL        -11.9037  -15.4293   22.9863 Cl      1  UNL1       -0.0822
     14 C          -9.9696  -16.9455   22.1431 C.ar    1  UNL1        0.0160
     15 C          -9.4955  -18.1191   21.3384 C.ar    1  UNL1        0.0562
     16 H          -4.9053  -20.7764   20.0392 H       1  UNL1        0.1702
     17 C          -4.2060  -18.6718   21.7129 C.3     1  UNL1        0.1116
     18 C          -2.9228  -19.4128   21.4799 C.3     1  UNL1        0.0249
     19 C          -1.8204  -18.6557   22.1593 C.3     1  UNL1        0.0189
     20 C          -2.4224  -17.4468   22.8122 C.3     1  UNL1        0.0689
     21 N          -3.8967  -17.4568   22.5362 N.3     1  UNL1       -0.2926
     22 H          -4.1585  -16.6151   22.0231 H       1  UNL1        0.1236
@<TRIPOS>BOND
     1     1     2    2
     2     2     3   ar
     3     3     4   ar
     4    17     4    1
     5    17    18    1
     6    18    19    1
     7    19    20    1
     8    20    21    1
     9     4     5   ar
    10     5     6   ar
    11     6     7   ar
    12     7     8   ar
    13     8     9   ar
    14     9    10   ar
    15    10    11   ar
    16    11    12   ar
    17    12    13    1
    18    12    14   ar
    19    14    15   ar
    20     7     2   ar
    21    15     9   ar
    22    21    17    1
    23    15     6   ar
    24     3    16    1
    25    21    22    1
@<TRIPOS>MOLECULE
*****
 22 25 0 0 0
SMALL
GASTEIGER

@<TRIPOS>ATOM
      1 O          -9.1412  -20.1782   17.9914 O.2     1  UNL1       -0.2638
      2 C          -8.2954  -19.6663   19.1195 C.ar    1  UNL1        0.2947
      3 N          -6.8303  -19.4240   18.9083 N.ar    1  UNL1       -0.3062
      4 C          -5.9845  -18.9121   20.0364 C.ar    1  UNL1        0.1338
      5 N          -6.6039  -18.6424   21.3757 N.ar    1  UNL1       -0.2279
      6 C          -8.0690  -18.8847   21.5869 C.ar    1  UNL1        0.1247
      7 C          -8.9148  -19.3966   20.4588 C.ar    1  UNL1        0.2184
      8 O         -10.3207  -19.5397   20.9616 O.2     1  UNL1       -0.4471
      9 C         -10.3439  -19.1163   22.4004 C.ar    1  UNL1        0.1471
     10 C         -11.4524  -19.0470   23.4086 C.ar    1  UNL1        0.0384
     11 C         -11.1692  -18.5729   24.8032 C.ar    1  UNL1        0.0145
     12 C          -9.7775  -18.1681   25.1896 C.ar    1  UNL1        0.0579
     13 CL         -9.4943  -17.6940   26.5843 Cl      1  UNL1       -0.0822
     14 C          -8.6690  -18.2373   24.1815 C.ar    1  UNL1        0.0160
     15 C          -8.9522  -18.7114   22.7869 C.ar    1  UNL1        0.0562
     16 H          -6.4238  -19.6010   18.0293 H       1  UNL1        0.1702
     17 C          -4.5192  -18.6698   19.8252 C.3     1  UNL1        0.1116
     18 C          -3.3982  -19.4016   20.5017 C.3     1  UNL1        0.0249
     19 C          -2.1040  -18.8374   19.9951 C.3     1  UNL1        0.0189
     20 C          -2.4252  -17.7568   19.0055 C.3     1  UNL1        0.0689
     21 N          -3.9180  -17.6533   18.9005 N.3     1  UNL1       -0.2926
     22 H          -4.2114  -17.8410   17.9418 H       1  UNL1        0.1236
@<TRIPOS>BOND
     1     1     2    2
     2     2     3   ar
     3     3     4   ar
     4    17     4    1
     5    17    18    1
     6    18    19    1
     7    19    20    1
     8    20    21    1
     9     4     5   ar
    10     5     6   ar
    11     6     7   ar
    12     7     8   ar
    13     8     9   ar
    14     9    10   ar
    15    10    11   ar
    16    11    12   ar
    17    12    13    1
    18    12    14   ar
    19    14    15   ar
    20     7     2   ar
    21    15     9   ar
    22    21    17    1
    23    15     6   ar
    24     3    16    1
    25    21    22    1
@<TRIPOS>MOLECULE
*****
 22 25 0 0 0
SMALL
GASTEIGER

@<TRIPOS>ATOM
      1 O         -10.4265  -17.0878   21.5911 O.2     1  UNL1       -0.2638
      2 C          -9.1394  -17.0920   22.3614 C.ar    1  UNL1        0.2947
      3 N          -9.0527  -16.3840   23.6809 N.ar    1  UNL1       -0.3062
      4 C          -7.7656  -16.3882   24.4512 C.ar    1  UNL1        0.1338
      5 N          -6.5651  -17.1004   23.9019 N.ar    1  UNL1       -0.2279
      6 C          -6.6518  -17.8084   22.5823 C.ar    1  UNL1        0.1247
      7 C          -7.9389  -17.8042   21.8121 C.ar    1  UNL1        0.2184
      8 O          -7.7250  -18.5827   20.5479 O.2     1  UNL1       -0.4471
      9 C          -6.3057  -19.0680   20.5368 C.ar    1  UNL1        0.1471
     10 C          -5.5317  -19.8839   19.5443 C.ar    1  UNL1        0.0384
     11 C          -4.0943  -20.2212   19.8091 C.ar    1  UNL1        0.0145
     12 C          -3.4310  -19.7426   21.0665 C.ar    1  UNL1        0.0579
     13 CL         -1.9936  -20.0800   21.3313 Cl      1  UNL1       -0.0822
     14 C          -4.2051  -18.9268   22.0590 C.ar    1  UNL1        0.0160
     15 C          -5.6424  -18.5895   21.7942 C.ar    1  UNL1        0.0562
     16 H          -9.8406  -15.9166   24.0414 H       1  UNL1        0.1702
     17 C          -7.6789  -15.6802   25.7708 C.3     1  UNL1        0.1116
     18 C          -8.8085  -15.4720   26.7354 C.3     1  UNL1        0.0249
     19 C          -8.2752  -14.7193   27.9182 C.3     1  UNL1        0.0189
     20 C          -6.8160  -14.4623   27.6845 C.3     1  UNL1        0.0689
     21 N          -6.4475  -15.0562   26.3574 N.3     1  UNL1       -0.2926
     22 H          -5.7264  -15.7664   26.4842 H       1  UNL1        0.1236
@<TRIPOS>BOND
     1     1     2    2
     2     2     3   ar
     3     3     4   ar
     4    17     4    1
     5    17    18    1
     6    18    19    1
     7    19    20    1
     8    20    21    1
     9     4     5   ar
    10     5     6   ar
    11     6     7   ar
    12     7     8   ar
    13     8     9   ar
    14     9    10   ar
    15    10    11   ar
    16    11    12   ar
    17    12    13    1
    18    12    14   ar
    19    14    15   ar
    20     7     2   ar
    21    15     9   ar
    22    21    17    1
    23    15     6   ar
    24     3    16    1
    25    21    22    1
@<TRIPOS>MOLECULE
*****
 22 25 0 0 0
SMALL
GASTEIGER

@<TRIPOS>ATOM
      1 O           9.0360   -7.3029   31.7916 O.2     1  UNL1       -0.2638
      2 C           8.2292   -6.1974   31.1776 C.ar    1  UNL1        0.2947
      3 N           7.5551   -5.1846   32.0548 N.ar    1  UNL1       -0.3062
      4 C           6.7483   -4.0791   31.4408 C.ar    1  UNL1        0.1338
      5 N           6.6156   -3.9865   29.9495 N.ar    1  UNL1       -0.2279
      6 C           7.2898   -4.9994   29.0723 C.ar    1  UNL1        0.1247
      7 C           8.0966   -6.1049   29.6863 C.ar    1  UNL1        0.2184
      8 O           8.6432   -6.9518   28.5755 O.2     1  UNL1       -0.4471
      9 C           8.1743   -6.3698   27.2750 C.ar    1  UNL1        0.1471
     10 C           8.4009   -6.7826   25.8509 C.ar    1  UNL1        0.0384
     11 C           7.7910   -5.9888   24.7338 C.ar    1  UNL1        0.0145
     12 C           6.9545   -4.7822   25.0408 C.ar    1  UNL1        0.0579
     13 CL          6.3446   -3.9884   23.9236 Cl      1  UNL1       -0.0822
     14 C           6.7279   -4.3693   26.4649 C.ar    1  UNL1        0.0160
     15 C           7.3378   -5.1631   27.5820 C.ar    1  UNL1        0.0562
     16 H           7.6421   -5.2453   33.0336 H       1  UNL1        0.1702
     17 C           6.0741   -3.0662   32.3181 C.3     1  UNL1        0.1116
     18 C           6.6381   -1.7369   32.7241 C.3     1  UNL1        0.0249
     19 C           5.6301   -1.0539   33.6002 C.3     1  UNL1        0.0189
     20 C           4.4432   -1.9611   33.7356 C.3     1  UNL1        0.0689
     21 N           4.7176   -3.2047   32.9432 N.3     1  UNL1       -0.2926
     22 H           4.0109   -3.3147   32.2159 H       1  UNL1        0.1236
@<TRIPOS>BOND
     1     1     2    2
     2     2     3   ar
     3     3     4   ar
     4    17     4    1
     5    17    18    1
     6    18    19    1
     7    19    20    1
     8    20    21    1
     9     4     5   ar
    10     5     6   ar
    11     6     7   ar
    12     7     8   ar
    13     8     9   ar
    14     9    10   ar
    15    10    11   ar
    16    11    12   ar
    17    12    13    1
    18    12    14   ar
    19    14    15   ar
    20     7     2   ar
    21    15     9   ar
    22    21    17    1
    23    15     6   ar
    24     3    16    1
    25    21    22    1
