@<TRIPOS>MOLECULE
*****
 25 27 0 0 0
SMALL
GASTEIGER

@<TRIPOS>ATOM
      1 C          -7.9907  -17.3134   23.1664 C.ar    1  UNL1        0.0554
      2 C          -7.2216  -16.1919   23.7995 C.ar    1  UNL1        0.0824
      3 C          -7.8058  -15.0550   24.5844 C.3     1  UNL1        0.0540
      4 N          -5.7657  -16.4070   23.5098 N.ar    1  UNL1       -0.1681
      5 N          -5.6350  -17.6614   22.6977 N.ar    1  UNL1       -0.2085
      6 C          -4.4414  -18.3660   22.1241 C.ar    1  UNL1        0.1569
      7 C          -4.6231  -19.6306   21.3383 C.ar    1  UNL1        0.0379
      8 C          -5.9983  -20.1908   21.1261 C.ar    1  UNL1        0.0625
      9 C          -6.1799  -21.4555   20.3402 C.3     1  UNL1        0.0522
     10 N          -7.1918  -19.4863   21.6997 N.ar    1  UNL1       -0.2308
     11 C          -7.0102  -18.2216   22.4855 C.ar    1  UNL1        0.1645
     12 C         -12.4561  -17.8577   23.2886 C.ar    1  UNL1        0.1432
     13 C         -11.8477  -16.8587   22.3496 C.ar    1  UNL1        0.0666
     14 C         -10.3593  -16.6773   22.3089 C.ar    1  UNL1        0.1454
     15 F          -9.7510  -15.6781   21.3698 F       1  UNL1       -0.2040
     16 C          -9.4792  -17.4948   23.2072 C.ar    1  UNL1        0.0593
     17 C         -10.0876  -18.4939   24.1462 C.ar    1  UNL1        0.1454
     18 F          -9.2075  -19.3115   25.0445 F       1  UNL1       -0.2040
     19 C         -11.5760  -18.6754   24.1869 C.ar    1  UNL1        0.0666
     20 C         -14.6249  -18.3671   24.6253 C.3     1  UNL1        0.2525
     21 O         -13.9445  -18.0392   23.3293 O.3     1  UNL1       -0.4713
     22 C          -3.0662  -17.8058   22.3363 C.3     1  UNL1        0.4350
     23 F          -1.6910  -17.2456   22.5485 F       1  UNL1       -0.1644
     24 F          -2.9057  -17.6384   20.8544 F       1  UNL1       -0.1644
     25 F          -3.2267  -17.9732   23.8183 F       1  UNL1       -0.1644
@<TRIPOS>BOND
     1    20    21    1
     2    21    12    1
     3    12    13   ar
     4    13    14   ar
     5    14    15    1
     6    14    16   ar
     7    16     1    1
     8     1     2   ar
     9     2     3    1
    10     2     4   ar
    11     4     5   ar
    12     5     6   ar
    13     6    22    1
    14    22    23    1
    15    22    24    1
    16    22    25    1
    17     6     7   ar
    18     7     8   ar
    19     8     9    1
    20     8    10   ar
    21    10    11   ar
    22    16    17   ar
    23    17    18    1
    24    17    19   ar
    25    19    12   ar
    26    11     1   ar
    27    11     5   ar
@<TRIPOS>MOLECULE
*****
 25 27 0 0 0
SMALL
GASTEIGER

@<TRIPOS>ATOM
      1 C           5.7390   -2.9431   23.1175 C.ar    1  UNL1        0.0554
      2 C           5.1762   -2.1447   24.2559 C.ar    1  UNL1        0.0824
      3 C           4.3035   -0.9307   24.1349 C.3     1  UNL1        0.0540
      4 N           5.6392   -2.7736   25.5366 N.ar    1  UNL1       -0.1681
      5 N           6.4883   -3.9606   25.1897 N.ar    1  UNL1       -0.2085
      6 C           7.2132   -4.9595   26.0420 C.ar    1  UNL1        0.1569
      7 C           7.9997   -6.0632   25.3993 C.ar    1  UNL1        0.0379
      8 C           8.0614   -6.1679   23.9043 C.ar    1  UNL1        0.0625
      9 C           8.8480   -7.2717   23.2615 C.3     1  UNL1        0.0522
     10 N           7.3365   -5.1690   23.0519 N.ar    1  UNL1       -0.2308
     11 C           6.5499   -4.0653   23.6946 C.ar    1  UNL1        0.1645
     12 C           5.1059   -2.1166   18.7396 C.ar    1  UNL1        0.1432
     13 C           6.0172   -1.2382   19.5446 C.ar    1  UNL1        0.0666
     14 C           6.2282   -1.5137   21.0039 C.ar    1  UNL1        0.1454
     15 F           7.1396   -0.6353   21.8088 F       1  UNL1       -0.2040
     16 C           5.5280   -2.6675   21.6582 C.ar    1  UNL1        0.0593
     17 C           4.6166   -3.5460   20.8532 C.ar    1  UNL1        0.1454
     18 F           3.9163   -4.6998   21.5076 F       1  UNL1       -0.2040
     19 C           4.4056   -3.2704   19.3939 C.ar    1  UNL1        0.0666
     20 C           3.8374   -0.8701   16.8456 C.3     1  UNL1        0.2525
     21 O           4.8949   -1.8410   17.2803 O.3     1  UNL1       -0.4713
     22 C           7.1515   -4.8548   27.5371 C.3     1  UNL1        0.4350
     23 F           7.0899   -4.7501   29.0322 F       1  UNL1       -0.1644
     24 F           8.3240   -3.9194   27.5199 F       1  UNL1       -0.1644
     25 F           5.9790   -5.7902   27.5543 F       1  UNL1       -0.1644
@<TRIPOS>BOND
     1    20    21    1
     2    21    12    1
     3    12    13   ar
     4    13    14   ar
     5    14    15    1
     6    14    16   ar
     7    16     1    1
     8     1     2   ar
     9     2     3    1
    10     2     4   ar
    11     4     5   ar
    12     5     6   ar
    13     6    22    1
    14    22    23    1
    15    22    24    1
    16    22    25    1
    17     6     7   ar
    18     7     8   ar
    19     8     9    1
    20     8    10   ar
    21    10    11   ar
    22    16    17   ar
    23    17    18    1
    24    17    19   ar
    25    19    12   ar
    26    11     1   ar
    27    11     5   ar
@<TRIPOS>MOLECULE
*****
 25 27 0 0 0
SMALL
GASTEIGER

@<TRIPOS>ATOM
      1 C           4.5122   -2.4389   20.0835 C.ar    1  UNL1        0.0554
      2 C           4.3728   -3.9086   19.8178 C.ar    1  UNL1        0.0824
      3 C           3.2342   -4.5707   19.1000 C.3     1  UNL1        0.0540
      4 N           5.5719   -4.5999   20.3959 N.ar    1  UNL1       -0.1681
      5 N           6.4524   -3.5575   21.0189 N.ar    1  UNL1       -0.2085
      6 C           7.7659   -3.6520   21.7370 C.ar    1  UNL1        0.1569
      7 C           8.4245   -2.4108   22.2621 C.ar    1  UNL1        0.0379
      8 C           7.7695   -1.0752   22.0690 C.ar    1  UNL1        0.0625
      9 C           8.4282    0.1660   22.5941 C.3     1  UNL1        0.0522
     10 N           6.4561   -0.9808   21.3509 N.ar    1  UNL1       -0.2308
     11 C           5.7975   -2.2219   20.8258 C.ar    1  UNL1        0.1645
     12 C           1.5881    0.7580   18.8673 C.ar    1  UNL1        0.1432
     13 C           2.5559    0.2056   17.8633 C.ar    1  UNL1        0.0666
     14 C           3.5306   -0.8600   18.2687 C.ar    1  UNL1        0.1454
     15 F           4.4984   -1.4124   17.2646 F       1  UNL1       -0.2040
     16 C           3.5375   -1.3733   19.6781 C.ar    1  UNL1        0.0593
     17 C           2.5696   -0.8208   20.6822 C.ar    1  UNL1        0.1454
     18 F           2.5765   -1.3340   22.0916 F       1  UNL1       -0.2040
     19 C           1.5949    0.2448   20.2768 C.ar    1  UNL1        0.0666
     20 C          -0.0153    2.7008   19.5038 C.3     1  UNL1        0.2525
     21 O           0.6134    1.8237   18.4619 O.3     1  UNL1       -0.4713
     22 C           8.4208   -4.9875   21.9301 C.3     1  UNL1        0.4350
     23 F           9.0757   -6.3231   22.1232 F       1  UNL1       -0.1644
     24 F           7.6942   -5.1557   23.2316 F       1  UNL1       -0.1644
     25 F           9.1474   -4.8194   20.6286 F       1  UNL1       -0.1644
@<TRIPOS>BOND
     1    20    21    1
     2    21    12    1
     3    12    13   ar
     4    13    14   ar
     5    14    15    1
     6    14    16   ar
     7    16     1    1
     8     1     2   ar
     9     2     3    1
    10     2     4   ar
    11     4     5   ar
    12     5     6   ar
    13     6    22    1
    14    22    23    1
    15    22    24    1
    16    22    25    1
    17     6     7   ar
    18     7     8   ar
    19     8     9    1
    20     8    10   ar
    21    10    11   ar
    22    16    17   ar
    23    17    18    1
    24    17    19   ar
    25    19    12   ar
    26    11     1   ar
    27    11     5   ar
@<TRIPOS>MOLECULE
*****
 25 27 0 0 0
SMALL
GASTEIGER

@<TRIPOS>ATOM
      1 C           6.8302   -4.2403   24.9223 C.ar    1  UNL1        0.0554
      2 C           7.5397   -5.1789   23.9919 C.ar    1  UNL1        0.0824
      3 C           8.5981   -6.1696   24.3771 C.3     1  UNL1        0.0540
      4 N           7.0050   -4.9528   22.6088 N.ar    1  UNL1       -0.1681
      5 N           5.9651   -3.8745   22.6844 N.ar    1  UNL1       -0.2085
      6 C           5.1025   -3.2368   21.6359 C.ar    1  UNL1        0.1569
      7 C           4.1319   -2.1586   22.0173 C.ar    1  UNL1        0.0379
      8 C           4.0239   -1.7183   23.4472 C.ar    1  UNL1        0.0625
      9 C           3.0532   -0.6401   23.8285 C.3     1  UNL1        0.0522
     10 N           4.8864   -2.3560   24.4956 N.ar    1  UNL1       -0.2308
     11 C           5.8570   -3.4342   24.1142 C.ar    1  UNL1        0.1645
     12 C           7.5029   -3.9022   29.3589 C.ar    1  UNL1        0.1432
     13 C           6.9075   -5.1531   28.7838 C.ar    1  UNL1        0.0666
     14 C           6.6833   -5.2658   27.3049 C.ar    1  UNL1        0.1454
     15 F           6.0878   -6.5167   26.7299 F       1  UNL1       -0.2040
     16 C           7.0544   -4.1277   26.4012 C.ar    1  UNL1        0.0593
     17 C           7.6499   -2.8767   26.9763 C.ar    1  UNL1        0.1454
     18 F           8.0211   -1.7385   26.0726 F       1  UNL1       -0.2040
     19 C           7.8741   -2.7640   28.4552 C.ar    1  UNL1        0.0666
     20 C           6.5550   -3.7324   31.7719 C.3     1  UNL1        0.2525
     21 O           7.7272   -3.7895   30.8378 O.3     1  UNL1       -0.4713
     22 C           5.2106   -3.6771   20.2061 C.3     1  UNL1        0.4350
     23 F           5.3187   -4.1175   18.7763 F       1  UNL1       -0.1644
     24 F           3.9751   -4.5118   20.3698 F       1  UNL1       -0.1644
     25 F           6.4461   -2.8424   20.0424 F       1  UNL1       -0.1644
@<TRIPOS>BOND
     1    20    21    1
     2    21    12    1
     3    12    13   ar
     4    13    14   ar
     5    14    15    1
     6    14    16   ar
     7    16     1    1
     8     1     2   ar
     9     2     3    1
    10     2     4   ar
    11     4     5   ar
    12     5     6   ar
    13     6    22    1
    14    22    23    1
    15    22    24    1
    16    22    25    1
    17     6     7   ar
    18     7     8   ar
    19     8     9    1
    20     8    10   ar
    21    10    11   ar
    22    16    17   ar
    23    17    18    1
    24    17    19   ar
    25    19    12   ar
    26    11     1   ar
    27    11     5   ar
@<TRIPOS>MOLECULE
*****
 25 27 0 0 0
SMALL
GASTEIGER

@<TRIPOS>ATOM
      1 C           6.8617   -4.2446   24.9769 C.ar    1  UNL1        0.0554
      2 C           7.5697   -5.1987   24.0612 C.ar    1  UNL1        0.0824
      3 C           8.6297   -6.1818   24.4608 C.3     1  UNL1        0.0540
      4 N           7.0315   -4.9969   22.6757 N.ar    1  UNL1       -0.1681
      5 N           5.9909   -3.9182   22.7350 N.ar    1  UNL1       -0.2085
      6 C           5.1254   -3.2993   21.6778 C.ar    1  UNL1        0.1569
      7 C           4.1550   -2.2153   22.0428 C.ar    1  UNL1        0.0379
      8 C           4.0500   -1.7503   23.4651 C.ar    1  UNL1        0.0625
      9 C           3.0795   -0.6664   23.8301 C.3     1  UNL1        0.0522
     10 N           4.9155   -2.3693   24.5223 N.ar    1  UNL1       -0.2308
     11 C           5.8860   -3.4532   24.1573 C.ar    1  UNL1        0.1645
     12 C           7.5449   -3.8294   29.4053 C.ar    1  UNL1        0.1432
     13 C           7.9602   -2.7278   28.4758 C.ar    1  UNL1        0.0666
     14 C           7.7325   -2.8662   26.9997 C.ar    1  UNL1        0.1454
     15 F           8.1479   -1.7645   26.0702 F       1  UNL1       -0.2040
     16 C           7.0894   -4.1061   26.4530 C.ar    1  UNL1        0.0593
     17 C           6.6740   -5.2078   27.3826 C.ar    1  UNL1        0.1454
     18 F           6.0310   -6.4478   26.8359 F       1  UNL1       -0.2040
     19 C           6.9018   -5.0694   28.8587 C.ar    1  UNL1        0.0666
     20 C           6.6142   -3.7777   31.8305 C.3     1  UNL1        0.2525
     21 O           7.7726   -3.6909   30.8815 O.3     1  UNL1       -0.4713
     22 C           5.2304   -3.7643   20.2556 C.3     1  UNL1        0.4350
     23 F           5.3353   -4.2292   18.8333 F       1  UNL1       -0.1644
     24 F           6.5214   -3.0153   20.1060 F       1  UNL1       -0.1644
     25 F           3.9393   -4.5132   20.4052 F       1  UNL1       -0.1644
@<TRIPOS>BOND
     1    20    21    1
     2    21    12    1
     3    12    13   ar
     4    13    14   ar
     5    14    15    1
     6    14    16   ar
     7    16     1    1
     8     1     2   ar
     9     2     3    1
    10     2     4   ar
    11     4     5   ar
    12     5     6   ar
    13     6    22    1
    14    22    23    1
    15    22    24    1
    16    22    25    1
    17     6     7   ar
    18     7     8   ar
    19     8     9    1
    20     8    10   ar
    21    10    11   ar
    22    16    17   ar
    23    17    18    1
    24    17    19   ar
    25    19    12   ar
    26    11     1   ar
    27    11     5   ar
@<TRIPOS>MOLECULE
*****
 25 27 0 0 0
SMALL
GASTEIGER

@<TRIPOS>ATOM
      1 C           7.5595   -3.7392   22.7675 C.ar    1  UNL1        0.0554
      2 C           8.4323   -2.5212   22.8363 C.ar    1  UNL1        0.0824
      3 C           9.5357   -2.2819   23.8238 C.3     1  UNL1        0.0540
      4 N           8.0079   -1.5846   21.7441 N.ar    1  UNL1       -0.1681
      5 N           6.8728   -2.2237   21.0004 N.ar    1  UNL1       -0.2085
      6 C           6.0559   -1.7652   19.8290 C.ar    1  UNL1        0.1569
      7 C           4.9617   -2.6383   19.2900 C.ar    1  UNL1        0.0379
      8 C           4.6845   -3.9699   19.9225 C.ar    1  UNL1        0.0625
      9 C           3.5903   -4.8430   19.3835 C.3     1  UNL1        0.0522
     10 N           5.5015   -4.4284   21.0939 N.ar    1  UNL1       -0.2308
     11 C           6.5957   -3.5553   21.6329 C.ar    1  UNL1        0.1645
     12 C           7.7915   -7.3166   25.4875 C.ar    1  UNL1        0.1432
     13 C           8.3847   -7.3810   24.1113 C.ar    1  UNL1        0.0666
     14 C           8.3074   -6.1885   23.2047 C.ar    1  UNL1        0.1454
     15 F           8.9007   -6.2531   21.8285 F       1  UNL1       -0.2040
     16 C           7.6368   -4.9316   23.6741 C.ar    1  UNL1        0.0593
     17 C           7.0435   -4.8672   25.0504 C.ar    1  UNL1        0.1454
     18 F           6.3729   -3.6103   25.5199 F       1  UNL1       -0.2040
     19 C           7.1209   -6.0597   25.9570 C.ar    1  UNL1        0.0666
     20 C           8.3343   -8.3453   27.8106 C.3     1  UNL1        0.2525
     21 O           7.8688   -8.5091   26.3942 O.3     1  UNL1       -0.4713
     22 C           6.3330   -0.4336   19.1965 C.3     1  UNL1        0.4350
     23 F           6.6102    0.8980   18.5641 F       1  UNL1       -0.1644
     24 F           5.4119    0.2253   20.1801 F       1  UNL1       -0.1644
     25 F           7.2542   -1.0925   18.2130 F       1  UNL1       -0.1644
@<TRIPOS>BOND
     1    20    21    1
     2    21    12    1
     3    12    13   ar
     4    13    14   ar
     5    14    15    1
     6    14    16   ar
     7    16     1    1
     8     1     2   ar
     9     2     3    1
    10     2     4   ar
    11     4     5   ar
    12     5     6   ar
    13     6    22    1
    14    22    23    1
    15    22    24    1
    16    22    25    1
    17     6     7   ar
    18     7     8   ar
    19     8     9    1
    20     8    10   ar
    21    10    11   ar
    22    16    17   ar
    23    17    18    1
    24    17    19   ar
    25    19    12   ar
    26    11     1   ar
    27    11     5   ar
@<TRIPOS>MOLECULE
*****
 25 27 0 0 0
SMALL
GASTEIGER

@<TRIPOS>ATOM
      1 C           7.1760   -3.5774   23.2343 C.ar    1  UNL1        0.0554
      2 C           7.8270   -2.2492   23.4838 C.ar    1  UNL1        0.0824
      3 C           8.8380   -1.9493   24.5506 C.3     1  UNL1        0.0540
      4 N           7.2893   -1.2736   22.4793 N.ar    1  UNL1       -0.1681
      5 N           6.3061   -1.9987   21.6090 N.ar    1  UNL1       -0.2085
      6 C           5.4656   -1.5465   20.4519 C.ar    1  UNL1        0.1569
      7 C           4.5550   -2.5181   19.7614 C.ar    1  UNL1        0.0379
      8 C           4.4850   -3.9419   20.2281 C.ar    1  UNL1        0.0625
      9 C           3.5744   -4.9136   19.5375 C.3     1  UNL1        0.0522
     10 N           5.3255   -4.3942   21.3851 N.ar    1  UNL1       -0.2308
     11 C           6.2361   -3.4226   22.0756 C.ar    1  UNL1        0.1645
     12 C           7.9135   -7.3620   25.5545 C.ar    1  UNL1        0.1432
     13 C           7.2206   -6.2039   26.2091 C.ar    1  UNL1        0.0666
     14 C           6.9748   -4.9423   25.4357 C.ar    1  UNL1        0.1454
     15 F           6.2819   -3.7842   26.0905 F       1  UNL1       -0.2040
     16 C           7.4218   -4.8389   24.0077 C.ar    1  UNL1        0.0593
     17 C           8.1148   -5.9971   23.3530 C.ar    1  UNL1        0.1454
     18 F           8.5619   -5.8937   21.9249 F       1  UNL1       -0.2040
     19 C           8.3606   -7.2586   24.1264 C.ar    1  UNL1        0.0666
     20 C           8.3391   -8.5679   27.8160 C.3     1  UNL1        0.2525
     21 O           8.1593   -8.6235   26.3279 O.3     1  UNL1       -0.4713
     22 C           5.5356   -0.1226   19.9853 C.3     1  UNL1        0.4350
     23 F           5.6056    1.3012   19.5186 F       1  UNL1       -0.1644
     24 F           4.3625    0.2201   20.8549 F       1  UNL1       -0.1644
     25 F           6.7087   -0.4653   19.1156 F       1  UNL1       -0.1644
@<TRIPOS>BOND
     1    20    21    1
     2    21    12    1
     3    12    13   ar
     4    13    14   ar
     5    14    15    1
     6    14    16   ar
     7    16     1    1
     8     1     2   ar
     9     2     3    1
    10     2     4   ar
    11     4     5   ar
    12     5     6   ar
    13     6    22    1
    14    22    23    1
    15    22    24    1
    16    22    25    1
    17     6     7   ar
    18     7     8   ar
    19     8     9    1
    20     8    10   ar
    21    10    11   ar
    22    16    17   ar
    23    17    18    1
    24    17    19   ar
    25    19    12   ar
    26    11     1   ar
    27    11     5   ar
@<TRIPOS>MOLECULE
*****
 25 27 0 0 0
SMALL
GASTEIGER

@<TRIPOS>ATOM
      1 C           3.4600   -0.7347   19.5469 C.ar    1  UNL1        0.0554
      2 C           3.1043   -0.2657   18.1672 C.ar    1  UNL1        0.0824
      3 C           3.7035   -0.7630   16.8851 C.3     1  UNL1        0.0540
      4 N           2.0442    0.7878   18.2948 N.ar    1  UNL1       -0.1681
      5 N           1.7447    0.9699   19.7533 N.ar    1  UNL1       -0.2085
      6 C           0.7883    1.8710   20.4766 C.ar    1  UNL1        0.1569
      7 C           0.7070    1.8311   21.9738 C.ar    1  UNL1        0.0379
      8 C           1.5820    0.8901   22.7477 C.ar    1  UNL1        0.0625
      9 C           1.5006    0.8503   24.2450 C.3     1  UNL1        0.0522
     10 N           2.5384   -0.0110   22.0244 N.ar    1  UNL1       -0.2308
     11 C           2.6198    0.0289   20.5271 C.ar    1  UNL1        0.1645
     12 C           6.5121   -3.8804   20.5665 C.ar    1  UNL1        0.1432
     13 C           5.1993   -4.2780   19.9596 C.ar    1  UNL1        0.0666
     14 C           4.1819   -3.2294   19.6197 C.ar    1  UNL1        0.1454
     15 F           2.8691   -3.6271   19.0128 F       1  UNL1       -0.2040
     16 C           4.4774   -1.7833   19.8868 C.ar    1  UNL1        0.0593
     17 C           5.7903   -1.3857   20.4937 C.ar    1  UNL1        0.1454
     18 F           6.0858    0.0604   20.7608 F       1  UNL1       -0.2040
     19 C           6.8076   -2.4343   20.8335 C.ar    1  UNL1        0.0666
     20 C           8.9910   -4.5925   20.8799 C.3     1  UNL1        0.2525
     21 O           7.5295   -4.9290   20.9063 O.3     1  UNL1       -0.4713
     22 C          -0.0867    2.8120   19.7027 C.3     1  UNL1        0.4350
     23 F          -0.9617    3.7530   18.9289 F       1  UNL1       -0.1644
     24 F           1.1304    3.5307   19.2005 F       1  UNL1       -0.1644
     25 F          -1.3038    2.0933   20.2049 F       1  UNL1       -0.1644
@<TRIPOS>BOND
     1    20    21    1
     2    21    12    1
     3    12    13   ar
     4    13    14   ar
     5    14    15    1
     6    14    16   ar
     7    16     1    1
     8     1     2   ar
     9     2     3    1
    10     2     4   ar
    11     4     5   ar
    12     5     6   ar
    13     6    22    1
    14    22    23    1
    15    22    24    1
    16    22    25    1
    17     6     7   ar
    18     7     8   ar
    19     8     9    1
    20     8    10   ar
    21    10    11   ar
    22    16    17   ar
    23    17    18    1
    24    17    19   ar
    25    19    12   ar
    26    11     1   ar
    27    11     5   ar
