@<TRIPOS>MOLECULE
*****
 36 40 0 0 0
SMALL
GASTEIGER

@<TRIPOS>ATOM
      1 O           8.9981   -4.1293   26.1915 O.3     1  UNL1       -0.4535
      2 C           8.4202   -8.4577   27.2781 C.ar    1  UNL1        0.0536
      3 C           8.4095   -8.0381   25.8380 C.ar    1  UNL1        0.0076
      4 C           8.6022   -6.5953   25.4759 C.ar    1  UNL1        0.0376
      5 C           8.8055   -5.5721   26.5537 C.ar    1  UNL1        0.1453
      6 C           8.8161   -5.9918   27.9938 C.ar    1  UNL1        0.0376
      7 C           8.6235   -7.4346   28.3560 C.ar    1  UNL1        0.0076
      8 O           9.4177  -10.8000   27.7967 O.2     1  UNL1       -0.2701
      9 C           8.2276   -9.9006   27.6403 C.2     1  UNL1        0.2461
     10 N           6.8447  -10.4440   27.8459 N.am    1  UNL1       -0.2956
     11 H           6.0635   -9.8536   27.7432 H       1  UNL1        0.1501
     12 C           6.6519  -11.8869   28.2081 C.3     1  UNL1        0.1361
     13 C           5.3774  -12.5881   27.8424 C.ar    1  UNL1        0.0821
     14 C           4.2101  -12.5619   28.7840 C.ar    1  UNL1        0.0371
     15 C           2.9355  -13.2631   28.4183 C.ar    1  UNL1        0.1019
     16 N           2.8283  -13.9906   27.1109 N.ar    1  UNL1       -0.2224
     17 C           3.9956  -14.0168   26.1692 C.ar    1  UNL1        0.1986
     18 N           5.2702  -13.3156   26.5350 N.ar    1  UNL1       -0.2266
     19 C           8.1145   -3.4901   25.1615 C.ar    1  UNL1        0.1453
     20 C           8.7046   -2.9769   23.8815 C.ar    1  UNL1        0.0381
     21 C           7.8211   -2.3378   22.8516 C.ar    1  UNL1        0.0114
     22 C           6.3474   -2.2118   23.1016 C.ar    1  UNL1        0.0419
     23 C           5.7573   -2.7251   24.3816 C.ar    1  UNL1        0.0114
     24 C           6.6409   -3.3643   25.4115 C.ar    1  UNL1        0.0381
     25 C           5.4639   -1.5727   22.0716 C.1     1  UNL1       -0.0621
     26 C           4.5805   -0.9334   21.0416 C.1     1  UNL1       -0.0597
     27 C           2.8041   -0.0026   19.1859 C.3     1  UNL1        0.1561
     28 O           5.0830   -0.3096   19.2875 O.3     1  UNL1       -0.3739
     29 C           1.8475   -0.2517   20.1145 C.3     1  UNL1        0.1120
     30 N           1.2325   -0.3861   20.6453 N.3     1  UNL1       -0.2699
     31 C           0.8515    0.1788   19.3090 C.3     1  UNL1        0.0723
     32 C           1.9094    0.4543   18.2820 C.3     1  UNL1        0.0207
     33 C           3.3484    0.1650   18.5913 C.3     1  UNL1        0.0404
     34 C           3.7294   -0.3999   19.9276 C.3     1  UNL1        0.0207
     35 C           2.6715   -0.6754   20.9546 C.3     1  UNL1        0.0723
     36 H           5.3218   -0.6748   20.1538 H       1  UNL1        0.2115
@<TRIPOS>BOND
     1     8     9    2
     2     9    10   am
     3    10    12    1
     4    12    13    1
     5    13    14   ar
     6    14    15   ar
     7    15    16   ar
     8    16    17   ar
     9    17    18   ar
    10     9     2    1
    11     2     3   ar
    12     3     4   ar
    13     4     5   ar
    14     5     1    1
    15     1    19    1
    16    19    20   ar
    17    20    21   ar
    18    21    22   ar
    19    22    25    1
    20    25    26    3
    21    26    27    1
    22    27    28    1
    23    27    29    1
    24    29    30    1
    25    30    31    1
    26    31    32    1
    27    32    33    1
    28    33    34    1
    29    34    35    1
    30    22    23   ar
    31    23    24   ar
    32     5     6   ar
    33     6     7   ar
    34    18    13   ar
    35     7     2   ar
    36    24    19   ar
    37    33    27    1
    38    35    30    1
    39    10    11    1
    40    28    36    1
@<TRIPOS>MOLECULE
*****
 36 40 0 0 0
SMALL
GASTEIGER

@<TRIPOS>ATOM
      1 O           8.5122   -3.9113   25.9476 O.3     1  UNL1       -0.4535
      2 C           8.1888   -8.2271   27.1799 C.ar    1  UNL1        0.0536
      3 C           7.7553   -7.8045   25.8075 C.ar    1  UNL1        0.0076
      4 C           7.8631   -6.3659   25.3968 C.ar    1  UNL1        0.0376
      5 C           8.4044   -5.3499   26.3584 C.ar    1  UNL1        0.1453
      6 C           8.8380   -5.7725   27.7308 C.ar    1  UNL1        0.0376
      7 C           8.7301   -7.2112   28.1416 C.ar    1  UNL1        0.0076
      8 O           9.3219  -10.4627   27.8641 O.2     1  UNL1       -0.2701
      9 C           8.0810   -9.6658   27.5906 C.2     1  UNL1        0.2461
     10 N           6.7321  -10.3075   27.7278 N.am    1  UNL1       -0.2956
     11 H           5.9176   -9.7844   27.5483 H       1  UNL1        0.1501
     12 C           6.6242  -11.7462   28.1385 C.3     1  UNL1        0.1361
     13 C           5.3838  -12.5265   27.8184 C.ar    1  UNL1        0.0821
     14 C           4.2140  -12.4936   28.7566 C.ar    1  UNL1        0.0371
     15 C           2.9736  -13.2739   28.4365 C.ar    1  UNL1        0.1019
     16 N           2.9031  -14.0871   27.1780 N.ar    1  UNL1       -0.2224
     17 C           4.0729  -14.1200   26.2397 C.ar    1  UNL1        0.1986
     18 N           5.3133  -13.3397   26.5599 N.ar    1  UNL1       -0.2266
     19 C           7.2915   -3.0395   25.9415 C.ar    1  UNL1        0.1453
     20 C           6.5875   -2.7257   27.2282 C.ar    1  UNL1        0.0381
     21 C           5.3668   -1.8540   27.2221 C.ar    1  UNL1        0.0114
     22 C           4.8502   -1.2961   25.9290 C.ar    1  UNL1        0.0419
     23 C           5.5542   -1.6099   24.6423 C.ar    1  UNL1        0.0114
     24 C           6.7749   -2.4817   24.6485 C.ar    1  UNL1        0.0381
     25 C           3.6295   -0.4244   25.9229 C.1     1  UNL1       -0.0621
     26 C           2.4089    0.4474   25.9168 C.1     1  UNL1       -0.0597
     27 C           0.0582    1.8323   26.0652 C.3     1  UNL1        0.1561
     28 O           1.0800    0.4670   24.5194 O.3     1  UNL1       -0.3739
     29 C           0.4789    2.2302   27.2917 C.3     1  UNL1        0.1120
     30 N           0.6915    2.4980   28.0408 N.3     1  UNL1       -0.2699
     31 C          -0.6335    2.9643   27.5147 C.3     1  UNL1        0.0723
     32 C          -1.0988    2.5243   26.1583 C.3     1  UNL1        0.0207
     33 C          -0.2391    1.6179   25.3280 C.3     1  UNL1        0.0404
     34 C           1.0859    1.1516   25.8541 C.3     1  UNL1        0.0207
     35 C           1.5512    1.5916   27.2105 C.3     1  UNL1        0.0723
     36 H           1.9357    0.1695   24.8663 H       1  UNL1        0.2115
@<TRIPOS>BOND
     1     8     9    2
     2     9    10   am
     3    10    12    1
     4    12    13    1
     5    13    14   ar
     6    14    15   ar
     7    15    16   ar
     8    16    17   ar
     9    17    18   ar
    10     9     2    1
    11     2     3   ar
    12     3     4   ar
    13     4     5   ar
    14     5     1    1
    15     1    19    1
    16    19    20   ar
    17    20    21   ar
    18    21    22   ar
    19    22    25    1
    20    25    26    3
    21    26    27    1
    22    27    28    1
    23    27    29    1
    24    29    30    1
    25    30    31    1
    26    31    32    1
    27    32    33    1
    28    33    34    1
    29    34    35    1
    30    22    23   ar
    31    23    24   ar
    32     5     6   ar
    33     6     7   ar
    34    18    13   ar
    35     7     2   ar
    36    24    19   ar
    37    33    27    1
    38    35    30    1
    39    10    11    1
    40    28    36    1
@<TRIPOS>MOLECULE
*****
 36 40 0 0 0
SMALL
GASTEIGER

@<TRIPOS>ATOM
      1 O           7.8757   -3.9815   24.2452 O.3     1  UNL1       -0.4535
      2 C           7.9161   -7.8944   26.4673 C.ar    1  UNL1        0.0536
      3 C           8.7369   -7.7302   25.2226 C.ar    1  UNL1        0.0076
      4 C           8.7234   -6.4260   24.4820 C.ar    1  UNL1        0.0376
      5 C           7.8892   -5.2858   24.9859 C.ar    1  UNL1        0.1453
      6 C           7.0683   -5.4500   26.2307 C.ar    1  UNL1        0.0376
      7 C           7.0818   -6.7543   26.9714 C.ar    1  UNL1        0.0076
      8 O           9.2149   -9.7280   27.7716 O.2     1  UNL1       -0.2701
      9 C           7.9296   -9.1988   27.2080 C.2     1  UNL1        0.2461
     10 N           6.6576   -9.9738   27.3851 N.am    1  UNL1       -0.2956
     11 H           5.8140   -9.6264   27.0152 H       1  UNL1        0.1501
     12 C           6.6711  -11.2782   28.1258 C.3     1  UNL1        0.1361
     13 C           5.4687  -12.1741   28.0886 C.ar    1  UNL1        0.0821
     14 C           4.4370  -12.0905   29.1741 C.ar    1  UNL1        0.0371
     15 C           3.2346  -12.9865   29.1369 C.ar    1  UNL1        0.1019
     16 N           3.0639  -13.9662   28.0139 N.ar    1  UNL1       -0.2224
     17 C           4.0956  -14.0499   26.9283 C.ar    1  UNL1        0.1986
     18 N           5.2980  -13.1539   26.9656 N.ar    1  UNL1       -0.2266
     19 C           6.6889   -3.0704   24.3523 C.ar    1  UNL1        0.1453
     20 C           5.5334   -3.2300   23.4094 C.ar    1  UNL1        0.0381
     21 C           4.3466   -2.3189   23.5164 C.ar    1  UNL1        0.0114
     22 C           4.3154   -1.2482   24.5665 C.ar    1  UNL1        0.0419
     23 C           5.4709   -1.0886   25.5095 C.ar    1  UNL1        0.0114
     24 C           6.6577   -1.9997   25.4024 C.ar    1  UNL1        0.0381
     25 C           3.1286   -0.3372   24.6736 C.1     1  UNL1       -0.0621
     26 C           1.9418    0.5739   24.7807 C.1     1  UNL1       -0.0597
     27 C          -0.2664    2.1808   24.6966 C.3     1  UNL1        0.1561
     28 O           0.6927    0.7653   26.2374 O.3     1  UNL1       -0.3739
     29 C           0.1294    2.4998   23.4391 C.3     1  UNL1        0.1120
     30 N           0.3295    2.7236   22.6724 N.3     1  UNL1       -0.2699
     31 C          -0.9155    3.3342   23.2442 C.3     1  UNL1        0.0723
     32 C          -1.3534    2.9815   24.6349 C.3     1  UNL1        0.0207
     33 C          -0.5461    2.0182   25.4536 C.3     1  UNL1        0.0404
     34 C           0.6989    1.4076   24.8818 C.3     1  UNL1        0.0207
     35 C           1.1367    1.7603   23.4912 C.3     1  UNL1        0.0723
     36 H           1.4967    0.3745   25.8608 H       1  UNL1        0.2115
@<TRIPOS>BOND
     1     8     9    2
     2     9    10   am
     3    10    12    1
     4    12    13    1
     5    13    14   ar
     6    14    15   ar
     7    15    16   ar
     8    16    17   ar
     9    17    18   ar
    10     9     2    1
    11     2     3   ar
    12     3     4   ar
    13     4     5   ar
    14     5     1    1
    15     1    19    1
    16    19    20   ar
    17    20    21   ar
    18    21    22   ar
    19    22    25    1
    20    25    26    3
    21    26    27    1
    22    27    28    1
    23    27    29    1
    24    29    30    1
    25    30    31    1
    26    31    32    1
    27    32    33    1
    28    33    34    1
    29    34    35    1
    30    22    23   ar
    31    23    24   ar
    32     5     6   ar
    33     6     7   ar
    34    18    13   ar
    35     7     2   ar
    36    24    19   ar
    37    33    27    1
    38    35    30    1
    39    10    11    1
    40    28    36    1
@<TRIPOS>MOLECULE
*****
 36 40 0 0 0
SMALL
GASTEIGER

@<TRIPOS>ATOM
      1 O           5.3163   -0.0447   18.1788 O.3     1  UNL1       -0.4535
      2 C           1.3748    2.0981   18.5301 C.ar    1  UNL1        0.0536
      3 C           1.4061    0.6073   18.3675 C.ar    1  UNL1        0.0076
      4 C           2.7199   -0.1069   18.2504 C.ar    1  UNL1        0.0376
      5 C           4.0025    0.6696   18.2959 C.ar    1  UNL1        0.1453
      6 C           3.9712    2.1605   18.4585 C.ar    1  UNL1        0.0376
      7 C           2.6573    2.8747   18.5755 C.ar    1  UNL1        0.0076
      8 O          -0.4996    3.5498   17.4674 O.2     1  UNL1       -0.2701
      9 C           0.0610    2.8124   18.6471 C.2     1  UNL1        0.2461
     10 N          -0.6923    2.7891   19.9441 N.am    1  UNL1       -0.2956
     11 H          -0.3243    2.3051   20.7184 H       1  UNL1        0.1501
     12 C          -2.0062    3.5034   20.0613 C.3     1  UNL1        0.1361
     13 C          -2.7672    3.4665   21.3533 C.ar    1  UNL1        0.0821
     14 C          -2.1150    3.9312   22.6216 C.ar    1  UNL1        0.0371
     15 C          -2.8760    3.8944   23.9136 C.ar    1  UNL1        0.1019
     16 N          -4.2895    3.3927   23.9373 N.ar    1  UNL1       -0.2224
     17 C          -4.9418    2.9280   22.6690 C.ar    1  UNL1        0.1986
     18 N          -4.1807    2.9649   21.3770 N.ar    1  UNL1       -0.2266
     19 C           5.7266   -1.0368   19.2264 C.ar    1  UNL1        0.1453
     20 C           5.4912   -2.5016   19.0054 C.ar    1  UNL1        0.0381
     21 C           5.9015   -3.4937   20.0529 C.ar    1  UNL1        0.0114
     22 C           6.5472   -3.0209   21.3217 C.ar    1  UNL1        0.0419
     23 C           6.7826   -1.5561   21.5427 C.ar    1  UNL1        0.0114
     24 C           6.3723   -0.5640   20.4951 C.ar    1  UNL1        0.0381
     25 C           6.9575   -4.0130   22.3692 C.1     1  UNL1       -0.0621
     26 C           7.3678   -5.0049   23.4168 C.1     1  UNL1       -0.0597
     27 C           8.0735   -7.0162   25.1264 C.3     1  UNL1        0.1561
     28 O           8.2912   -6.6077   22.8717 O.3     1  UNL1       -0.3739
     29 C           7.5035   -6.2622   26.0991 C.3     1  UNL1        0.1120
     30 N           7.1697   -5.8406   26.7226 N.3     1  UNL1       -0.2699
     31 C           7.7833   -7.1660   27.0640 C.3     1  UNL1        0.0723
     32 C           8.4137   -7.9999   25.9883 C.3     1  UNL1        0.0207
     33 C           8.4304   -7.5083   24.5712 C.3     1  UNL1        0.0404
     34 C           7.8167   -6.1829   24.2298 C.3     1  UNL1        0.0207
     35 C           7.1864   -5.3490   25.3056 C.3     1  UNL1        0.0723
     36 H           7.8924   -5.7496   22.6586 H       1  UNL1        0.2115
@<TRIPOS>BOND
     1     8     9    2
     2     9    10   am
     3    10    12    1
     4    12    13    1
     5    13    14   ar
     6    14    15   ar
     7    15    16   ar
     8    16    17   ar
     9    17    18   ar
    10     9     2    1
    11     2     3   ar
    12     3     4   ar
    13     4     5   ar
    14     5     1    1
    15     1    19    1
    16    19    20   ar
    17    20    21   ar
    18    21    22   ar
    19    22    25    1
    20    25    26    3
    21    26    27    1
    22    27    28    1
    23    27    29    1
    24    29    30    1
    25    30    31    1
    26    31    32    1
    27    32    33    1
    28    33    34    1
    29    34    35    1
    30    22    23   ar
    31    23    24   ar
    32     5     6   ar
    33     6     7   ar
    34    18    13   ar
    35     7     2   ar
    36    24    19   ar
    37    33    27    1
    38    35    30    1
    39    10    11    1
    40    28    36    1
@<TRIPOS>MOLECULE
*****
 36 40 0 0 0
SMALL
GASTEIGER

@<TRIPOS>ATOM
      1 O           3.6056   -1.1991   18.6830 O.3     1  UNL1       -0.4535
      2 C           0.4790    1.9035   19.6038 C.ar    1  UNL1        0.0536
      3 C           0.4248    0.5623   20.2734 C.ar    1  UNL1        0.0076
      4 C           1.4670   -0.4718   19.9664 C.ar    1  UNL1        0.0376
      5 C           2.5634   -0.1649   18.9899 C.ar    1  UNL1        0.1453
      6 C           2.6176    1.1763   18.3203 C.ar    1  UNL1        0.0376
      7 C           1.5754    2.2105   18.6273 C.ar    1  UNL1        0.0076
      8 O          -0.3512    4.3629   19.4942 O.2     1  UNL1       -0.2701
      9 C          -0.5633    2.9377   19.9108 C.2     1  UNL1        0.2461
     10 N          -1.8176    2.5465   20.6344 N.am    1  UNL1       -0.2956
     11 H          -1.9567    1.6110   20.9079 H       1  UNL1        0.1501
     12 C          -2.8599    3.5807   20.9415 C.3     1  UNL1        0.1361
     13 C          -4.0259    3.7679   20.0167 C.ar    1  UNL1        0.0821
     14 C          -3.7930    3.9937   18.5522 C.ar    1  UNL1        0.0371
     15 C          -4.9590    4.1809   17.6274 C.ar    1  UNL1        0.1019
     16 N          -6.3581    4.1423   18.1671 N.ar    1  UNL1       -0.2224
     17 C          -6.5910    3.9165   19.6316 C.ar    1  UNL1        0.1986
     18 N          -5.4250    3.7293   20.5564 N.ar    1  UNL1       -0.2266
     19 C           4.2598   -1.9589   19.7987 C.ar    1  UNL1        0.1453
     20 C           3.8908   -3.3912   20.0480 C.ar    1  UNL1        0.0381
     21 C           4.5449   -4.1510   21.1637 C.ar    1  UNL1        0.0114
     22 C           5.5681   -3.4784   22.0302 C.ar    1  UNL1        0.0419
     23 C           5.9371   -2.0461   21.7809 C.ar    1  UNL1        0.0114
     24 C           5.2829   -1.2863   20.6651 C.ar    1  UNL1        0.0381
     25 C           6.2222   -4.2382   23.1458 C.1     1  UNL1       -0.0621
     26 C           6.8764   -4.9979   24.2615 C.1     1  UNL1       -0.0597
     27 C           7.8839   -6.5956   26.2359 C.3     1  UNL1        0.1561
     28 O           6.4756   -4.7778   26.1349 O.3     1  UNL1       -0.3739
     29 C           8.5244   -7.2599   25.2419 C.3     1  UNL1        0.1120
     30 N           8.9328   -7.6937   24.6735 N.3     1  UNL1       -0.2699
     31 C           9.1012   -8.1318   26.0982 C.3     1  UNL1        0.0723
     32 C           8.3929   -7.3972   27.1975 C.3     1  UNL1        0.0207
     33 C           7.5161   -6.2244   26.8721 C.3     1  UNL1        0.0404
     34 C           7.3477   -5.7863   25.4475 C.3     1  UNL1        0.0207
     35 C           8.0560   -6.5210   24.3482 C.3     1  UNL1        0.0723
     36 H           6.3715   -4.5003   25.2113 H       1  UNL1        0.2115
@<TRIPOS>BOND
     1     8     9    2
     2     9    10   am
     3    10    12    1
     4    12    13    1
     5    13    14   ar
     6    14    15   ar
     7    15    16   ar
     8    16    17   ar
     9    17    18   ar
    10     9     2    1
    11     2     3   ar
    12     3     4   ar
    13     4     5   ar
    14     5     1    1
    15     1    19    1
    16    19    20   ar
    17    20    21   ar
    18    21    22   ar
    19    22    25    1
    20    25    26    3
    21    26    27    1
    22    27    28    1
    23    27    29    1
    24    29    30    1
    25    30    31    1
    26    31    32    1
    27    32    33    1
    28    33    34    1
    29    34    35    1
    30    22    23   ar
    31    23    24   ar
    32     5     6   ar
    33     6     7   ar
    34    18    13   ar
    35     7     2   ar
    36    24    19   ar
    37    33    27    1
    38    35    30    1
    39    10    11    1
    40    28    36    1
@<TRIPOS>MOLECULE
*****
 36 40 0 0 0
SMALL
GASTEIGER

@<TRIPOS>ATOM
      1 O           6.8275   -4.2765   31.6147 O.3     1  UNL1       -0.4535
      2 C           5.6577   -0.6359   33.9869 C.ar    1  UNL1        0.0536
      3 C           4.6256   -1.6667   33.6371 C.ar    1  UNL1        0.0076
      4 C           5.0156   -2.8802   32.8464 C.ar    1  UNL1        0.0376
      5 C           6.4375   -3.0630   32.4054 C.ar    1  UNL1        0.1453
      6 C           7.4697   -2.0322   32.7552 C.ar    1  UNL1        0.0376
      7 C           7.0797   -0.8186   33.5459 C.ar    1  UNL1        0.0076
      8 O           6.2828    1.2711   35.6369 O.2     1  UNL1       -0.2701
      9 C           5.2677    0.5777   34.7776 C.2     1  UNL1        0.2461
     10 N           3.8624    1.0977   34.7090 N.am    1  UNL1       -0.2956
     11 H           3.1961    0.6425   34.1450 H       1  UNL1        0.1501
     12 C           3.4723    2.3113   35.4997 C.3     1  UNL1        0.1361
     13 C           2.8558    2.1550   36.8582 C.ar    1  UNL1        0.0821
     14 C           3.3501    1.0866   37.7878 C.ar    1  UNL1        0.0371
     15 C           2.7337    0.9303   39.1463 C.ar    1  UNL1        0.1019
     16 N           1.6228    1.8425   39.5752 N.ar    1  UNL1       -0.2224
     17 C           1.1284    2.9110   38.6456 C.ar    1  UNL1        0.1986
     18 N           1.7450    3.0672   37.2871 N.ar    1  UNL1       -0.2266
     19 C           6.7875   -4.2397   30.1156 C.ar    1  UNL1        0.1453
     20 C           6.6181   -2.9314   29.4018 C.ar    1  UNL1        0.0381
     21 C           6.5781   -2.8945   27.9028 C.ar    1  UNL1        0.0114
     22 C           6.7077   -4.1661   27.1176 C.ar    1  UNL1        0.0419
     23 C           6.8771   -5.4744   27.8314 C.ar    1  UNL1        0.0114
     24 C           6.9170   -5.5112   29.3305 C.ar    1  UNL1        0.0381
     25 C           6.6677   -4.1292   25.6186 C.1     1  UNL1       -0.0621
     26 C           6.6278   -4.0924   24.1197 C.1     1  UNL1       -0.0597
     27 C           6.3804   -3.7978   21.4145 C.3     1  UNL1        0.1561
     28 O           8.0690   -4.3724   22.8693 O.3     1  UNL1       -0.3739
     29 C           5.0872   -3.4727   21.6627 C.3     1  UNL1        0.1120
     30 N           4.2958   -3.2695   21.7637 N.3     1  UNL1       -0.2699
     31 C           4.8072   -3.2873   20.3538 C.3     1  UNL1        0.0723
     32 C           6.2373   -3.6468   20.0792 C.3     1  UNL1        0.0207
     33 C           7.1560   -3.9884   21.2147 C.3     1  UNL1        0.0404
     34 C           6.6446   -3.9706   22.6247 C.3     1  UNL1        0.0207
     35 C           5.2145   -3.6112   22.8992 C.3     1  UNL1        0.0723
     36 H           7.7311   -4.3588   23.7784 H       1  UNL1        0.2115
@<TRIPOS>BOND
     1     8     9    2
     2     9    10   am
     3    10    12    1
     4    12    13    1
     5    13    14   ar
     6    14    15   ar
     7    15    16   ar
     8    16    17   ar
     9    17    18   ar
    10     9     2    1
    11     2     3   ar
    12     3     4   ar
    13     4     5   ar
    14     5     1    1
    15     1    19    1
    16    19    20   ar
    17    20    21   ar
    18    21    22   ar
    19    22    25    1
    20    25    26    3
    21    26    27    1
    22    27    28    1
    23    27    29    1
    24    29    30    1
    25    30    31    1
    26    31    32    1
    27    32    33    1
    28    33    34    1
    29    34    35    1
    30    22    23   ar
    31    23    24   ar
    32     5     6   ar
    33     6     7   ar
    34    18    13   ar
    35     7     2   ar
    36    24    19   ar
    37    33    27    1
    38    35    30    1
    39    10    11    1
    40    28    36    1
@<TRIPOS>MOLECULE
*****
 36 40 0 0 0
SMALL
GASTEIGER

@<TRIPOS>ATOM
      1 O           3.3625   -0.9657   18.7938 O.3     1  UNL1       -0.4535
      2 C           0.1018    1.9556   19.8349 C.ar    1  UNL1        0.0536
      3 C           0.1246    0.5984   20.4731 C.ar    1  UNL1        0.0076
      4 C           1.2115   -0.3754   20.1261 C.ar    1  UNL1        0.0376
      5 C           2.2756    0.0080   19.1409 C.ar    1  UNL1        0.1453
      6 C           2.2528    1.3654   18.5026 C.ar    1  UNL1        0.0376
      7 C           1.1658    2.3392   18.8497 C.ar    1  UNL1        0.0076
      8 O          -0.6894    4.3992   20.2258 O.2     1  UNL1       -0.2701
      9 C          -0.9851    2.9294   20.1819 C.2     1  UNL1        0.2461
     10 N          -2.3678    2.4331   20.4851 N.am    1  UNL1       -0.2956
     11 H          -2.5619    1.4684   20.4564 H       1  UNL1        0.1501
     12 C          -3.4548    3.4069   20.8322 C.3     1  UNL1        0.1361
     13 C          -3.8501    3.6103   22.2648 C.ar    1  UNL1        0.0821
     14 C          -5.2996    3.7207   22.6345 C.ar    1  UNL1        0.0371
     15 C          -5.6949    3.9242   24.0671 C.ar    1  UNL1        0.1019
     16 N          -4.6406    4.0172   25.1300 N.ar    1  UNL1       -0.2224
     17 C          -3.1910    3.9067   24.7603 C.ar    1  UNL1        0.1986
     18 N          -2.7958    3.7033   23.3277 N.ar    1  UNL1       -0.2266
     19 C           4.0445   -1.7462   19.8782 C.ar    1  UNL1        0.1453
     20 C           4.9053   -1.0396   20.8829 C.ar    1  UNL1        0.0381
     21 C           5.5873   -1.8200   21.9672 C.ar    1  UNL1        0.0114
     22 C           5.4085   -3.3072   22.0467 C.ar    1  UNL1        0.0419
     23 C           4.5477   -4.0139   21.0419 C.ar    1  UNL1        0.0114
     24 C           3.8657   -3.2334   19.9576 C.ar    1  UNL1        0.0381
     25 C           6.0906   -4.0877   23.1310 C.1     1  UNL1       -0.0621
     26 C           6.7727   -4.8679   24.2153 C.1     1  UNL1       -0.0597
     27 C           7.8772   -6.5211   26.0896 C.3     1  UNL1        0.1561
     28 O           6.4515   -4.7142   26.1106 O.3     1  UNL1       -0.3739
     29 C           8.4794   -7.1459   25.0472 C.3     1  UNL1        0.1120
     30 N           8.8663   -7.5566   24.4475 N.3     1  UNL1       -0.2699
     31 C           9.0996   -8.0404   25.8480 C.3     1  UNL1        0.0723
     32 C           8.4336   -7.3495   27.0009 C.3     1  UNL1        0.0207
     33 C           7.5343   -6.1748   26.7532 C.3     1  UNL1        0.0404
     34 C           7.3010   -5.6910   25.3527 C.3     1  UNL1        0.0207
     35 C           7.9670   -6.3819   24.1999 C.3     1  UNL1        0.0723
     36 H           6.3054   -4.4071   25.2022 H       1  UNL1        0.2115
@<TRIPOS>BOND
     1     8     9    2
     2     9    10   am
     3    10    12    1
     4    12    13    1
     5    13    14   ar
     6    14    15   ar
     7    15    16   ar
     8    16    17   ar
     9    17    18   ar
    10     9     2    1
    11     2     3   ar
    12     3     4   ar
    13     4     5   ar
    14     5     1    1
    15     1    19    1
    16    19    20   ar
    17    20    21   ar
    18    21    22   ar
    19    22    25    1
    20    25    26    3
    21    26    27    1
    22    27    28    1
    23    27    29    1
    24    29    30    1
    25    30    31    1
    26    31    32    1
    27    32    33    1
    28    33    34    1
    29    34    35    1
    30    22    23   ar
    31    23    24   ar
    32     5     6   ar
    33     6     7   ar
    34    18    13   ar
    35     7     2   ar
    36    24    19   ar
    37    33    27    1
    38    35    30    1
    39    10    11    1
    40    28    36    1
@<TRIPOS>MOLECULE
*****
 36 40 0 0 0
SMALL
GASTEIGER

@<TRIPOS>ATOM
      1 O           8.6042   -4.5123   23.5974 O.3     1  UNL1       -0.4535
      2 C           8.1456   -8.0137   26.3867 C.ar    1  UNL1        0.0536
      3 C           9.1960   -8.0401   25.3162 C.ar    1  UNL1        0.0076
      4 C           9.3489   -6.8729   24.3865 C.ar    1  UNL1        0.0376
      5 C           8.4514   -5.6794   24.5271 C.ar    1  UNL1        0.1453
      6 C           7.4009   -5.6530   25.5977 C.ar    1  UNL1        0.0376
      7 C           7.2481   -6.8202   26.5274 C.ar    1  UNL1        0.0076
      8 O           9.1136   -9.5558   28.2399 O.2     1  UNL1       -0.2701
      9 C           7.9928   -9.1809   27.3164 C.2     1  UNL1        0.2461
     10 N           6.7191   -9.9730   27.3225 N.am    1  UNL1       -0.2956
     11 H           5.9834   -9.7269   26.7163 H       1  UNL1        0.1501
     12 C           6.5662  -11.1402   28.2522 C.3     1  UNL1        0.1361
     13 C           5.3976  -12.0689   28.1041 C.ar    1  UNL1        0.0821
     14 C           4.2963  -12.0570   29.1224 C.ar    1  UNL1        0.0371
     15 C           3.1277  -12.9857   28.9744 C.ar    1  UNL1        0.1019
     16 N           3.0605  -13.9263   27.8079 N.ar    1  UNL1       -0.2224
     17 C           4.1618  -13.9383   26.7895 C.ar    1  UNL1        0.1986
     18 N           5.3303  -13.0096   26.9376 N.ar    1  UNL1       -0.2266
     19 C           7.4129   -3.6701   23.2487 C.ar    1  UNL1        0.1453
     20 C           6.9685   -2.5786   24.1767 C.ar    1  UNL1        0.0381
     21 C           5.7772   -1.7364   23.8281 C.ar    1  UNL1        0.0114
     22 C           5.0303   -1.9858   22.5513 C.ar    1  UNL1        0.0419
     23 C           5.4746   -3.0773   21.6234 C.ar    1  UNL1        0.0114
     24 C           6.6660   -3.9194   21.9721 C.ar    1  UNL1        0.0381
     25 C           3.8390   -1.1436   22.2027 C.1     1  UNL1       -0.0621
     26 C           2.6478   -0.3013   21.8542 C.1     1  UNL1       -0.0597
     27 C           0.4263    1.0452   21.0071 C.3     1  UNL1        0.1561
     28 O           1.5940   -0.8169   20.3237 O.3     1  UNL1       -0.3739
     29 C           0.6530    1.8843   22.0484 C.3     1  UNL1        0.1120
     30 N           0.7498    2.4197   22.6663 N.3     1  UNL1       -0.2699
     31 C          -0.4192    2.6531   21.7559 C.3     1  UNL1        0.0723
     32 C          -0.6699    1.7252   20.6044 C.3     1  UNL1        0.0207
     33 C           0.2484    0.5639   20.3633 C.3     1  UNL1        0.0404
     34 C           1.4174    0.3305   21.2737 C.3     1  UNL1        0.0207
     35 C           1.6681    1.2584   22.4252 C.3     1  UNL1        0.0723
     36 H           2.3479   -0.9614   20.9167 H       1  UNL1        0.2115
@<TRIPOS>BOND
     1     8     9    2
     2     9    10   am
     3    10    12    1
     4    12    13    1
     5    13    14   ar
     6    14    15   ar
     7    15    16   ar
     8    16    17   ar
     9    17    18   ar
    10     9     2    1
    11     2     3   ar
    12     3     4   ar
    13     4     5   ar
    14     5     1    1
    15     1    19    1
    16    19    20   ar
    17    20    21   ar
    18    21    22   ar
    19    22    25    1
    20    25    26    3
    21    26    27    1
    22    27    28    1
    23    27    29    1
    24    29    30    1
    25    30    31    1
    26    31    32    1
    27    32    33    1
    28    33    34    1
    29    34    35    1
    30    22    23   ar
    31    23    24   ar
    32     5     6   ar
    33     6     7   ar
    34    18    13   ar
    35     7     2   ar
    36    24    19   ar
    37    33    27    1
    38    35    30    1
    39    10    11    1
    40    28    36    1
@<TRIPOS>MOLECULE
*****
 36 40 0 0 0
SMALL
GASTEIGER

@<TRIPOS>ATOM
      1 O           3.8781   -1.6183   19.8795 O.3     1  UNL1       -0.4535
      2 C           0.8538    1.6427   20.5644 C.ar    1  UNL1        0.0536
      3 C           0.4021    0.2201   20.4153 C.ar    1  UNL1        0.0076
      4 C           1.4102   -0.8669   20.1870 C.ar    1  UNL1        0.0376
      5 C           2.8700   -0.5314   20.1078 C.ar    1  UNL1        0.1453
      6 C           3.3218    0.8913   20.2569 C.ar    1  UNL1        0.0376
      7 C           2.3136    1.9783   20.4852 C.ar    1  UNL1        0.0076
      8 O           0.2949    4.0849   21.2523 O.2     1  UNL1       -0.2701
      9 C          -0.1544    2.7297   20.7927 C.2     1  UNL1        0.2461
     10 N          -1.6119    2.4613   20.5612 N.am    1  UNL1       -0.2956
     11 H          -1.9068    1.5718   20.2596 H       1  UNL1        0.1501
     12 C          -2.6202    3.5483   20.7895 C.3     1  UNL1        0.1361
     13 C          -3.3880    3.6007   22.0770 C.ar    1  UNL1        0.0821
     14 C          -4.8874    3.5662   22.0582 C.ar    1  UNL1        0.0371
     15 C          -5.6552    3.6187   23.3457 C.ar    1  UNL1        0.1019
     16 N          -4.9234    3.7056   24.6522 N.ar    1  UNL1       -0.2224
     17 C          -3.4238    3.7400   24.6711 C.ar    1  UNL1        0.1986
     18 N          -2.6561    3.6876   23.3836 N.ar    1  UNL1       -0.2266
     19 C           4.5319   -2.2927   21.0491 C.ar    1  UNL1        0.1453
     20 C           4.0061   -2.0661   22.4355 C.ar    1  UNL1        0.0381
     21 C           4.6598   -2.7403   23.6052 C.ar    1  UNL1        0.0114
     22 C           5.8394   -3.6413   23.3883 C.ar    1  UNL1        0.0419
     23 C           6.3652   -3.8679   22.0019 C.ar    1  UNL1        0.0114
     24 C           5.7114   -3.1935   20.8323 C.ar    1  UNL1        0.0381
     25 C           6.4931   -4.3155   24.5579 C.1     1  UNL1       -0.0621
     26 C           7.1469   -4.9898   25.7274 C.1     1  UNL1       -0.0597
     27 C           8.1236   -6.1127   28.0189 C.3     1  UNL1        0.1561
     28 O           8.7401   -6.0738   25.8017 O.3     1  UNL1       -0.3739
     29 C           7.0680   -5.5318   28.6418 C.3     1  UNL1        0.1120
     30 N           6.4438   -5.1990   29.0633 N.3     1  UNL1       -0.2699
     31 C           7.4230   -6.0169   29.8522 C.3     1  UNL1        0.0723
     32 C           8.5903   -6.6593   29.1633 C.3     1  UNL1        0.0207
     33 C           8.7784   -6.4840   27.6855 C.3     1  UNL1        0.0404
     34 C           7.7993   -5.6661   26.8966 C.3     1  UNL1        0.0207
     35 C           6.6320   -5.0237   27.5855 C.3     1  UNL1        0.0723
     36 H           8.1028   -5.5435   25.2981 H       1  UNL1        0.2115
@<TRIPOS>BOND
     1     8     9    2
     2     9    10   am
     3    10    12    1
     4    12    13    1
     5    13    14   ar
     6    14    15   ar
     7    15    16   ar
     8    16    17   ar
     9    17    18   ar
    10     9     2    1
    11     2     3   ar
    12     3     4   ar
    13     4     5   ar
    14     5     1    1
    15     1    19    1
    16    19    20   ar
    17    20    21   ar
    18    21    22   ar
    19    22    25    1
    20    25    26    3
    21    26    27    1
    22    27    28    1
    23    27    29    1
    24    29    30    1
    25    30    31    1
    26    31    32    1
    27    32    33    1
    28    33    34    1
    29    34    35    1
    30    22    23   ar
    31    23    24   ar
    32     5     6   ar
    33     6     7   ar
    34    18    13   ar
    35     7     2   ar
    36    24    19   ar
    37    33    27    1
    38    35    30    1
    39    10    11    1
    40    28    36    1
