@<TRIPOS>MOLECULE
*****
 25 26 0 0 0
SMALL
GASTEIGER

@<TRIPOS>ATOM
      1 C         -10.9350  -17.9509   21.2938 C.ar    1  UNL1        0.1753
      2 C          -9.7145  -18.4664   20.5907 C.ar    1  UNL1        0.0403
      3 C          -8.4803  -18.7978   21.3761 C.ar    1  UNL1        0.0063
      4 C          -8.4666  -18.6137   22.8647 C.ar    1  UNL1        0.0403
      5 C          -9.6872  -18.0981   23.5678 C.ar    1  UNL1        0.1753
      6 C         -10.9214  -17.7667   22.7823 C.ar    1  UNL1        0.2059
      7 C          -7.2597  -19.3134   20.6729 C.2     1  UNL1        0.0035
      8 C          -5.9083  -19.1581   21.3050 C.2     1  UNL1        0.0420
      9 C          -4.6877  -19.6737   20.6019 C.2     1  UNL1        0.1957
     10 O          -4.6804  -21.0612   20.0319 O.2     1  UNL1       -0.2866
     11 C          -3.4745  -18.8018   20.4686 C.ar    1  UNL1        0.0420
     12 C          -2.9879  -18.0087   21.6452 C.ar    1  UNL1        0.0239
     13 C          -1.7747  -17.1368   21.5120 C.ar    1  UNL1        0.0990
     14 N          -1.0479  -17.0580   20.2022 N.ar    1  UNL1       -0.2423
     15 C          -1.5344  -17.8510   19.0255 C.ar    1  UNL1        0.0990
     16 C          -2.7477  -18.7229   19.1588 C.ar    1  UNL1        0.0239
     17 O         -12.1692  -17.6194   20.5083 O.3     1  UNL1       -0.4723
     18 C         -11.4773  -15.5101   19.1585 C.3     1  UNL1        0.0512
     19 C         -12.4312  -16.2046   20.0847 C.3     1  UNL1        0.2057
     20 O          -9.6736  -17.9139   25.0564 O.3     1  UNL1       -0.4723
     21 C          -8.8571  -16.8146   25.6687 C.3     1  UNL1        0.2057
     22 C          -8.7309  -15.4944   24.9676 C.3     1  UNL1        0.0512
     23 O         -12.1420  -17.2511   23.4855 O.3     1  UNL1       -0.4695
     24 C         -13.3789  -18.0965   23.5583 C.3     1  UNL1        0.2058
     25 C         -14.0734  -18.2980   24.8724 C.3     1  UNL1        0.0512
@<TRIPOS>BOND
     1    18    19    1
     2    19    17    1
     3    17     1    1
     4     1     2   ar
     5     2     3   ar
     6     3     7    1
     7     7     8    2
     8     8     9    1
     9     9    10    2
    10     9    11    1
    11    11    12   ar
    12    12    13   ar
    13    13    14   ar
    14    14    15   ar
    15    15    16   ar
    16     3     4   ar
    17     4     5   ar
    18     5    20    1
    19    20    21    1
    20    21    22    1
    21     5     6   ar
    22     6    23    1
    23    23    24    1
    24    24    25    1
    25     6     1   ar
    26    16    11   ar
@<TRIPOS>MOLECULE
*****
 25 26 0 0 0
SMALL
GASTEIGER

@<TRIPOS>ATOM
      1 C         -11.9483   -4.7613   19.2085 C.ar    1  UNL1        0.1753
      2 C         -12.8262   -5.9766   19.1608 C.ar    1  UNL1        0.0403
      3 C         -14.3084   -5.8389   19.3455 C.ar    1  UNL1        0.0063
      4 C         -14.9127   -4.4859   19.5778 C.ar    1  UNL1        0.0403
      5 C         -14.0348   -3.2706   19.6255 C.ar    1  UNL1        0.1753
      6 C         -12.5526   -3.4083   19.4409 C.ar    1  UNL1        0.2059
      7 C         -15.1863   -7.0543   19.2978 C.2     1  UNL1        0.0035
      8 C         -14.8529   -8.1843   18.3694 C.2     1  UNL1        0.0420
      9 C         -15.7307   -9.3997   18.3216 C.2     1  UNL1        0.1957
     10 O         -15.1185  -10.7620   18.1826 O.2     1  UNL1       -0.2866
     11 C         -17.2207   -9.2527   18.4130 C.ar    1  UNL1        0.0420
     12 C         -17.9061   -9.3731   19.7417 C.ar    1  UNL1        0.0239
     13 C         -19.3961   -9.2261   19.8331 C.ar    1  UNL1        0.0990
     14 N         -20.2006   -8.9589   18.5957 N.ar    1  UNL1       -0.2423
     15 C         -19.5152   -8.8385   17.2668 C.ar    1  UNL1        0.0990
     16 C         -18.0252   -8.9854   17.1755 C.ar    1  UNL1        0.0239
     17 O         -10.4661   -4.8991   19.0238 O.3     1  UNL1       -0.4723
     18 C          -9.5184   -7.3179   18.9883 C.3     1  UNL1        0.0512
     19 C          -9.9104   -6.0655   18.2618 C.3     1  UNL1        0.2057
     20 O         -14.6391   -1.9174   19.8579 O.3     1  UNL1       -0.4723
     21 C         -16.1096   -1.7070   19.6499 C.3     1  UNL1        0.2057
     22 C         -16.7597   -0.4393   20.1196 C.3     1  UNL1        0.0512
     23 O         -11.6747   -2.1929   19.4886 O.3     1  UNL1       -0.4695
     24 C         -11.3533   -1.4499   18.2258 C.3     1  UNL1        0.2058
     25 C         -12.1177   -0.2093   17.8703 C.3     1  UNL1        0.0512
@<TRIPOS>BOND
     1    18    19    1
     2    19    17    1
     3    17     1    1
     4     1     2   ar
     5     2     3   ar
     6     3     7    1
     7     7     8    2
     8     8     9    1
     9     9    10    2
    10     9    11    1
    11    11    12   ar
    12    12    13   ar
    13    13    14   ar
    14    14    15   ar
    15    15    16   ar
    16     3     4   ar
    17     4     5   ar
    18     5    20    1
    19    20    21    1
    20    21    22    1
    21     5     6   ar
    22     6    23    1
    23    23    24    1
    24    24    25    1
    25     6     1   ar
    26    16    11   ar
@<TRIPOS>MOLECULE
*****
 25 26 0 0 0
SMALL
GASTEIGER

@<TRIPOS>ATOM
      1 C          -9.2720  -17.4034   23.8954 C.ar    1  UNL1        0.1753
      2 C          -8.5190  -18.1822   22.8580 C.ar    1  UNL1        0.0403
      3 C          -7.1207  -17.7837   22.4892 C.ar    1  UNL1        0.0063
      4 C          -6.4754  -16.6062   23.1579 C.ar    1  UNL1        0.0403
      5 C          -7.2284  -15.8273   24.1953 C.ar    1  UNL1        0.1753
      6 C          -8.6267  -16.2259   24.5640 C.ar    1  UNL1        0.2059
      7 C          -6.3677  -18.5626   21.4518 C.2     1  UNL1        0.0035
      8 C          -4.9236  -18.9036   21.6716 C.2     1  UNL1        0.0420
      9 C          -4.1705  -19.6825   20.6342 C.2     1  UNL1        0.1957
     10 O          -4.6631  -21.0332   20.2064 O.2     1  UNL1       -0.2866
     11 C          -2.9249  -19.1108   20.0246 C.ar    1  UNL1        0.0420
     12 C          -2.9893  -18.4218   18.6938 C.ar    1  UNL1        0.0239
     13 C          -1.7437  -17.8501   18.0842 C.ar    1  UNL1        0.0990
     14 N          -0.4337  -17.9673   18.8054 N.ar    1  UNL1       -0.2423
     15 C          -0.3693  -18.6563   20.1363 C.ar    1  UNL1        0.0990
     16 C          -1.6149  -19.2280   20.7459 C.ar    1  UNL1        0.0239
     17 O         -10.6702  -17.8019   24.2641 O.3     1  UNL1       -0.4723
     18 C         -13.1913  -17.9706   23.6596 C.3     1  UNL1        0.0512
     19 C         -11.7769  -17.6711   23.2601 C.3     1  UNL1        0.2057
     20 O          -6.5832  -14.6498   24.8640 O.3     1  UNL1       -0.4723
     21 C          -5.2946  -14.8250   25.6115 C.3     1  UNL1        0.2057
     22 C          -5.0082  -16.1156   26.3205 C.3     1  UNL1        0.0512
     23 O          -9.3797  -15.4469   25.6015 O.3     1  UNL1       -0.4695
     24 C          -8.8040  -15.2770   26.9762 C.3     1  UNL1        0.2058
     25 C          -8.3208  -16.4740   27.7401 C.3     1  UNL1        0.0512
@<TRIPOS>BOND
     1    18    19    1
     2    19    17    1
     3    17     1    1
     4     1     2   ar
     5     2     3   ar
     6     3     7    1
     7     7     8    2
     8     8     9    1
     9     9    10    2
    10     9    11    1
    11    11    12   ar
    12    12    13   ar
    13    13    14   ar
    14    14    15   ar
    15    15    16   ar
    16     3     4   ar
    17     4     5   ar
    18     5    20    1
    19    20    21    1
    20    21    22    1
    21     5     6   ar
    22     6    23    1
    23    23    24    1
    24    24    25    1
    25     6     1   ar
    26    16    11   ar
@<TRIPOS>MOLECULE
*****
 25 26 0 0 0
SMALL
GASTEIGER

@<TRIPOS>ATOM
      1 C         -13.4074   -6.0275   19.2561 C.ar    1  UNL1        0.1753
      2 C         -14.0745   -4.7219   19.5727 C.ar    1  UNL1        0.0403
      3 C         -13.2801   -3.4496   19.5528 C.ar    1  UNL1        0.0063
      4 C         -11.8188   -3.4830   19.2162 C.ar    1  UNL1        0.0403
      5 C         -11.1518   -4.7887   18.8995 C.ar    1  UNL1        0.1753
      6 C         -11.9461   -6.0609   18.9195 C.ar    1  UNL1        0.2059
      7 C         -13.9473   -2.1439   19.8694 C.2     1  UNL1        0.0035
      8 C         -14.2378   -1.1644   18.7712 C.2     1  UNL1        0.0420
      9 C         -14.9049    0.1412   19.0877 C.2     1  UNL1        0.1957
     10 O         -14.2097    1.4335   18.7765 O.2     1  UNL1       -0.2866
     11 C         -16.2671    0.1546   19.7155 C.ar    1  UNL1        0.0420
     12 C         -16.6769    1.2994   20.5939 C.ar    1  UNL1        0.0239
     13 C         -18.0391    1.3128   21.2217 C.ar    1  UNL1        0.0990
     14 N         -18.9916    0.1815   20.9711 N.ar    1  UNL1       -0.2423
     15 C         -18.5819   -0.9633   20.0927 C.ar    1  UNL1        0.0990
     16 C         -17.2196   -0.9768   19.4649 C.ar    1  UNL1        0.0239
     17 O         -14.2017   -7.2998   19.2760 O.3     1  UNL1       -0.4723
     18 C         -15.1047   -9.2839   17.8625 C.3     1  UNL1        0.0512
     19 C         -14.8182   -7.8190   18.0110 C.3     1  UNL1        0.2057
     20 O          -9.6904   -4.8221   18.5629 O.3     1  UNL1       -0.4723
     21 C          -9.2465   -4.6985   17.1355 C.3     1  UNL1        0.2057
     22 C          -9.4267   -3.4016   16.4036 C.3     1  UNL1        0.0512
     23 O         -11.2790   -7.3666   18.6028 O.3     1  UNL1       -0.4695
     24 C         -11.0385   -7.7592   17.1752 C.3     1  UNL1        0.2058
     25 C         -11.9185   -7.2148   16.0893 C.3     1  UNL1        0.0512
@<TRIPOS>BOND
     1    18    19    1
     2    19    17    1
     3    17     1    1
     4     1     2   ar
     5     2     3   ar
     6     3     7    1
     7     7     8    2
     8     8     9    1
     9     9    10    2
    10     9    11    1
    11    11    12   ar
    12    12    13   ar
    13    13    14   ar
    14    14    15   ar
    15    15    16   ar
    16     3     4   ar
    17     4     5   ar
    18     5    20    1
    19    20    21    1
    20    21    22    1
    21     5     6   ar
    22     6    23    1
    23    23    24    1
    24    24    25    1
    25     6     1   ar
    26    16    11   ar
@<TRIPOS>MOLECULE
*****
 25 26 0 0 0
SMALL
GASTEIGER

@<TRIPOS>ATOM
      1 C         -13.9503   -6.3490   19.2158 C.ar    1  UNL1        0.1753
      2 C         -14.7717   -5.1772   19.6655 C.ar    1  UNL1        0.0403
      3 C         -14.1202   -3.8436   19.8822 C.ar    1  UNL1        0.0063
      4 C         -12.6473   -3.6817   19.6492 C.ar    1  UNL1        0.0403
      5 C         -11.8259   -4.8534   19.1995 C.ar    1  UNL1        0.1753
      6 C         -12.4774   -6.1870   18.9828 C.ar    1  UNL1        0.2059
      7 C         -14.9417   -2.6718   20.3319 C.2     1  UNL1        0.0035
      8 C         -16.0765   -2.1813   19.4824 C.2     1  UNL1        0.0420
      9 C         -16.8980   -1.0096   19.9321 C.2     1  UNL1        0.1957
     10 O         -18.2639   -1.2295   20.5118 O.2     1  UNL1       -0.2866
     11 C         -16.3537    0.3821   19.8021 C.ar    1  UNL1        0.0420
     12 C         -16.8715    1.4758   20.6884 C.ar    1  UNL1        0.0239
     13 C         -16.3271    2.8675   20.5584 C.ar    1  UNL1        0.0990
     14 N         -15.2650    3.1655   19.5421 N.ar    1  UNL1       -0.2423
     15 C         -14.7471    2.0718   18.6556 C.ar    1  UNL1        0.0990
     16 C         -15.2915    0.6801   18.7856 C.ar    1  UNL1        0.0239
     17 O         -14.6017   -7.6826   18.9991 O.3     1  UNL1       -0.4723
     18 C         -17.1251   -7.8938   18.4179 C.3     1  UNL1        0.0512
     19 C         -16.0206   -7.9036   19.4327 C.3     1  UNL1        0.2057
     20 O         -10.3529   -4.6915   18.9665 O.3     1  UNL1       -0.4723
     21 C          -9.8620   -3.8358   17.8367 C.3     1  UNL1        0.2057
     22 C          -9.1496   -4.4633   16.6752 C.3     1  UNL1        0.0512
     23 O         -11.6559   -7.3588   18.5331 O.3     1  UNL1       -0.4695
     24 C         -11.3478   -7.5440   17.0768 C.3     1  UNL1        0.2058
     25 C         -12.0874   -6.7437   16.0460 C.3     1  UNL1        0.0512
@<TRIPOS>BOND
     1    18    19    1
     2    19    17    1
     3    17     1    1
     4     1     2   ar
     5     2     3   ar
     6     3     7    1
     7     7     8    2
     8     8     9    1
     9     9    10    2
    10     9    11    1
    11    11    12   ar
    12    12    13   ar
    13    13    14   ar
    14    14    15   ar
    15    15    16   ar
    16     3     4   ar
    17     4     5   ar
    18     5    20    1
    19    20    21    1
    20    21    22    1
    21     5     6   ar
    22     6    23    1
    23    23    24    1
    24    24    25    1
    25     6     1   ar
    26    16    11   ar
@<TRIPOS>MOLECULE
*****
 25 26 0 0 0
SMALL
GASTEIGER

@<TRIPOS>ATOM
      1 C           2.2551   -0.1698   21.9082 C.ar    1  UNL1        0.1753
      2 C           3.1992   -0.5516   23.0094 C.ar    1  UNL1        0.0403
      3 C           4.1801   -1.6675   22.8031 C.ar    1  UNL1        0.0063
      4 C           4.2168   -2.4016   21.4956 C.ar    1  UNL1        0.0403
      5 C           3.2727   -2.0198   20.3944 C.ar    1  UNL1        0.1753
      6 C           2.2918   -0.9039   20.6007 C.ar    1  UNL1        0.2059
      7 C           5.1243   -2.0493   23.9045 C.2     1  UNL1        0.0035
      8 C           5.6964   -3.4350   23.9551 C.2     1  UNL1        0.0420
      9 C           6.6405   -3.8168   25.0563 C.2     1  UNL1        0.1957
     10 O           7.1169   -2.7792   26.0293 O.2     1  UNL1       -0.2866
     11 C           7.1083   -5.2362   25.1847 C.ar    1  UNL1        0.0420
     12 C           7.8747   -5.8774   24.0660 C.ar    1  UNL1        0.0239
     13 C           8.3425   -7.2968   24.1944 C.ar    1  UNL1        0.0990
     14 N           8.0439   -8.0750   25.4415 N.ar    1  UNL1       -0.2423
     15 C           7.2775   -7.4338   26.5602 C.ar    1  UNL1        0.0990
     16 C           6.8097   -6.0144   26.4319 C.ar    1  UNL1        0.0239
     17 O           1.2742    0.9462   22.1145 O.3     1  UNL1       -0.4723
     18 C           0.4816    1.1985   24.5758 C.3     1  UNL1        0.0512
     19 C           1.2679    1.7101   23.4053 C.3     1  UNL1        0.2057
     20 O           3.3094   -2.7540   19.0868 O.3     1  UNL1       -0.4723
     21 C           3.3079   -4.2538   19.0684 C.3     1  UNL1        0.2057
     22 C           4.5842   -5.0021   18.8206 C.3     1  UNL1        0.0512
     23 O           1.3476   -0.5221   19.4994 O.3     1  UNL1       -0.4695
     24 C           1.7159    0.5717   18.5413 C.3     1  UNL1        0.2058
     25 C           3.1279    1.0746   18.4841 C.3     1  UNL1        0.0512
@<TRIPOS>BOND
     1    18    19    1
     2    19    17    1
     3    17     1    1
     4     1     2   ar
     5     2     3   ar
     6     3     7    1
     7     7     8    2
     8     8     9    1
     9     9    10    2
    10     9    11    1
    11    11    12   ar
    12    12    13   ar
    13    13    14   ar
    14    14    15   ar
    15    15    16   ar
    16     3     4   ar
    17     4     5   ar
    18     5    20    1
    19    20    21    1
    20    21    22    1
    21     5     6   ar
    22     6    23    1
    23    23    24    1
    24    24    25    1
    25     6     1   ar
    26    16    11   ar
@<TRIPOS>MOLECULE
*****
 25 26 0 0 0
SMALL
GASTEIGER

@<TRIPOS>ATOM
      1 C           2.8276   -0.8703   20.6412 C.ar    1  UNL1        0.1753
      2 C           2.4882   -0.1084   21.8879 C.ar    1  UNL1        0.0403
      3 C           3.0650   -0.5321   23.2062 C.ar    1  UNL1        0.0063
      4 C           3.9811   -1.7177   23.2778 C.ar    1  UNL1        0.0403
      5 C           4.3204   -2.4795   22.0311 C.ar    1  UNL1        0.1753
      6 C           3.7437   -2.0559   20.7128 C.ar    1  UNL1        0.2059
      7 C           2.7255    0.2299   24.4529 C.2     1  UNL1        0.0035
      8 C           1.5611    1.1754   24.4604 C.2     1  UNL1        0.0420
      9 C           1.2217    1.9373   25.7071 C.2     1  UNL1        0.1957
     10 O           1.3356    3.4329   25.7264 O.2     1  UNL1       -0.2866
     11 C           0.7683    1.2038   26.9344 C.ar    1  UNL1        0.0420
     12 C          -0.6899    1.1529   27.2820 C.ar    1  UNL1        0.0239
     13 C          -1.1432    0.4194   28.5094 C.ar    1  UNL1        0.0990
     14 N          -0.1383   -0.2634   29.3891 N.ar    1  UNL1       -0.2423
     15 C           1.3200   -0.2126   29.0415 C.ar    1  UNL1        0.0990
     16 C           1.7733    0.5210   27.8141 C.ar    1  UNL1        0.0239
     17 O           2.2509   -0.4467   19.3229 O.3     1  UNL1       -0.4723
     18 C           0.9125    1.6579   18.5951 C.3     1  UNL1        0.0512
     19 C           0.9649    0.3243   19.2799 C.3     1  UNL1        0.2057
     20 O           5.2366   -3.6652   22.1026 O.3     1  UNL1       -0.4723
     21 C           6.7137   -3.4840   21.9154 C.3     1  UNL1        0.2057
     22 C           7.3227   -3.6464   20.5541 C.3     1  UNL1        0.0512
     23 O           4.0831   -2.8178   19.4661 O.3     1  UNL1       -0.4695
     24 C           3.5170   -4.1897   19.2480 C.3     1  UNL1        0.2058
     25 C           4.4169   -5.3147   18.8304 C.3     1  UNL1        0.0512
@<TRIPOS>BOND
     1    18    19    1
     2    19    17    1
     3    17     1    1
     4     1     2   ar
     5     2     3   ar
     6     3     7    1
     7     7     8    2
     8     8     9    1
     9     9    10    2
    10     9    11    1
    11    11    12   ar
    12    12    13   ar
    13    13    14   ar
    14    14    15   ar
    15    15    16   ar
    16     3     4   ar
    17     4     5   ar
    18     5    20    1
    19    20    21    1
    20    21    22    1
    21     5     6   ar
    22     6    23    1
    23    23    24    1
    24    24    25    1
    25     6     1   ar
    26    16    11   ar
@<TRIPOS>MOLECULE
*****
 25 26 0 0 0
SMALL
GASTEIGER

@<TRIPOS>ATOM
      1 C           4.7019   -3.1411   22.3056 C.ar    1  UNL1        0.1753
      2 C           4.4031   -2.2552   23.4786 C.ar    1  UNL1        0.0403
      3 C           3.5189   -1.0558   23.3066 C.ar    1  UNL1        0.0063
      4 C           2.9334   -0.7422   21.9617 C.ar    1  UNL1        0.0403
      5 C           3.2322   -1.6281   20.7887 C.ar    1  UNL1        0.1753
      6 C           4.1164   -2.8275   20.9607 C.ar    1  UNL1        0.2059
      7 C           3.2202   -0.1699   24.4797 C.2     1  UNL1        0.0035
      8 C           1.9929    0.6926   24.4749 C.2     1  UNL1        0.0420
      9 C           1.6942    1.5784   25.6478 C.2     1  UNL1        0.1957
     10 O           1.9991    3.0454   25.5767 O.2     1  UNL1       -0.2866
     11 C           1.0905    0.9974   26.8920 C.ar    1  UNL1        0.0420
     12 C          -0.3901    1.0819   27.1173 C.ar    1  UNL1        0.0239
     13 C          -0.9938    0.5009   28.3615 C.ar    1  UNL1        0.0990
     14 N          -0.1169   -0.1647   29.3803 N.ar    1  UNL1       -0.2423
     15 C           1.3637   -0.2493   29.1550 C.ar    1  UNL1        0.0990
     16 C           1.9674    0.3318   27.9109 C.ar    1  UNL1        0.0239
     17 O           5.5861   -4.3405   22.4775 O.3     1  UNL1       -0.4723
     18 C           8.0581   -4.4756   21.6896 C.3     1  UNL1        0.0512
     19 C           7.0493   -4.1602   22.7539 C.3     1  UNL1        0.2057
     20 O           2.6467   -1.3146   19.4437 O.3     1  UNL1       -0.4723
     21 C           3.2848   -0.2740   18.5720 C.3     1  UNL1        0.2057
     22 C           3.6330   -0.5980   17.1494 C.3     1  UNL1        0.0512
     23 O           4.4151   -3.7134   19.7876 O.3     1  UNL1       -0.4695
     24 C           5.4431   -3.2986   18.7771 C.3     1  UNL1        0.2058
     25 C           6.5135   -2.3182   19.1552 C.3     1  UNL1        0.0512
@<TRIPOS>BOND
     1    18    19    1
     2    19    17    1
     3    17     1    1
     4     1     2   ar
     5     2     3   ar
     6     3     7    1
     7     7     8    2
     8     8     9    1
     9     9    10    2
    10     9    11    1
    11    11    12   ar
    12    12    13   ar
    13    13    14   ar
    14    14    15   ar
    15    15    16   ar
    16     3     4   ar
    17     4     5   ar
    18     5    20    1
    19    20    21    1
    20    21    22    1
    21     5     6   ar
    22     6    23    1
    23    23    24    1
    24    24    25    1
    25     6     1   ar
    26    16    11   ar
@<TRIPOS>MOLECULE
*****
 25 26 0 0 0
SMALL
GASTEIGER

@<TRIPOS>ATOM
      1 C           4.3666   -2.9016   21.7928 C.ar    1  UNL1        0.1753
      2 C           4.1810   -2.1037   23.0493 C.ar    1  UNL1        0.0403
      3 C           3.3153   -0.8788   23.0389 C.ar    1  UNL1        0.0063
      4 C           2.6352   -0.4518   21.7720 C.ar    1  UNL1        0.0403
      5 C           2.8208   -1.2497   20.5155 C.ar    1  UNL1        0.1753
      6 C           3.6865   -2.4746   20.5259 C.ar    1  UNL1        0.2059
      7 C           3.1297   -0.0808   24.2954 C.2     1  UNL1        0.0035
      8 C           1.9836    0.8799   24.4114 C.2     1  UNL1        0.0420
      9 C           1.7980    1.6778   25.6679 C.2     1  UNL1        0.1957
     10 O           2.2313    3.1132   25.7158 O.2     1  UNL1       -0.2866
     11 C           1.1792    1.0405   26.8765 C.ar    1  UNL1        0.0420
     12 C           2.0478    0.3648   27.8958 C.ar    1  UNL1        0.0239
     13 C           1.4289   -0.2725   29.1044 C.ar    1  UNL1        0.0990
     14 N          -0.0585   -0.2342   29.2938 N.ar    1  UNL1       -0.2423
     15 C          -0.9272    0.4415   28.2746 C.ar    1  UNL1        0.0990
     16 C          -0.3084    1.0789   27.0659 C.ar    1  UNL1        0.0239
     17 O           5.2323   -4.1266   21.8032 O.3     1  UNL1       -0.4723
     18 C           7.6722   -3.3879   21.3021 C.3     1  UNL1        0.0512
     19 C           6.6701   -4.0253   22.2183 C.3     1  UNL1        0.2057
     20 O           2.1407   -0.8227   19.2485 O.3     1  UNL1       -0.4723
     21 C           2.7974    0.1790   18.3456 C.3     1  UNL1        0.2057
     22 C           2.4708    1.6369   18.4794 C.3     1  UNL1        0.0512
     23 O           3.8721   -3.2725   19.2693 O.3     1  UNL1       -0.4695
     24 C           5.1811   -3.2268   18.5383 C.3     1  UNL1        0.2058
     25 C           5.8197   -1.9061   18.2256 C.3     1  UNL1        0.0512
@<TRIPOS>BOND
     1    18    19    1
     2    19    17    1
     3    17     1    1
     4     1     2   ar
     5     2     3   ar
     6     3     7    1
     7     7     8    2
     8     8     9    1
     9     9    10    2
    10     9    11    1
    11    11    12   ar
    12    12    13   ar
    13    13    14   ar
    14    14    15   ar
    15    15    16   ar
    16     3     4   ar
    17     4     5   ar
    18     5    20    1
    19    20    21    1
    20    21    22    1
    21     5     6   ar
    22     6    23    1
    23    23    24    1
    24    24    25    1
    25     6     1   ar
    26    16    11   ar
