@<TRIPOS>MOLECULE
*****
 21 23 0 0 0
SMALL
GASTEIGER

@<TRIPOS>ATOM
      1 C          -6.7865  -18.9224   21.8772 C.3     1  UNL1        0.2082
      2 S          -6.6100  -17.8213   22.8804 S.3     1  UNL1       -0.0751
      3 C          -5.2320  -17.3962   23.2929 C.2     1  UNL1        0.0470
      4 C          -4.0303  -18.0723   22.7023 C.2     1  UNL1        0.0551
      5 C          -2.6522  -17.6472   23.1149 C.3     1  UNL1        0.0512
      6 N          -4.2067  -19.1734   21.6991 N.ar    1  UNL1       -0.2279
      7 C          -5.5848  -19.5985   21.2865 C.ar    1  UNL1        0.2066
      8 N          -5.4477  -20.7057   20.2839 N.ar    1  UNL1       -0.0545
      9 O          -3.9849  -20.9649   20.0768 O.2     1  UNL1       -0.2950
     10 C          -3.2179  -20.0179   20.9514 C.ar    1  UNL1        0.4470
     11 O          -1.7243  -19.9308   21.0594 O.2     1  UNL1       -0.2203
     12 C          -8.2226  -18.5884   22.1527 C.ar    1  UNL1        0.0189
     13 C          -8.7336  -17.2024   21.8921 C.ar    1  UNL1       -0.0002
     14 C         -10.1697  -16.8683   22.1675 C.ar    1  UNL1        0.0065
     15 C         -11.0950  -17.9202   22.7037 C.ar    1  UNL1        0.0345
     16 BR        -12.5311  -17.5861   22.9791 Br      1  UNL1       -0.0490
     17 C         -10.5840  -19.3062   22.9643 C.ar    1  UNL1        0.0065
     18 C          -9.1478  -19.6403   22.6888 C.ar    1  UNL1       -0.0002
     19 O          -7.4616  -19.9075   20.9697 O.3     1  UNL1       -0.3379
     20 C          -9.1296  -20.0241   18.9811 C.3     1  UNL1        0.0347
     21 C          -7.8598  -19.4988   19.5825 C.3     1  UNL1        0.1440
@<TRIPOS>BOND
     1    20    21    1
     2    21    19    1
     3    19     1    1
     4     1    12    1
     5    12    13   ar
     6    13    14   ar
     7    14    15   ar
     8    15    16    1
     9    15    17   ar
    10    17    18   ar
    11     1     2    1
    12     2     3    1
    13     3     4    2
    14     4     5    1
    15     4     6    1
    16     6     7   ar
    17     7     8   ar
    18     8     9   ar
    19     9    10   ar
    20    10    11    2
    21     7     1    1
    22    18    12   ar
    23    10     6   ar
@<TRIPOS>MOLECULE
*****
 21 23 0 0 0
SMALL
GASTEIGER

@<TRIPOS>ATOM
      1 C          -8.6830  -17.9343   23.1374 C.3     1  UNL1        0.2082
      2 S          -8.8336  -16.7051   23.9839 S.3     1  UNL1       -0.0751
      3 C          -7.6376  -15.8527   24.2881 C.2     1  UNL1        0.0470
      4 C          -6.2907  -16.2294   23.7459 C.2     1  UNL1        0.0551
      5 C          -5.0945  -15.3769   24.0502 C.3     1  UNL1        0.0512
      6 N          -6.1399  -17.4585   22.8994 N.ar    1  UNL1       -0.2279
      7 C          -7.3361  -18.3109   22.5952 C.ar    1  UNL1        0.2066
      8 N          -6.8834  -19.4561   21.7386 N.ar    1  UNL1       -0.0545
      9 O          -5.4075  -19.3114   21.5135 O.2     1  UNL1       -0.2950
     10 C          -4.9480  -18.0768   22.2309 C.ar    1  UNL1        0.4470
     11 O          -3.5432  -17.5526   22.2725 O.2     1  UNL1       -0.2203
     12 C         -10.1550  -17.9913   23.4197 C.ar    1  UNL1        0.0189
     13 C         -10.6981  -19.0222   24.3644 C.ar    1  UNL1       -0.0002
     14 C         -12.1701  -19.0793   24.6468 C.ar    1  UNL1        0.0065
     15 C         -13.0992  -18.1054   23.9846 C.ar    1  UNL1        0.0345
     16 BR        -14.5712  -18.1625   24.2670 Br      1  UNL1       -0.0490
     17 C         -12.5561  -17.0746   23.0399 C.ar    1  UNL1        0.0065
     18 C         -11.0840  -17.0175   22.7575 C.ar    1  UNL1       -0.0002
     19 O          -9.0434  -19.1832   22.3890 O.3     1  UNL1       -0.3379
     20 C         -10.7433  -19.9115   20.5641 C.3     1  UNL1        0.0347
     21 C          -9.5582  -19.0928   20.9830 C.3     1  UNL1        0.1440
@<TRIPOS>BOND
     1    20    21    1
     2    21    19    1
     3    19     1    1
     4     1    12    1
     5    12    13   ar
     6    13    14   ar
     7    14    15   ar
     8    15    16    1
     9    15    17   ar
    10    17    18   ar
    11     1     2    1
    12     2     3    1
    13     3     4    2
    14     4     5    1
    15     4     6    1
    16     6     7   ar
    17     7     8   ar
    18     8     9   ar
    19     9    10   ar
    20    10    11    2
    21     7     1    1
    22    18    12   ar
    23    10     6   ar
@<TRIPOS>MOLECULE
*****
 21 23 0 0 0
SMALL
GASTEIGER

@<TRIPOS>ATOM
      1 C          -8.7604  -18.1299   22.4159 C.3     1  UNL1        0.2082
      2 S          -7.2928  -18.2896   22.6817 S.3     1  UNL1       -0.0751
      3 C          -6.4371  -19.0644   21.7239 C.2     1  UNL1        0.0470
      4 C          -7.0489  -19.6796   20.5004 C.2     1  UNL1        0.0551
      5 C          -6.1932  -20.4544   19.5426 C.3     1  UNL1        0.0512
      6 N          -8.5165  -19.5200   20.2346 N.ar    1  UNL1       -0.2279
      7 C          -9.3723  -18.7452   21.1924 C.ar    1  UNL1        0.2066
      8 N         -10.7786  -18.7559   20.6706 N.ar    1  UNL1       -0.0545
      9 O         -10.7919  -19.5374   19.3904 O.2     1  UNL1       -0.2950
     10 C          -9.3940  -20.0097   19.1209 C.ar    1  UNL1        0.4470
     11 O          -8.9512  -20.8279   17.9443 O.2     1  UNL1       -0.2203
     12 C          -8.6441  -17.3673   23.7023 C.ar    1  UNL1        0.0189
     13 C          -7.8580  -16.0906   23.7489 C.ar    1  UNL1       -0.0002
     14 C          -7.7417  -15.3279   25.0352 C.ar    1  UNL1        0.0065
     15 C          -8.4115  -15.8418   26.2751 C.ar    1  UNL1        0.0345
     16 BR         -8.2951  -15.0791   27.5614 Br      1  UNL1       -0.0490
     17 C          -9.1976  -17.1185   26.2286 C.ar    1  UNL1        0.0065
     18 C          -9.3139  -17.8812   24.9422 C.ar    1  UNL1       -0.0002
     19 O         -10.1876  -17.7055   22.5969 O.3     1  UNL1       -0.3379
     20 C         -12.0183  -15.8675   22.4524 C.3     1  UNL1        0.0347
     21 C         -10.6257  -16.3400   22.1568 C.3     1  UNL1        0.1440
@<TRIPOS>BOND
     1    20    21    1
     2    21    19    1
     3    19     1    1
     4     1    12    1
     5    12    13   ar
     6    13    14   ar
     7    14    15   ar
     8    15    16    1
     9    15    17   ar
    10    17    18   ar
    11     1     2    1
    12     2     3    1
    13     3     4    2
    14     4     5    1
    15     4     6    1
    16     6     7   ar
    17     7     8   ar
    18     8     9   ar
    19     9    10   ar
    20    10    11    2
    21     7     1    1
    22    18    12   ar
    23    10     6   ar
@<TRIPOS>MOLECULE
*****
 21 23 0 0 0
SMALL
GASTEIGER

@<TRIPOS>ATOM
      1 C         -14.6804   -6.1697   18.7015 C.3     1  UNL1        0.2082
      2 S         -15.7110   -5.2186   19.2340 S.3     1  UNL1       -0.0751
      3 C         -17.0517   -5.7319   19.6687 C.2     1  UNL1        0.0470
      4 C         -17.3620   -7.1961   19.5708 C.2     1  UNL1        0.0551
      5 C         -18.7028   -7.7093   20.0055 C.3     1  UNL1        0.0512
      6 N         -16.3315   -8.1472   19.0383 N.ar    1  UNL1       -0.2279
      7 C         -14.9907   -7.6340   18.6037 C.ar    1  UNL1        0.2066
      8 N         -14.1809   -8.8016   18.1232 N.ar    1  UNL1       -0.0545
      9 O         -15.0212  -10.0364   18.2609 O.2     1  UNL1       -0.2950
     10 C         -16.3503   -9.6320   18.8265 C.ar    1  UNL1        0.4470
     11 O         -17.4969  -10.5511   19.1274 O.2     1  UNL1       -0.2203
     12 C         -13.9207   -4.8801   18.6025 C.ar    1  UNL1        0.0189
     13 C         -13.4651   -4.3789   17.2642 C.ar    1  UNL1       -0.0002
     14 C         -12.7053   -3.0894   17.1650 C.ar    1  UNL1        0.0065
     15 C         -12.4011   -2.3009   18.4044 C.ar    1  UNL1        0.0345
     16 BR        -11.6414   -1.0114   18.3053 Br      1  UNL1       -0.0490
     17 C         -12.8567   -2.8022   19.7428 C.ar    1  UNL1        0.0065
     18 C         -13.6165   -4.0918   19.8418 C.ar    1  UNL1       -0.0002
     19 O         -13.3861   -6.6729   18.1347 O.3     1  UNL1       -0.3379
     20 C         -10.8215   -6.8596   18.5068 C.3     1  UNL1        0.0347
     21 C         -12.2207   -6.9337   19.0424 C.3     1  UNL1        0.1440
@<TRIPOS>BOND
     1    20    21    1
     2    21    19    1
     3    19     1    1
     4     1    12    1
     5    12    13   ar
     6    13    14   ar
     7    14    15   ar
     8    15    16    1
     9    15    17   ar
    10    17    18   ar
    11     1     2    1
    12     2     3    1
    13     3     4    2
    14     4     5    1
    15     4     6    1
    16     6     7   ar
    17     7     8   ar
    18     8     9   ar
    19     9    10   ar
    20    10    11    2
    21     7     1    1
    22    18    12   ar
    23    10     6   ar
@<TRIPOS>MOLECULE
*****
 21 23 0 0 0
SMALL
GASTEIGER

@<TRIPOS>ATOM
      1 C         -14.6354   -6.8040   18.5727 C.3     1  UNL1        0.2082
      2 S         -13.9786   -8.0498   18.0563 S.3     1  UNL1       -0.0751
      3 C         -14.7313   -9.3472   18.0505 C.2     1  UNL1        0.0470
      4 C         -16.1407   -9.3989   18.5611 C.2     1  UNL1        0.0551
      5 C         -16.8934  -10.6964   18.5553 C.3     1  UNL1        0.0512
      6 N         -16.7975   -8.1532   19.0774 N.ar    1  UNL1       -0.2279
      7 C         -16.0449   -6.8557   19.0832 C.ar    1  UNL1        0.2066
      8 N         -16.9468   -5.7991   19.6489 N.ar    1  UNL1       -0.0545
      9 O         -18.2570   -6.4435   19.9927 O.2     1  UNL1       -0.2950
     10 C         -18.1647   -7.8984   19.6395 C.ar    1  UNL1        0.4470
     11 O         -19.2492   -8.9193   19.8172 O.2     1  UNL1       -0.2203
     12 C         -13.2920   -6.2533   18.1960 C.ar    1  UNL1        0.0189
     13 C         -12.0616   -6.7189   18.9168 C.ar    1  UNL1       -0.0002
     14 C         -10.7182   -6.1683   18.5402 C.ar    1  UNL1        0.0065
     15 C         -10.6050   -5.1520   17.4427 C.ar    1  UNL1        0.0345
     16 BR         -9.2615   -4.6014   17.0661 Br      1  UNL1       -0.0490
     17 C         -11.8353   -4.6864   16.7219 C.ar    1  UNL1        0.0065
     18 C         -13.1788   -5.2370   17.0985 C.ar    1  UNL1       -0.0002
     19 O         -14.8256   -5.3670   18.9582 O.3     1  UNL1       -0.3379
     20 C         -13.9044   -3.4079   20.3947 C.3     1  UNL1        0.0347
     21 C         -14.2646   -4.8571   20.2525 C.3     1  UNL1        0.1440
@<TRIPOS>BOND
     1    20    21    1
     2    21    19    1
     3    19     1    1
     4     1    12    1
     5    12    13   ar
     6    13    14   ar
     7    14    15   ar
     8    15    16    1
     9    15    17   ar
    10    17    18   ar
    11     1     2    1
    12     2     3    1
    13     3     4    2
    14     4     5    1
    15     4     6    1
    16     6     7   ar
    17     7     8   ar
    18     8     9   ar
    19     9    10   ar
    20    10    11    2
    21     7     1    1
    22    18    12   ar
    23    10     6   ar
@<TRIPOS>MOLECULE
*****
 21 23 0 0 0
SMALL
GASTEIGER

@<TRIPOS>ATOM
      1 C         -13.9983   -5.9207   18.8234 C.3     1  UNL1        0.2082
      2 S         -12.8746   -6.9142   18.8452 S.3     1  UNL1       -0.0751
      3 C         -11.4533   -6.4380   18.8984 C.2     1  UNL1        0.0470
      4 C         -11.1555   -4.9682   18.9298 C.2     1  UNL1        0.0551
      5 C          -9.7341   -4.4920   18.9829 C.3     1  UNL1        0.0512
      6 N         -12.2790   -3.9746   18.9080 N.ar    1  UNL1       -0.2279
      7 C         -13.7004   -4.4509   18.8548 C.ar    1  UNL1        0.2066
      8 N         -14.5931   -3.2455   18.8436 N.ar    1  UNL1       -0.0545
      9 O         -13.7234   -2.0242   18.8899 O.2     1  UNL1       -0.2950
     10 C         -12.2932   -2.4749   18.9297 C.ar    1  UNL1        0.4470
     11 O         -11.0887   -1.5824   18.9820 O.2     1  UNL1       -0.2203
     12 C         -14.7806   -7.1997   18.7791 C.ar    1  UNL1        0.0189
     13 C         -15.9188   -7.4161   19.7319 C.ar    1  UNL1       -0.0002
     14 C         -16.7012   -8.6950   19.6877 C.ar    1  UNL1        0.0065
     15 C         -16.3454   -9.7578   18.6907 C.ar    1  UNL1        0.0345
     16 BR        -17.1278  -11.0368   18.6465 Br      1  UNL1       -0.0490
     17 C         -15.2072   -9.5415   17.7379 C.ar    1  UNL1        0.0065
     18 C         -14.4248   -8.2624   17.7821 C.ar    1  UNL1       -0.0002
     19 O         -15.3935   -5.3713   18.7863 O.3     1  UNL1       -0.3379
     20 C         -17.5961   -5.0520   17.4459 C.3     1  UNL1        0.0347
     21 C         -16.1060   -5.2218   17.4748 C.3     1  UNL1        0.1440
@<TRIPOS>BOND
     1    20    21    1
     2    21    19    1
     3    19     1    1
     4     1    12    1
     5    12    13   ar
     6    13    14   ar
     7    14    15   ar
     8    15    16    1
     9    15    17   ar
    10    17    18   ar
    11     1     2    1
    12     2     3    1
    13     3     4    2
    14     4     5    1
    15     4     6    1
    16     6     7   ar
    17     7     8   ar
    18     8     9   ar
    19     9    10   ar
    20    10    11    2
    21     7     1    1
    22    18    12   ar
    23    10     6   ar
@<TRIPOS>MOLECULE
*****
 21 23 0 0 0
SMALL
GASTEIGER

@<TRIPOS>ATOM
      1 C         -15.2136   -6.9606   18.9454 C.3     1  UNL1        0.2082
      2 S         -14.7985   -8.1602   18.1460 S.3     1  UNL1       -0.0751
      3 C         -13.3734   -8.3096   17.7028 C.2     1  UNL1        0.0470
      4 C         -12.3632   -7.2594   18.0587 C.2     1  UNL1        0.0551
      5 C         -10.9380   -7.4088   17.6154 C.3     1  UNL1        0.0512
      6 N         -12.7782   -6.0599   18.8580 N.ar    1  UNL1       -0.2279
      7 C         -14.2034   -5.9105   19.3013 C.ar    1  UNL1        0.2066
      8 N         -14.3171   -4.6290   20.0726 N.ar    1  UNL1       -0.0545
      9 O         -12.9621   -3.9865   20.1060 O.2     1  UNL1       -0.2950
     10 C         -12.0110   -4.8707   19.3553 C.ar    1  UNL1        0.4470
     11 O         -10.5494   -4.6114   19.1398 O.2     1  UNL1       -0.2203
     12 C         -16.5261   -7.6812   18.8562 C.ar    1  UNL1        0.0189
     13 C         -17.1244   -7.9866   17.5150 C.ar    1  UNL1       -0.0002
     14 C         -18.4370   -8.7071   17.4257 C.ar    1  UNL1        0.0065
     15 C         -19.1514   -9.1223   18.6777 C.ar    1  UNL1        0.0345
     16 BR        -20.4639   -9.8428   18.5883 Br      1  UNL1       -0.0490
     17 C         -18.5531   -8.8169   20.0189 C.ar    1  UNL1        0.0065
     18 C         -17.2405   -8.0963   20.1081 C.ar    1  UNL1       -0.0002
     19 O         -16.0844   -6.0114   19.7136 O.3     1  UNL1       -0.3379
     20 C         -17.9630   -4.2167   19.7232 C.3     1  UNL1        0.0347
     21 C         -16.9222   -5.0039   18.9835 C.3     1  UNL1        0.1440
@<TRIPOS>BOND
     1    20    21    1
     2    21    19    1
     3    19     1    1
     4     1    12    1
     5    12    13   ar
     6    13    14   ar
     7    14    15   ar
     8    15    16    1
     9    15    17   ar
    10    17    18   ar
    11     1     2    1
    12     2     3    1
    13     3     4    2
    14     4     5    1
    15     4     6    1
    16     6     7   ar
    17     7     8   ar
    18     8     9   ar
    19     9    10   ar
    20    10    11    2
    21     7     1    1
    22    18    12   ar
    23    10     6   ar
@<TRIPOS>MOLECULE
*****
 21 23 0 0 0
SMALL
GASTEIGER

@<TRIPOS>ATOM
      1 C          -7.2909  -18.4862   21.9463 C.3     1  UNL1        0.2082
      2 S          -7.4747  -19.2359   20.6601 S.3     1  UNL1       -0.0751
      3 C          -8.8553  -19.5628   20.1732 C.2     1  UNL1        0.0470
      4 C         -10.0521  -19.1400   20.9724 C.2     1  UNL1        0.0551
      5 C         -11.4327  -19.4669   20.4855 C.3     1  UNL1        0.0512
      6 N          -9.8684  -18.3903   22.2586 N.ar    1  UNL1       -0.2279
      7 C          -8.4878  -18.0634   22.7455 C.ar    1  UNL1        0.2066
      8 N          -8.6174  -17.3186   24.0411 N.ar    1  UNL1       -0.0545
      9 O         -10.0781  -17.1852   24.3548 O.2     1  UNL1       -0.2950
     10 C         -10.8513  -17.8475   23.2532 C.ar    1  UNL1        0.4470
     11 O         -12.3450  -17.9492   23.1622 O.2     1  UNL1       -0.2203
     12 C          -5.8574  -18.6710   21.5453 C.ar    1  UNL1        0.0189
     13 C          -5.4806  -18.6851   20.0934 C.ar    1  UNL1       -0.0002
     14 C          -4.0471  -18.8699   19.6923 C.ar    1  UNL1        0.0065
     15 C          -2.9903  -19.0405   20.7431 C.ar    1  UNL1        0.0345
     16 BR         -1.5568  -19.2252   20.3420 Br      1  UNL1       -0.0490
     17 C          -3.3670  -19.0263   22.1949 C.ar    1  UNL1        0.0065
     18 C          -4.8006  -18.8415   22.5960 C.ar    1  UNL1       -0.0002
     19 O          -6.6093  -17.8007   23.0932 O.3     1  UNL1       -0.3379
     20 C          -5.4552  -15.6538   23.9925 C.3     1  UNL1        0.0347
     21 C          -6.4638  -16.3078   23.0953 C.3     1  UNL1        0.1440
@<TRIPOS>BOND
     1    20    21    1
     2    21    19    1
     3    19     1    1
     4     1    12    1
     5    12    13   ar
     6    13    14   ar
     7    14    15   ar
     8    15    16    1
     9    15    17   ar
    10    17    18   ar
    11     1     2    1
    12     2     3    1
    13     3     4    2
    14     4     5    1
    15     4     6    1
    16     6     7   ar
    17     7     8   ar
    18     8     9   ar
    19     9    10   ar
    20    10    11    2
    21     7     1    1
    22    18    12   ar
    23    10     6   ar
@<TRIPOS>MOLECULE
*****
 21 23 0 0 0
SMALL
GASTEIGER

@<TRIPOS>ATOM
      1 C         -12.5370   -2.3444   18.3588 C.3     1  UNL1        0.2082
      2 S         -11.2606   -1.9462   17.6788 S.3     1  UNL1       -0.0751
      3 C         -11.0777   -0.5396   17.1913 C.2     1  UNL1        0.0470
      4 C         -12.1711    0.4691   17.3839 C.2     1  UNL1        0.0551
      5 C         -11.9882    1.8758   16.8964 C.3     1  UNL1        0.0512
      6 N         -13.4474    0.0710   18.0639 N.ar    1  UNL1       -0.2279
      7 C         -13.6304   -1.3358   18.5514 C.ar    1  UNL1        0.2066
      8 N         -14.9881   -1.4353   19.1812 N.ar    1  UNL1       -0.0545
      9 O         -15.6443   -0.0900   19.0829 O.2     1  UNL1       -0.2950
     10 C         -14.6921    0.8409   18.3924 C.ar    1  UNL1        0.4470
     11 O         -14.9410    2.2877   18.0845 O.2     1  UNL1       -0.2203
     12 C         -11.7976   -3.6486   18.4084 C.ar    1  UNL1        0.0189
     13 C         -10.4242   -3.7097   19.0083 C.ar    1  UNL1       -0.0002
     14 C          -9.6847   -5.0137   19.0579 C.ar    1  UNL1        0.0065
     15 C         -10.3187   -6.2569   18.5075 C.ar    1  UNL1        0.0345
     16 BR         -9.5792   -7.5609   18.5571 Br      1  UNL1       -0.0490
     17 C         -11.6922   -6.1958   17.9076 C.ar    1  UNL1        0.0065
     18 C         -12.4316   -4.8916   17.8581 C.ar    1  UNL1       -0.0002
     19 O         -13.5565   -3.1954   19.0561 O.3     1  UNL1       -0.3379
     20 C         -14.3811   -4.3806   21.2161 C.3     1  UNL1        0.0347
     21 C         -13.4892   -3.3797   20.5432 C.3     1  UNL1        0.1440
@<TRIPOS>BOND
     1    20    21    1
     2    21    19    1
     3    19     1    1
     4     1    12    1
     5    12    13   ar
     6    13    14   ar
     7    14    15   ar
     8    15    16    1
     9    15    17   ar
    10    17    18   ar
    11     1     2    1
    12     2     3    1
    13     3     4    2
    14     4     5    1
    15     4     6    1
    16     6     7   ar
    17     7     8   ar
    18     8     9   ar
    19     9    10   ar
    20    10    11    2
    21     7     1    1
    22    18    12   ar
    23    10     6   ar
