@<TRIPOS>MOLECULE
*****
 30 33 0 0 0
SMALL
GASTEIGER

@<TRIPOS>ATOM
      1 C          -7.3636  -17.0918   23.2089 C.2     1  UNL1        0.0020
      2 C          -8.5706  -17.3155   22.3469 C.2     1  UNL1        0.0129
      3 C          -9.9212  -16.8613   22.8152 C.3     1  UNL1        0.1529
      4 C         -11.2223  -16.3694   23.3769 C.3     1  UNL1        0.0458
      5 C         -12.5911  -16.4421   22.7675 C.3     1  UNL1        0.0210
      6 C         -12.9968  -17.0244   21.4462 C.3     1  UNL1        0.0687
      7 N         -12.1341  -17.6780   20.4076 N.3     1  UNL1       -0.2973
      8 C         -10.6525  -17.9107   20.4341 C.3     1  UNL1        0.0725
      9 C          -9.6677  -17.5472   21.5056 C.3     1  UNL1        0.0614
     10 O         -10.0649  -16.1834   24.1456 O.3     1  UNL1       -0.4785
     11 C          -8.8580  -15.9598   25.0076 C.ar    1  UNL1        0.1386
     12 C          -9.0016  -15.2819   26.3380 C.ar    1  UNL1        0.0369
     13 C          -7.7946  -15.0583   27.2000 C.ar    1  UNL1        0.0031
     14 C          -6.4439  -15.5125   26.7317 C.ar    1  UNL1        0.0002
     15 C          -6.3002  -16.1903   25.4013 C.ar    1  UNL1        0.0030
     16 C          -7.5073  -16.4140   24.5393 C.ar    1  UNL1        0.0338
     17 H         -12.2915  -17.1292   19.5624 H       1  UNL1        0.1232
     18 C          -3.3116  -18.4545   21.8039 C.ar    1  UNL1        0.0536
     19 C          -3.4248  -17.3219   22.7809 C.ar    1  UNL1        0.0045
     20 C          -4.7755  -16.8677   23.2492 C.ar    1  UNL1        0.0001
     21 C          -6.0129  -17.5460   22.7406 C.ar    1  UNL1       -0.0001
     22 C          -5.8996  -18.6786   21.7636 C.ar    1  UNL1        0.0001
     23 C          -4.5489  -19.1328   21.2952 C.ar    1  UNL1        0.0045
     24 N          -1.2276  -18.1247   20.2878 N.am    1  UNL1       -0.2761
     25 C          -1.9608  -18.9087   21.3355 C.2     1  UNL1        0.2490
     26 O          -1.3435  -20.1468   21.9149 O.2     1  UNL1       -0.2699
     27 C           1.3519  -17.8204   20.2257 C.3     1  UNL1        0.0233
     28 C           0.1231  -18.5790   19.8195 C.3     1  UNL1        0.0938
     29 C          -1.8450  -16.8865   19.7084 C.3     1  UNL1        0.0938
     30 C          -2.7389  -16.9856   18.5079 C.3     1  UNL1        0.0233
@<TRIPOS>BOND
     1    27    28    1
     2    28    24    1
     3    24    29    1
     4    29    30    1
     5    24    25   am
     6    25    26    2
     7    25    18    1
     8    18    19   ar
     9    19    20   ar
    10    20    21   ar
    11    21     1    1
    12     1     2    2
    13     2     3    1
    14     3     4    1
    15     4     5    1
    16     5     6    1
    17     6     7    1
    18     7     8    1
    19     8     9    1
    20     3    10    1
    21    10    11    1
    22    11    12   ar
    23    12    13   ar
    24    13    14   ar
    25    14    15   ar
    26    15    16   ar
    27    21    22   ar
    28    22    23   ar
    29    23    18   ar
    30    16     1    1
    31     9     3    1
    32    16    11   ar
    33     7    17    1
@<TRIPOS>MOLECULE
*****
 30 33 0 0 0
SMALL
GASTEIGER

@<TRIPOS>ATOM
      1 C           6.7205   -3.7796   25.2583 C.2     1  UNL1        0.0020
      2 C           6.3926   -3.1616   26.5852 C.2     1  UNL1        0.0129
      3 C           6.7298   -3.8869   27.8541 C.3     1  UNL1        0.1529
      4 C           7.1089   -4.6948   29.0598 C.3     1  UNL1        0.0458
      5 C           6.9180   -4.3581   30.5091 C.3     1  UNL1        0.0210
      6 C           6.3008   -3.1304   31.1104 C.3     1  UNL1        0.0687
      7 N           5.7221   -1.9362   30.4113 N.3     1  UNL1       -0.2973
      8 C           5.6176   -1.6747   28.9379 C.3     1  UNL1        0.0725
      9 C           6.0661   -2.5429   27.7999 C.3     1  UNL1        0.0614
     10 O           7.3950   -5.2302   27.7962 O.3     1  UNL1       -0.4785
     11 C           7.7229   -5.8481   26.4694 C.ar    1  UNL1        0.1386
     12 C           8.3881   -7.1913   26.4114 C.ar    1  UNL1        0.0369
     13 C           8.7160   -7.8092   25.0845 C.ar    1  UNL1        0.0031
     14 C           8.3788   -7.0839   23.8156 C.ar    1  UNL1        0.0002
     15 C           7.7136   -5.7408   23.8735 C.ar    1  UNL1        0.0030
     16 C           7.3857   -5.1228   25.2004 C.ar    1  UNL1        0.0338
     17 H           6.2539   -1.1451   30.7741 H       1  UNL1        0.1232
     18 C           5.7088   -1.6038   21.4514 C.ar    1  UNL1        0.0536
     19 C           7.0904   -1.5050   22.0273 C.ar    1  UNL1        0.0045
     20 C           7.4276   -2.2303   23.2962 C.ar    1  UNL1        0.0001
     21 C           6.3833   -3.0543   23.9894 C.ar    1  UNL1       -0.0001
     22 C           5.0018   -3.1531   23.4135 C.ar    1  UNL1        0.0001
     23 C           4.6645   -2.4278   22.1445 C.ar    1  UNL1        0.0045
     24 N           5.4435   -1.5956   18.8669 N.am    1  UNL1       -0.2761
     25 C           5.3716   -0.8785   20.1824 C.2     1  UNL1        0.2490
     26 O           4.9626    0.5638   20.2291 O.2     1  UNL1       -0.2699
     27 C           3.6931   -0.8561   17.0951 C.3     1  UNL1        0.0233
     28 C           5.1063   -0.8702   17.5980 C.3     1  UNL1        0.0938
     29 C           5.8526   -3.0380   18.8203 C.3     1  UNL1        0.0938
     30 C           4.8078   -4.1118   18.7471 C.3     1  UNL1        0.0233
@<TRIPOS>BOND
     1    27    28    1
     2    28    24    1
     3    24    29    1
     4    29    30    1
     5    24    25   am
     6    25    26    2
     7    25    18    1
     8    18    19   ar
     9    19    20   ar
    10    20    21   ar
    11    21     1    1
    12     1     2    2
    13     2     3    1
    14     3     4    1
    15     4     5    1
    16     5     6    1
    17     6     7    1
    18     7     8    1
    19     8     9    1
    20     3    10    1
    21    10    11    1
    22    11    12   ar
    23    12    13   ar
    24    13    14   ar
    25    14    15   ar
    26    15    16   ar
    27    21    22   ar
    28    22    23   ar
    29    23    18   ar
    30    16     1    1
    31     9     3    1
    32    16    11   ar
    33     7    17    1
@<TRIPOS>MOLECULE
*****
 30 33 0 0 0
SMALL
GASTEIGER

@<TRIPOS>ATOM
      1 C           2.1748    0.2413   22.4085 C.2     1  UNL1        0.0020
      2 C           2.9994   -0.9996   22.2346 C.2     1  UNL1        0.0129
      3 C           3.2504   -1.5468   20.8607 C.3     1  UNL1        0.1529
      4 C           3.4404   -2.0090   19.4463 C.3     1  UNL1        0.0458
      5 C           4.2029   -3.2000   18.9461 C.3     1  UNL1        0.0210
      6 C           4.9636   -4.2228   19.7365 C.3     1  UNL1        0.0687
      7 N           5.1499   -4.3074   21.2225 N.3     1  UNL1       -0.2973
      8 C           4.6214   -3.3900   22.2850 C.3     1  UNL1        0.0725
      9 C           3.7760   -2.1614   22.1239 C.3     1  UNL1        0.0614
     10 O           2.6768   -0.8531   19.6607 O.3     1  UNL1       -0.4785
     11 C           1.8523    0.3877   19.8347 C.ar    1  UNL1        0.1386
     12 C           1.2786    1.0815   18.6348 C.ar    1  UNL1        0.0369
     13 C           0.4541    2.3223   18.8087 C.ar    1  UNL1        0.0031
     14 C           0.2031    2.8695   20.1826 C.ar    1  UNL1        0.0002
     15 C           0.7767    2.1759   21.3825 C.ar    1  UNL1        0.0030
     16 C           1.6013    0.9349   21.2086 C.ar    1  UNL1        0.0338
     17 H           6.1613   -4.2952   21.3544 H       1  UNL1        0.1232
     18 C           1.4218    1.8829   26.5301 C.ar    1  UNL1        0.0536
     19 C           2.8280    1.6761   26.0506 C.ar    1  UNL1        0.0045
     20 C           3.0790    1.1289   24.6767 C.ar    1  UNL1        0.0001
     21 C           1.9238    0.7885   23.7824 C.ar    1  UNL1       -0.0001
     22 C           0.5177    0.9954   24.2619 C.ar    1  UNL1        0.0001
     23 C           0.2667    1.5426   25.6358 C.ar    1  UNL1        0.0045
     24 N           0.6741    1.5254   28.9925 N.am    1  UNL1       -0.2761
     25 C           1.1708    2.4301   27.9041 C.2     1  UNL1        0.2490
     26 O           1.4165    3.8821   28.1894 O.2     1  UNL1       -0.2699
     27 C           1.4090    1.8160   31.4675 C.3     1  UNL1        0.0233
     28 C           0.4232    2.0727   30.3664 C.3     1  UNL1        0.0938
     29 C           0.4284    0.0735   28.7071 C.3     1  UNL1        0.0938
     30 C          -0.9708   -0.4670   28.7196 C.3     1  UNL1        0.0233
@<TRIPOS>BOND
     1    27    28    1
     2    28    24    1
     3    24    29    1
     4    29    30    1
     5    24    25   am
     6    25    26    2
     7    25    18    1
     8    18    19   ar
     9    19    20   ar
    10    20    21   ar
    11    21     1    1
    12     1     2    2
    13     2     3    1
    14     3     4    1
    15     4     5    1
    16     5     6    1
    17     6     7    1
    18     7     8    1
    19     8     9    1
    20     3    10    1
    21    10    11    1
    22    11    12   ar
    23    12    13   ar
    24    13    14   ar
    25    14    15   ar
    26    15    16   ar
    27    21    22   ar
    28    22    23   ar
    29    23    18   ar
    30    16     1    1
    31     9     3    1
    32    16    11   ar
    33     7    17    1
@<TRIPOS>MOLECULE
*****
 30 33 0 0 0
SMALL
GASTEIGER

@<TRIPOS>ATOM
      1 C           6.3491   -3.2560   25.3236 C.2     1  UNL1        0.0020
      2 C           6.9029   -4.6490   25.3775 C.2     1  UNL1        0.0129
      3 C           7.2292   -5.2756   26.7007 C.3     1  UNL1        0.1529
      4 C           7.5208   -5.8074   28.0727 C.3     1  UNL1        0.0458
      5 C           8.0735   -7.1475   28.4583 C.3     1  UNL1        0.0210
      6 C           8.4709   -8.2867   27.5673 C.3     1  UNL1        0.0687
      7 N           8.4140   -8.3674   26.0706 N.3     1  UNL1       -0.2973
      8 C           7.9455   -7.3286   25.0952 C.3     1  UNL1        0.0725
      9 C           7.4182   -5.9526   25.3757 C.3     1  UNL1        0.0614
     10 O           7.0015   -4.5093   27.9700 O.3     1  UNL1       -0.4785
     11 C           6.4477   -3.1164   27.9160 C.ar    1  UNL1        0.1386
     12 C           6.2200   -2.3501   29.1853 C.ar    1  UNL1        0.0369
     13 C           5.6662   -0.9572   29.1313 C.ar    1  UNL1        0.0031
     14 C           5.3400   -0.3305   27.8082 C.ar    1  UNL1        0.0002
     15 C           5.5676   -1.0967   26.5389 C.ar    1  UNL1        0.0030
     16 C           6.1214   -2.4898   26.5929 C.ar    1  UNL1        0.0338
     17 H           7.8269   -9.1796   25.8806 H       1  UNL1        0.1232
     18 C           5.3704   -1.3760   21.3540 C.ar    1  UNL1        0.0536
     19 C           4.3385   -2.1959   22.0703 C.ar    1  UNL1        0.0045
     20 C           4.6648   -2.8226   23.3935 C.ar    1  UNL1        0.0001
     21 C           6.0228   -2.6293   24.0004 C.ar    1  UNL1       -0.0001
     22 C           7.0546   -1.8094   23.2841 C.ar    1  UNL1        0.0001
     23 C           6.7284   -1.1827   21.9609 C.ar    1  UNL1        0.0045
     24 N           5.2764   -1.5137   18.7613 N.am    1  UNL1       -0.2761
     25 C           5.0441   -0.7493   20.0308 C.2     1  UNL1        0.2490
     26 O           4.4855    0.6418   19.9772 O.2     1  UNL1       -0.2699
     27 C           3.5321   -0.8621   16.9494 C.3     1  UNL1        0.0233
     28 C           4.9501   -0.8870   17.4381 C.3     1  UNL1        0.0938
     29 C           5.8350   -2.9048   18.8149 C.3     1  UNL1        0.0938
     30 C           4.9131   -4.0862   18.7485 C.3     1  UNL1        0.0233
@<TRIPOS>BOND
     1    27    28    1
     2    28    24    1
     3    24    29    1
     4    29    30    1
     5    24    25   am
     6    25    26    2
     7    25    18    1
     8    18    19   ar
     9    19    20   ar
    10    20    21   ar
    11    21     1    1
    12     1     2    2
    13     2     3    1
    14     3     4    1
    15     4     5    1
    16     5     6    1
    17     6     7    1
    18     7     8    1
    19     8     9    1
    20     3    10    1
    21    10    11    1
    22    11    12   ar
    23    12    13   ar
    24    13    14   ar
    25    14    15   ar
    26    15    16   ar
    27    21    22   ar
    28    22    23   ar
    29    23    18   ar
    30    16     1    1
    31     9     3    1
    32    16    11   ar
    33     7    17    1
@<TRIPOS>MOLECULE
*****
 30 33 0 0 0
SMALL
GASTEIGER

@<TRIPOS>ATOM
      1 C           1.1643    2.4312   31.0634 C.2     1  UNL1        0.0020
      2 C           0.8587    3.4657   32.1058 C.2     1  UNL1        0.0129
      3 C           1.4723    3.3595   33.4704 C.3     1  UNL1        0.1529
      4 C           2.1371    3.1596   34.8001 C.3     1  UNL1        0.0458
      5 C           2.0361    4.0080   36.0331 C.3     1  UNL1        0.0210
      6 C           1.2454    5.2655   36.2408 C.3     1  UNL1        0.0687
      7 N           0.3604    5.9855   35.2669 N.3     1  UNL1       -0.2973
      8 C           0.0475    5.6256   33.8447 C.3     1  UNL1        0.0725
      9 C           0.5424    4.4569   33.0453 C.3     1  UNL1        0.0614
     10 O           2.3916    2.2188   33.7926 O.3     1  UNL1       -0.4785
     11 C           2.6971    1.1844   32.7503 C.ar    1  UNL1        0.1386
     12 C           3.6164    0.0436   33.0725 C.ar    1  UNL1        0.0369
     13 C           3.9220   -0.9908   32.0302 C.ar    1  UNL1        0.0031
     14 C           3.3084   -0.8846   30.6656 C.ar    1  UNL1        0.0002
     15 C           2.3892    0.2561   30.3433 C.ar    1  UNL1        0.0030
     16 C           2.0835    1.2906   31.3857 C.ar    1  UNL1        0.0338
     17 H           0.7522    6.9257   35.2123 H       1  UNL1        0.1232
     18 C          -0.6765    2.7500   26.9696 C.ar    1  UNL1        0.0536
     19 C          -0.8565    1.4990   27.7775 C.ar    1  UNL1        0.0045
     20 C          -0.2429    1.3928   29.1421 C.ar    1  UNL1        0.0001
     21 C           0.5507    2.5375   29.6988 C.ar    1  UNL1       -0.0001
     22 C           0.7306    3.7885   28.8909 C.ar    1  UNL1        0.0001
     23 C           0.1169    3.8947   27.5263 C.ar    1  UNL1        0.0045
     24 N          -2.6746    3.4116   25.4463 N.am    1  UNL1       -0.2761
     25 C          -1.2902    2.8563   25.6049 C.2     1  UNL1        0.2490
     26 O          -0.5195    2.4071   24.3991 O.2     1  UNL1       -0.2699
     27 C          -4.7427    3.2071   23.8871 C.3     1  UNL1        0.0233
     28 C          -3.2881    3.5178   24.0816 C.3     1  UNL1        0.0938
     29 C          -3.4453    3.8607   26.6522 C.3     1  UNL1        0.0938
     30 C          -3.4783    5.3139   27.0226 C.3     1  UNL1        0.0233
@<TRIPOS>BOND
     1    27    28    1
     2    28    24    1
     3    24    29    1
     4    29    30    1
     5    24    25   am
     6    25    26    2
     7    25    18    1
     8    18    19   ar
     9    19    20   ar
    10    20    21   ar
    11    21     1    1
    12     1     2    2
    13     2     3    1
    14     3     4    1
    15     4     5    1
    16     5     6    1
    17     6     7    1
    18     7     8    1
    19     8     9    1
    20     3    10    1
    21    10    11    1
    22    11    12   ar
    23    12    13   ar
    24    13    14   ar
    25    14    15   ar
    26    15    16   ar
    27    21    22   ar
    28    22    23   ar
    29    23    18   ar
    30    16     1    1
    31     9     3    1
    32    16    11   ar
    33     7    17    1
@<TRIPOS>MOLECULE
*****
 30 33 0 0 0
SMALL
GASTEIGER

@<TRIPOS>ATOM
      1 C           1.3912    2.1815   31.0500 C.2     1  UNL1        0.0020
      2 C           2.3155    1.0318   31.3219 C.2     1  UNL1        0.0129
      3 C           2.9683    0.8960   32.6656 C.3     1  UNL1        0.1529
      4 C           3.5676    0.8540   34.0401 C.3     1  UNL1        0.0458
      5 C           4.5178   -0.1541   34.6155 C.3     1  UNL1        0.0210
      6 C           5.1033   -1.3688   33.9587 C.3     1  UNL1        0.0687
      7 N           4.8833   -1.8757   32.5642 N.3     1  UNL1       -0.2973
      8 C           4.0234   -1.2930   31.4821 C.3     1  UNL1        0.0725
      9 C           3.1711   -0.0594   31.5273 C.3     1  UNL1        0.0614
     10 O           2.6967    1.9098   33.7373 O.3     1  UNL1       -0.4785
     11 C           1.7723    3.0594   33.4653 C.ar    1  UNL1        0.1386
     12 C           1.5006    4.0732   34.5370 C.ar    1  UNL1        0.0369
     13 C           0.5763    5.2227   34.2650 C.ar    1  UNL1        0.0031
     14 C          -0.0764    5.3585   32.9213 C.ar    1  UNL1        0.0002
     15 C           0.1951    4.3448   31.8497 C.ar    1  UNL1        0.0030
     16 C           1.1196    3.1952   32.1217 C.ar    1  UNL1        0.0338
     17 H           4.5283   -2.8237   32.6900 H       1  UNL1        0.1232
     18 C          -0.5671    2.5890   27.0189 C.ar    1  UNL1        0.0536
     19 C          -0.8970    1.4193   27.8982 C.ar    1  UNL1        0.0045
     20 C          -0.2443    1.2835   29.2419 C.ar    1  UNL1        0.0001
     21 C           0.7384    2.3173   29.7063 C.ar    1  UNL1       -0.0001
     22 C           1.0683    3.4869   28.8270 C.ar    1  UNL1        0.0001
     23 C           0.4155    3.6228   27.4833 C.ar    1  UNL1        0.0045
     24 N          -2.5428    3.4208   25.5510 N.am    1  UNL1       -0.2761
     25 C          -1.2199    2.7248   25.6752 C.2     1  UNL1        0.2490
     26 O          -0.5497    2.1646   24.4559 O.2     1  UNL1       -0.2699
     27 C          -4.6405    3.1922   24.0352 C.3     1  UNL1        0.0233
     28 C          -3.1955    3.5565   24.2073 C.3     1  UNL1        0.0938
     29 C          -3.2130    3.9809   26.7705 C.3     1  UNL1        0.0938
     30 C          -3.0914    5.4418   27.0887 C.3     1  UNL1        0.0233
@<TRIPOS>BOND
     1    27    28    1
     2    28    24    1
     3    24    29    1
     4    29    30    1
     5    24    25   am
     6    25    26    2
     7    25    18    1
     8    18    19   ar
     9    19    20   ar
    10    20    21   ar
    11    21     1    1
    12     1     2    2
    13     2     3    1
    14     3     4    1
    15     4     5    1
    16     5     6    1
    17     6     7    1
    18     7     8    1
    19     8     9    1
    20     3    10    1
    21    10    11    1
    22    11    12   ar
    23    12    13   ar
    24    13    14   ar
    25    14    15   ar
    26    15    16   ar
    27    21    22   ar
    28    22    23   ar
    29    23    18   ar
    30    16     1    1
    31     9     3    1
    32    16    11   ar
    33     7    17    1
@<TRIPOS>MOLECULE
*****
 30 33 0 0 0
SMALL
GASTEIGER

@<TRIPOS>ATOM
      1 C           3.1188   -0.4809   22.3293 C.2     1  UNL1        0.0020
      2 C           2.6313    0.0602   23.6405 C.2     1  UNL1        0.0129
      3 C           1.5048    1.0502   23.6710 C.3     1  UNL1        0.1529
      4 C           0.3749    2.0335   23.5895 C.3     1  UNL1        0.0458
      5 C          -0.3273    2.7460   24.7074 C.3     1  UNL1        0.0210
      6 C          -0.0730    2.6511   26.1825 C.3     1  UNL1        0.0687
      7 N           0.9463    1.8204   26.9044 N.3     1  UNL1       -0.2973
      8 C           1.9630    0.8794   26.3293 C.3     1  UNL1        0.0725
      9 C           2.2115    0.5366   24.8903 C.3     1  UNL1        0.0614
     10 O           0.8659    1.4991   22.3902 O.3     1  UNL1       -0.4785
     11 C           1.3535    0.9579   21.0790 C.ar    1  UNL1        0.1386
     12 C           0.7146    1.4067   19.7982 C.ar    1  UNL1        0.0369
     13 C           1.2022    0.8655   18.4870 C.ar    1  UNL1        0.0031
     14 C           2.3287   -0.1245   18.4565 C.ar    1  UNL1        0.0002
     15 C           2.9676   -0.5733   19.7372 C.ar    1  UNL1        0.0030
     16 C           2.4800   -0.0321   21.0485 C.ar    1  UNL1        0.0338
     17 H           0.3996    1.2454   27.5454 H       1  UNL1        0.1232
     18 C           6.4982   -3.4510   22.2378 C.ar    1  UNL1        0.0536
     19 C           6.7878   -1.9823   22.1425 C.ar    1  UNL1        0.0045
     20 C           5.6613   -0.9923   22.1730 C.ar    1  UNL1        0.0001
     21 C           4.2453   -1.4709   22.2988 C.ar    1  UNL1       -0.0001
     22 C           3.9558   -2.9397   22.3940 C.ar    1  UNL1        0.0001
     23 C           5.0823   -3.9297   22.3636 C.ar    1  UNL1        0.0045
     24 N           8.3201   -4.8253   23.4797 N.am    1  UNL1       -0.2761
     25 C           7.6248   -4.4411   22.2073 C.2     1  UNL1        0.2490
     26 O           8.0558   -5.0467   20.9045 O.2     1  UNL1       -0.2699
     27 C           9.1527   -7.2863   23.4576 C.3     1  UNL1        0.0233
     28 C           9.4466   -5.8153   23.4490 C.3     1  UNL1        0.0938
     29 C           7.8890   -4.2197   24.7824 C.3     1  UNL1        0.0938
     30 C           6.9025   -4.9390   25.6538 C.3     1  UNL1        0.0233
@<TRIPOS>BOND
     1    27    28    1
     2    28    24    1
     3    24    29    1
     4    29    30    1
     5    24    25   am
     6    25    26    2
     7    25    18    1
     8    18    19   ar
     9    19    20   ar
    10    20    21   ar
    11    21     1    1
    12     1     2    2
    13     2     3    1
    14     3     4    1
    15     4     5    1
    16     5     6    1
    17     6     7    1
    18     7     8    1
    19     8     9    1
    20     3    10    1
    21    10    11    1
    22    11    12   ar
    23    12    13   ar
    24    13    14   ar
    25    14    15   ar
    26    15    16   ar
    27    21    22   ar
    28    22    23   ar
    29    23    18   ar
    30    16     1    1
    31     9     3    1
    32    16    11   ar
    33     7    17    1
@<TRIPOS>MOLECULE
*****
 30 33 0 0 0
SMALL
GASTEIGER

@<TRIPOS>ATOM
      1 C           5.8351   -2.1714   30.3037 C.2     1  UNL1        0.0020
      2 C           6.5054   -3.4927   30.0693 C.2     1  UNL1        0.0129
      3 C           6.6356   -4.0306   28.6752 C.3     1  UNL1        0.1529
      4 C           6.7132   -4.4763   27.2449 C.3     1  UNL1        0.0458
      5 C           7.3141   -5.7330   26.6882 C.3     1  UNL1        0.0210
      6 C           7.9857   -6.8542   27.4242 C.3     1  UNL1        0.0687
      7 N           8.2224   -6.9958   28.8987 N.3     1  UNL1       -0.2973
      8 C           7.8459   -6.0511   30.0013 C.3     1  UNL1        0.0725
      9 C           7.1397   -4.7315   29.9017 C.3     1  UNL1        0.0614
     10 O           6.0955   -3.2474   27.5154 O.3     1  UNL1       -0.4785
     11 C           5.4252   -1.9262   27.7499 C.ar    1  UNL1        0.1386
     12 C           4.8850   -1.1429   26.5903 C.ar    1  UNL1        0.0369
     13 C           4.2147    0.1783   26.8247 C.ar    1  UNL1        0.0031
     14 C           4.0845    0.7163   28.2188 C.ar    1  UNL1        0.0002
     15 C           4.6246   -0.0669   29.3785 C.ar    1  UNL1        0.0030
     16 C           5.2950   -1.3882   29.1440 C.ar    1  UNL1        0.0338
     17 H           9.2332   -7.1009   28.9863 H       1  UNL1        0.1232
     18 C           5.4445   -0.5573   34.4860 C.ar    1  UNL1        0.0536
     19 C           4.4743   -1.5860   33.9855 C.ar    1  UNL1        0.0045
     20 C           4.6045   -2.1240   32.5914 C.ar    1  UNL1        0.0001
     21 C           5.7049   -1.6334   31.6978 C.ar    1  UNL1       -0.0001
     22 C           6.6750   -0.6047   32.1984 C.ar    1  UNL1        0.0001
     23 C           6.5448   -0.0667   33.5925 C.ar    1  UNL1        0.0045
     24 N           4.3180    1.0622   36.1768 N.am    1  UNL1       -0.2761
     25 C           5.3142   -0.0193   35.8802 C.2     1  UNL1        0.2490
     26 O           6.1802   -0.5629   36.9777 O.2     1  UNL1       -0.2699
     27 C           3.1627    1.0260   38.5036 C.3     1  UNL1        0.0233
     28 C           4.1879    1.6001   37.5710 C.3     1  UNL1        0.0938
     29 C           3.4521    1.6056   35.0792 C.3     1  UNL1        0.0938
     30 C           2.6649    2.8636   35.2983 C.3     1  UNL1        0.0233
@<TRIPOS>BOND
     1    27    28    1
     2    28    24    1
     3    24    29    1
     4    29    30    1
     5    24    25   am
     6    25    26    2
     7    25    18    1
     8    18    19   ar
     9    19    20   ar
    10    20    21   ar
    11    21     1    1
    12     1     2    2
    13     2     3    1
    14     3     4    1
    15     4     5    1
    16     5     6    1
    17     6     7    1
    18     7     8    1
    19     8     9    1
    20     3    10    1
    21    10    11    1
    22    11    12   ar
    23    12    13   ar
    24    13    14   ar
    25    14    15   ar
    26    15    16   ar
    27    21    22   ar
    28    22    23   ar
    29    23    18   ar
    30    16     1    1
    31     9     3    1
    32    16    11   ar
    33     7    17    1
@<TRIPOS>MOLECULE
*****
 30 33 0 0 0
SMALL
GASTEIGER

@<TRIPOS>ATOM
      1 C           6.0904   -2.3813   30.3437 C.2     1  UNL1        0.0020
      2 C           5.6684   -1.6319   29.1148 C.2     1  UNL1        0.0129
      3 C           5.8972   -2.2277   27.7574 C.3     1  UNL1        0.1529
      4 C           6.1718   -2.9124   26.4512 C.3     1  UNL1        0.0458
      5 C           5.8734   -2.4311   25.0621 C.3     1  UNL1        0.0210
      6 C           5.2268   -1.1465   24.6363 C.3     1  UNL1        0.0687
      7 N           4.7188   -0.0257   25.4941 N.3     1  UNL1       -0.2973
      8 C           4.7321    0.0872   26.9898 C.3     1  UNL1        0.0725
      9 C           5.2565   -0.8929   27.9970 C.3     1  UNL1        0.0614
     10 O           6.5481   -3.5731   27.6289 O.3     1  UNL1       -0.4785
     11 C           6.9701   -4.3225   28.8578 C.ar    1  UNL1        0.1386
     12 C           7.6210   -5.6678   28.7294 C.ar    1  UNL1        0.0369
     13 C           8.0430   -6.4172   29.9582 C.ar    1  UNL1        0.0031
     14 C           7.8141   -5.8214   31.3156 C.ar    1  UNL1        0.0002
     15 C           7.1633   -4.4761   31.4441 C.ar    1  UNL1        0.0030
     16 C           6.7413   -3.7266   30.2152 C.ar    1  UNL1        0.0338
     17 H           3.7353    0.0653   25.2397 H       1  UNL1        0.1232
     18 C           5.4037   -0.5938   34.4159 C.ar    1  UNL1        0.0536
     19 C           6.5839   -0.1623   33.5967 C.ar    1  UNL1        0.0045
     20 C           6.8128   -0.7581   32.2393 C.ar    1  UNL1        0.0001
     21 C           5.8615   -1.7855   31.7011 C.ar    1  UNL1       -0.0001
     22 C           4.6813   -2.2169   32.5203 C.ar    1  UNL1        0.0001
     23 C           4.4524   -1.6211   33.8777 C.ar    1  UNL1        0.0045
     24 N           4.2109    1.1392   35.9404 N.am    1  UNL1       -0.2761
     25 C           5.1748    0.0021   35.7734 C.2     1  UNL1        0.2490
     26 O           5.9099   -0.5391   36.9635 O.2     1  UNL1       -0.2699
     27 C           3.0309    1.0787   38.2544 C.3     1  UNL1        0.0233
     28 C           3.9821    1.7350   37.2979 C.3     1  UNL1        0.0938
     29 C           3.4758    1.6804   34.7502 C.3     1  UNL1        0.0938
     30 C           2.4086    2.7180   34.9359 C.3     1  UNL1        0.0233
@<TRIPOS>BOND
     1    27    28    1
     2    28    24    1
     3    24    29    1
     4    29    30    1
     5    24    25   am
     6    25    26    2
     7    25    18    1
     8    18    19   ar
     9    19    20   ar
    10    20    21   ar
    11    21     1    1
    12     1     2    2
    13     2     3    1
    14     3     4    1
    15     4     5    1
    16     5     6    1
    17     6     7    1
    18     7     8    1
    19     8     9    1
    20     3    10    1
    21    10    11    1
    22    11    12   ar
    23    12    13   ar
    24    13    14   ar
    25    14    15   ar
    26    15    16   ar
    27    21    22   ar
    28    22    23   ar
    29    23    18   ar
    30    16     1    1
    31     9     3    1
    32    16    11   ar
    33     7    17    1
