@<TRIPOS>MOLECULE
*****
 23 24 0 0 0
SMALL
GASTEIGER

@<TRIPOS>ATOM
      1 C          -4.4783  -18.7594   21.7374 C.ar    1  UNL1        0.1858
      2 N          -5.7082  -18.2181   22.4039 N.ar    1  UNL1       -0.2022
      3 C          -6.8855  -19.0108   21.9184 C.ar    1  UNL1        0.2314
      4 O          -6.3832  -20.0419   20.9518 O.2     1  UNL1       -0.4213
      5 C          -4.8955  -19.8866   20.8399 C.ar    1  UNL1        0.2169
      6 N          -3.9847  -20.7133   19.9813 N.pl3   1  UNL1       -0.3273
      7 H          -4.3550  -21.4351   19.4235 H       1  UNL1        0.1452
      8 H          -3.0167  -20.5340   19.9755 H       1  UNL1        0.1452
      9 C          -8.3143  -18.8078   22.3277 C.ar    1  UNL1        0.0536
     10 C          -9.0629  -19.9133   23.0114 C.ar    1  UNL1        0.0046
     11 C         -10.4916  -19.7103   23.4206 C.ar    1  UNL1        0.0040
     12 C         -11.1717  -18.4019   23.1461 C.ar    1  UNL1        0.0714
     13 C         -10.4232  -17.2964   22.4624 C.ar    1  UNL1        0.0040
     14 C          -8.9945  -17.4994   22.0532 C.ar    1  UNL1        0.0046
     15 C         -12.6005  -18.1990   23.5554 C.3     1  UNL1        0.4186
     16 F         -14.0293  -17.9960   23.9646 F       1  UNL1       -0.1659
     17 F         -12.2743  -18.6863   24.9360 F       1  UNL1       -0.1659
     18 F         -12.9267  -17.7117   22.1748 F       1  UNL1       -0.1659
     19 N          -2.8276  -16.8025   22.1802 N.am    1  UNL1       -0.3239
     20 C          -3.0772  -18.2610   21.9338 C.2     1  UNL1        0.2650
     21 O          -1.9258  -19.2210   21.8839 O.2     1  UNL1       -0.2686
     22 H          -1.9080  -16.4754   22.3091 H       1  UNL1        0.1453
     23 H          -3.5833  -16.1724   22.2130 H       1  UNL1        0.1453
@<TRIPOS>BOND
     1    19    20   am
     2    20    21    2
     3    20     1    1
     4     1     2   ar
     5     2     3   ar
     6     3     9    1
     7     9    10   ar
     8    10    11   ar
     9    11    12   ar
    10    12    15    1
    11    15    16    1
    12    15    17    1
    13    15    18    1
    14    12    13   ar
    15    13    14   ar
    16     3     4   ar
    17     4     5   ar
    18     5     6    1
    19     5     1   ar
    20    14     9   ar
    21    19    22    1
    22    19    23    1
    23     6     7    1
    24     6     8    1
@<TRIPOS>MOLECULE
*****
 23 24 0 0 0
SMALL
GASTEIGER

@<TRIPOS>ATOM
      1 C          -4.6675  -19.1777   21.6497 C.ar    1  UNL1        0.1858
      2 N          -6.1282  -19.5169   21.6866 N.ar    1  UNL1       -0.2022
      3 C          -6.8381  -18.4284   22.4357 C.ar    1  UNL1        0.2314
      4 O          -5.8162  -17.4164   22.8617 O.2     1  UNL1       -0.4213
      5 C          -4.4748  -17.8794   22.3760 C.ar    1  UNL1        0.2169
      6 N          -3.1696  -17.1690   22.5806 N.pl3   1  UNL1       -0.3273
      7 H          -3.1448  -16.3171   23.0735 H       1  UNL1        0.1452
      8 H          -2.3377  -17.5546   22.2220 H       1  UNL1        0.1452
      9 C          -8.3114  -18.3633   22.7104 C.ar    1  UNL1        0.0536
     10 C          -8.9690  -17.0395   22.9653 C.ar    1  UNL1        0.0046
     11 C         -10.4422  -16.9745   23.2400 C.ar    1  UNL1        0.0040
     12 C         -11.2577  -18.2333   23.2599 C.ar    1  UNL1        0.0714
     13 C         -10.6000  -19.5571   23.0050 C.ar    1  UNL1        0.0040
     14 C          -9.1269  -19.6221   22.7303 C.ar    1  UNL1        0.0046
     15 C         -12.7309  -18.1683   23.5346 C.3     1  UNL1        0.4186
     16 F         -14.2041  -18.1032   23.8094 F       1  UNL1       -0.1659
     17 F         -12.9730  -17.7076   22.1278 F       1  UNL1       -0.1659
     18 F         -12.4889  -18.6289   24.9415 F       1  UNL1       -0.1659
     19 N          -3.8738  -20.7377   19.7297 N.am    1  UNL1       -0.3239
     20 C          -3.5890  -19.9934   21.0005 C.2     1  UNL1        0.2650
     21 O          -2.2258  -20.0648   21.6222 O.2     1  UNL1       -0.2686
     22 H          -3.1659  -21.2731   19.3037 H       1  UNL1        0.1453
     23 H          -4.7685  -20.6908   19.3217 H       1  UNL1        0.1453
@<TRIPOS>BOND
     1    19    20   am
     2    20    21    2
     3    20     1    1
     4     1     2   ar
     5     2     3   ar
     6     3     9    1
     7     9    10   ar
     8    10    11   ar
     9    11    12   ar
    10    12    15    1
    11    15    16    1
    12    15    17    1
    13    15    18    1
    14    12    13   ar
    15    13    14   ar
    16     3     4   ar
    17     4     5   ar
    18     5     6    1
    19     5     1   ar
    20    14     9   ar
    21    19    22    1
    22    19    23    1
    23     6     7    1
    24     6     8    1
@<TRIPOS>MOLECULE
*****
 23 24 0 0 0
SMALL
GASTEIGER

@<TRIPOS>ATOM
      1 C         -11.1911  -18.2480   22.6883 C.ar    1  UNL1        0.1858
      2 N          -9.7925  -18.7301   22.9361 N.ar    1  UNL1       -0.2022
      3 C          -8.9879  -18.4759   21.6960 C.ar    1  UNL1        0.2314
      4 O          -9.8891  -17.8365   20.6817 O.2     1  UNL1       -0.4213
      5 C         -11.2508  -17.6957   21.2949 C.ar    1  UNL1        0.2169
      6 N         -12.4599  -17.1060   20.6312 N.pl3   1  UNL1       -0.3273
      7 H         -12.3994  -16.7680   19.7086 H       1  UNL1        0.1452
      8 H         -13.3141  -17.0570   21.1184 H       1  UNL1        0.1452
      9 C          -7.5367  -18.8035   21.5040 C.ar    1  UNL1        0.0536
     10 C          -7.1055  -19.6448   20.3394 C.ar    1  UNL1        0.0046
     11 C          -5.6543  -19.9723   20.1474 C.ar    1  UNL1        0.0040
     12 C          -4.6344  -19.4586   21.1200 C.ar    1  UNL1        0.0714
     13 C          -5.0657  -18.6173   22.2845 C.ar    1  UNL1        0.0040
     14 C          -6.5168  -18.2897   22.4765 C.ar    1  UNL1        0.0046
     15 C          -3.1832  -19.7862   20.9280 C.3     1  UNL1        0.4186
     16 F          -1.7321  -20.1137   20.7360 F       1  UNL1       -0.1659
     17 F          -3.4317  -20.0318   19.4693 F       1  UNL1       -0.1659
     18 F          -2.9348  -19.5405   22.3867 F       1  UNL1       -0.1659
     19 N         -12.1106  -18.8598   25.0399 N.am    1  UNL1       -0.3239
     20 C         -12.3300  -18.3076   23.6626 C.2     1  UNL1        0.2650
     21 O         -13.6883  -17.8150   23.2597 O.2     1  UNL1       -0.2686
     22 H         -12.8580  -18.8989   25.6794 H       1  UNL1        0.1453
     23 H         -11.2190  -19.1831   25.3044 H       1  UNL1        0.1453
@<TRIPOS>BOND
     1    19    20   am
     2    20    21    2
     3    20     1    1
     4     1     2   ar
     5     2     3   ar
     6     3     9    1
     7     9    10   ar
     8    10    11   ar
     9    11    12   ar
    10    12    15    1
    11    15    16    1
    12    15    17    1
    13    15    18    1
    14    12    13   ar
    15    13    14   ar
    16     3     4   ar
    17     4     5   ar
    18     5     6    1
    19     5     1   ar
    20    14     9   ar
    21    19    22    1
    22    19    23    1
    23     6     7    1
    24     6     8    1
@<TRIPOS>MOLECULE
*****
 23 24 0 0 0
SMALL
GASTEIGER

@<TRIPOS>ATOM
      1 C         -11.1857  -18.2770   22.7133 C.ar    1  UNL1        0.1858
      2 N          -9.7858  -18.7570   22.9582 N.ar    1  UNL1       -0.2022
      3 C          -8.9862  -18.5086   21.7136 C.ar    1  UNL1        0.2314
      4 O          -9.8918  -17.8751   20.6995 O.2     1  UNL1       -0.4213
      5 C         -11.2512  -17.7320   21.3173 C.ar    1  UNL1        0.2169
      6 N         -12.4633  -17.1466   20.6554 N.pl3   1  UNL1       -0.3273
      7 H         -12.4065  -16.8133   19.7307 H       1  UNL1        0.1452
      8 H         -13.3156  -17.0956   21.1455 H       1  UNL1        0.1452
      9 C          -7.5355  -18.8363   21.5176 C.ar    1  UNL1        0.0536
     10 C          -6.5146  -18.3345   22.4953 C.ar    1  UNL1        0.0046
     11 C          -5.0640  -18.6621   22.2993 C.ar    1  UNL1        0.0040
     12 C          -4.6344  -19.4915   21.1256 C.ar    1  UNL1        0.0714
     13 C          -5.6554  -19.9933   20.1479 C.ar    1  UNL1        0.0040
     14 C          -7.1059  -19.6657   20.3440 C.ar    1  UNL1        0.0046
     15 C          -3.1838  -19.8192   20.9296 C.3     1  UNL1        0.4186
     16 F          -1.7332  -20.1468   20.7336 F       1  UNL1       -0.1659
     17 F          -2.9054  -19.4391   22.3536 F       1  UNL1       -0.1659
     18 F          -3.4621  -20.1993   19.5055 F       1  UNL1       -0.1659
     19 N         -12.0972  -18.8837   25.0694 N.am    1  UNL1       -0.3239
     20 C         -12.3207  -18.3323   23.6924 C.2     1  UNL1        0.2650
     21 O         -13.6792  -17.8363   23.2944 O.2     1  UNL1       -0.2686
     22 H         -12.8422  -18.9200   25.7120 H       1  UNL1        0.1453
     23 H         -11.2055  -19.2092   25.3305 H       1  UNL1        0.1453
@<TRIPOS>BOND
     1    19    20   am
     2    20    21    2
     3    20     1    1
     4     1     2   ar
     5     2     3   ar
     6     3     9    1
     7     9    10   ar
     8    10    11   ar
     9    11    12   ar
    10    12    15    1
    11    15    16    1
    12    15    17    1
    13    15    18    1
    14    12    13   ar
    15    13    14   ar
    16     3     4   ar
    17     4     5   ar
    18     5     6    1
    19     5     1   ar
    20    14     9   ar
    21    19    22    1
    22    19    23    1
    23     6     7    1
    24     6     8    1
@<TRIPOS>MOLECULE
*****
 23 24 0 0 0
SMALL
GASTEIGER

@<TRIPOS>ATOM
      1 C          -9.8646  -18.1960   22.8713 C.ar    1  UNL1        0.1858
      2 N          -8.5932  -17.7587   22.2061 N.ar    1  UNL1       -0.2022
      3 C          -7.5952  -18.8709   22.3373 C.ar    1  UNL1        0.2314
      4 O          -8.2498  -19.9954   23.0835 O.2     1  UNL1       -0.4213
      5 C          -9.6523  -19.5784   23.4135 C.ar    1  UNL1        0.2169
      6 N         -10.6648  -20.3996   24.1555 N.pl3   1  UNL1       -0.3273
      7 H         -10.4298  -21.3012   24.4736 H       1  UNL1        0.1452
      8 H         -11.5644  -20.0369   24.3245 H       1  UNL1        0.1452
      9 C          -6.1894  -18.8602   21.8141 C.ar    1  UNL1        0.0536
     10 C          -5.0599  -18.4402   22.7072 C.ar    1  UNL1        0.0046
     11 C          -3.6542  -18.4295   22.1840 C.ar    1  UNL1        0.0040
     12 C          -3.3780  -18.8389   20.7676 C.ar    1  UNL1        0.0714
     13 C          -4.5075  -19.2589   19.8744 C.ar    1  UNL1        0.0040
     14 C          -5.9132  -19.2695   20.3977 C.ar    1  UNL1        0.0046
     15 C          -1.9722  -18.8282   20.2443 C.3     1  UNL1        0.4186
     16 F          -0.5665  -18.8175   19.7211 F       1  UNL1       -0.1659
     17 F          -1.4508  -18.7278   21.6472 F       1  UNL1       -0.1659
     18 F          -2.4936  -18.9286   18.8415 F       1  UNL1       -0.1659
     19 N         -11.1064  -15.9221   22.6779 N.am    1  UNL1       -0.3239
     20 C         -11.1267  -17.3921   22.9758 C.2     1  UNL1        0.2650
     21 O         -12.4090  -18.0582   23.3783 O.2     1  UNL1       -0.2686
     22 H         -11.9347  -15.3945   22.7466 H       1  UNL1        0.1453
     23 H         -10.2647  -15.4849   22.4138 H       1  UNL1        0.1453
@<TRIPOS>BOND
     1    19    20   am
     2    20    21    2
     3    20     1    1
     4     1     2   ar
     5     2     3   ar
     6     3     9    1
     7     9    10   ar
     8    10    11   ar
     9    11    12   ar
    10    12    15    1
    11    15    16    1
    12    15    17    1
    13    15    18    1
    14    12    13   ar
    15    13    14   ar
    16     3     4   ar
    17     4     5   ar
    18     5     6    1
    19     5     1   ar
    20    14     9   ar
    21    19    22    1
    22    19    23    1
    23     6     7    1
    24     6     8    1
@<TRIPOS>MOLECULE
*****
 23 24 0 0 0
SMALL
GASTEIGER

@<TRIPOS>ATOM
      1 C         -10.6393  -17.3561   21.9072 C.ar    1  UNL1        0.1858
      2 N          -9.2994  -17.3165   21.2341 N.ar    1  UNL1       -0.2022
      3 C          -8.3920  -18.2720   21.9510 C.ar    1  UNL1        0.2314
      4 O          -9.1712  -18.9021   23.0672 O.2     1  UNL1       -0.4213
      5 C         -10.5600  -18.3360   23.0401 C.ar    1  UNL1        0.2169
      6 N         -11.6741  -18.6881   23.9809 N.pl3   1  UNL1       -0.3273
      7 H         -11.5240  -19.3467   24.6971 H       1  UNL1        0.1452
      8 H         -12.5554  -18.2606   23.8821 H       1  UNL1        0.1452
      9 C          -6.9574  -18.5487   21.6113 C.ar    1  UNL1        0.0536
     10 C          -6.5934  -19.0496   20.2451 C.ar    1  UNL1        0.0046
     11 C          -5.1588  -19.3263   19.9054 C.ar    1  UNL1        0.0040
     12 C          -4.0883  -19.1022   20.9319 C.ar    1  UNL1        0.0714
     13 C          -4.4524  -18.6013   22.2981 C.ar    1  UNL1        0.0040
     14 C          -5.8869  -18.3246   22.6378 C.ar    1  UNL1        0.0046
     15 C          -2.6537  -19.3789   20.5922 C.3     1  UNL1        0.4186
     16 F          -1.2191  -19.6557   20.2526 F       1  UNL1       -0.1659
     17 F          -2.9360  -19.0736   19.1511 F       1  UNL1       -0.1659
     18 F          -2.3714  -19.6843   22.0334 F       1  UNL1       -0.1659
     19 N         -12.2325  -16.4388   20.0714 N.am    1  UNL1       -0.3239
     20 C         -11.8464  -16.5562   21.5161 C.2     1  UNL1        0.2650
     21 O         -12.6674  -15.8738   22.5697 O.2     1  UNL1       -0.2686
     22 H         -13.0248  -15.9138   19.8147 H       1  UNL1        0.1453
     23 H         -11.6936  -16.8867   19.3799 H       1  UNL1        0.1453
@<TRIPOS>BOND
     1    19    20   am
     2    20    21    2
     3    20     1    1
     4     1     2   ar
     5     2     3   ar
     6     3     9    1
     7     9    10   ar
     8    10    11   ar
     9    11    12   ar
    10    12    15    1
    11    15    16    1
    12    15    17    1
    13    15    18    1
    14    12    13   ar
    15    13    14   ar
    16     3     4   ar
    17     4     5   ar
    18     5     6    1
    19     5     1   ar
    20    14     9   ar
    21    19    22    1
    22    19    23    1
    23     6     7    1
    24     6     8    1
@<TRIPOS>MOLECULE
*****
 23 24 0 0 0
SMALL
GASTEIGER

@<TRIPOS>ATOM
      1 C          -9.4215  -19.4624   22.9184 C.ar    1  UNL1        0.1858
      2 N          -7.9344  -19.3003   23.0284 N.ar    1  UNL1       -0.2022
      3 C          -7.3696  -19.2500   21.6397 C.ar    1  UNL1        0.2314
      4 O          -8.5077  -19.3810   20.6714 O.2     1  UNL1       -0.4213
      5 C          -9.7758  -19.5122   21.4616 C.ar    1  UNL1        0.2169
      6 N         -11.1560  -19.6662   20.8947 N.pl3   1  UNL1       -0.3273
      7 H         -11.2879  -19.6882   19.9193 H       1  UNL1        0.1452
      8 H         -11.9300  -19.7454   21.4980 H       1  UNL1        0.1452
      9 C          -5.9210  -19.0958   21.2821 C.ar    1  UNL1        0.0536
     10 C          -4.9151  -18.7771   22.3482 C.ar    1  UNL1        0.0046
     11 C          -3.4666  -18.6229   21.9906 C.ar    1  UNL1        0.0040
     12 C          -3.0239  -18.7874   20.5668 C.ar    1  UNL1        0.0714
     13 C          -4.0298  -19.1062   19.5007 C.ar    1  UNL1        0.0040
     14 C          -5.4783  -19.2603   19.8584 C.ar    1  UNL1        0.0046
     15 C          -1.5753  -18.6332   20.2093 C.3     1  UNL1        0.4186
     16 F          -0.1267  -18.4790   19.8517 F       1  UNL1       -0.1659
     17 F          -1.9379  -18.6010   18.7541 F       1  UNL1       -0.1659
     18 F          -1.2127  -18.6655   21.6644 F       1  UNL1       -0.1659
     19 N         -11.6886  -18.8172   24.0113 N.am    1  UNL1       -0.3239
     20 C         -10.3852  -19.5578   24.0639 C.2     1  UNL1        0.2650
     21 O         -10.0455  -20.3939   25.2620 O.2     1  UNL1       -0.2686
     22 H         -12.3210  -18.8799   24.7631 H       1  UNL1        0.1453
     23 H         -11.9115  -18.2685   23.2249 H       1  UNL1        0.1453
@<TRIPOS>BOND
     1    19    20   am
     2    20    21    2
     3    20     1    1
     4     1     2   ar
     5     2     3   ar
     6     3     9    1
     7     9    10   ar
     8    10    11   ar
     9    11    12   ar
    10    12    15    1
    11    15    16    1
    12    15    17    1
    13    15    18    1
    14    12    13   ar
    15    13    14   ar
    16     3     4   ar
    17     4     5   ar
    18     5     6    1
    19     5     1   ar
    20    14     9   ar
    21    19    22    1
    22    19    23    1
    23     6     7    1
    24     6     8    1
@<TRIPOS>MOLECULE
*****
 23 24 0 0 0
SMALL
GASTEIGER

@<TRIPOS>ATOM
      1 C         -17.6944   -9.1943   18.8774 C.ar    1  UNL1        0.1858
      2 N         -16.8744   -7.9384   18.8672 N.ar    1  UNL1       -0.2022
      3 C         -15.4270   -8.3292   18.9165 C.ar    1  UNL1        0.2314
      4 O         -15.3525   -9.8268   18.9572 O.2     1  UNL1       -0.4213
      5 C         -16.7538  -10.3615   18.9330 C.ar    1  UNL1        0.2169
      6 N         -17.1456  -11.8092   18.9598 N.pl3   1  UNL1       -0.3273
      7 H         -16.4516  -12.5064   18.9966 H       1  UNL1        0.1452
      8 H         -18.0969  -12.0621   18.9405 H       1  UNL1        0.1452
      9 C         -14.2593   -7.3878   18.9238 C.ar    1  UNL1        0.0536
     10 C         -12.9998   -7.7493   18.1938 C.ar    1  UNL1        0.0046
     11 C         -11.8321   -6.8078   18.2011 C.ar    1  UNL1        0.0040
     12 C         -11.9239   -5.5049   18.9386 C.ar    1  UNL1        0.0714
     13 C         -13.1833   -5.1433   19.6686 C.ar    1  UNL1        0.0040
     14 C         -14.3510   -6.0848   19.6613 C.ar    1  UNL1        0.0046
     15 C         -10.7561   -4.5634   18.9459 C.3     1  UNL1        0.4186
     16 F          -9.5884   -3.6219   18.9532 F       1  UNL1       -0.1659
     17 F          -9.8594   -5.6790   19.3945 F       1  UNL1       -0.1659
     18 F         -11.6528   -3.4478   18.4973 F       1  UNL1       -0.1659
     19 N         -19.9602   -9.5724   20.0911 N.am    1  UNL1       -0.3239
     20 C         -19.1920   -9.2699   18.8387 C.2     1  UNL1        0.2650
     21 O         -19.9213   -9.0431   17.5477 O.2     1  UNL1       -0.2686
     22 H         -20.9432   -9.6220   20.0657 H       1  UNL1        0.1453
     23 H         -19.4815   -9.7212   20.9384 H       1  UNL1        0.1453
@<TRIPOS>BOND
     1    19    20   am
     2    20    21    2
     3    20     1    1
     4     1     2   ar
     5     2     3   ar
     6     3     9    1
     7     9    10   ar
     8    10    11   ar
     9    11    12   ar
    10    12    15    1
    11    15    16    1
    12    15    17    1
    13    15    18    1
    14    12    13   ar
    15    13    14   ar
    16     3     4   ar
    17     4     5   ar
    18     5     6    1
    19     5     1   ar
    20    14     9   ar
    21    19    22    1
    22    19    23    1
    23     6     7    1
    24     6     8    1
@<TRIPOS>MOLECULE
*****
 23 24 0 0 0
SMALL
GASTEIGER

@<TRIPOS>ATOM
      1 C         -11.6326   -5.9457   19.0927 C.ar    1  UNL1        0.1858
      2 N         -12.6276   -7.0649   19.0073 N.ar    1  UNL1       -0.2022
      3 C         -14.0009   -6.4752   19.1356 C.ar    1  UNL1        0.2314
      4 O         -13.8546   -4.9915   19.3003 O.2     1  UNL1       -0.4213
      5 C         -12.3910   -4.6642   19.2738 C.ar    1  UNL1        0.2169
      6 N         -11.7910   -3.2957   19.4053 N.pl3   1  UNL1       -0.3273
      7 H         -12.3747   -2.5114   19.5214 H       1  UNL1        0.1452
      8 H         -10.8136   -3.1818   19.3755 H       1  UNL1        0.1452
      9 C         -15.2935   -7.2357   19.1047 C.ar    1  UNL1        0.0536
     10 C         -16.5803   -6.5416   19.4395 C.ar    1  UNL1        0.0046
     11 C         -17.8728   -7.3021   19.4086 C.ar    1  UNL1        0.0040
     12 C         -17.8784   -8.7568   19.0428 C.ar    1  UNL1        0.0714
     13 C         -16.5916   -9.4510   18.7079 C.ar    1  UNL1        0.0040
     14 C         -15.2991   -8.6904   18.7389 C.ar    1  UNL1        0.0046
     15 C         -19.1710   -9.5173   19.0118 C.3     1  UNL1        0.4186
     16 F         -20.4635  -10.2779   18.9808 F       1  UNL1       -0.1659
     17 F         -19.5798   -8.8753   20.3043 F       1  UNL1       -0.1659
     18 F         -18.7622  -10.1594   17.7193 F       1  UNL1       -0.1659
     19 N          -9.5325   -7.3554   18.4993 N.am    1  UNL1       -0.3239
     20 C         -10.1412   -6.0837   19.0113 C.2     1  UNL1        0.2650
     21 O          -9.2586   -4.9499   19.4419 O.2     1  UNL1       -0.2686
     22 H          -8.5536   -7.4460   18.4459 H       1  UNL1        0.1453
     23 H         -10.1119   -8.0996   18.2167 H       1  UNL1        0.1453
@<TRIPOS>BOND
     1    19    20   am
     2    20    21    2
     3    20     1    1
     4     1     2   ar
     5     2     3   ar
     6     3     9    1
     7     9    10   ar
     8    10    11   ar
     9    11    12   ar
    10    12    15    1
    11    15    16    1
    12    15    17    1
    13    15    18    1
    14    12    13   ar
    15    13    14   ar
    16     3     4   ar
    17     4     5   ar
    18     5     6    1
    19     5     1   ar
    20    14     9   ar
    21    19    22    1
    22    19    23    1
    23     6     7    1
    24     6     8    1
