@<TRIPOS>MOLECULE
*****
 47 52 0 0 0
SMALL
GASTEIGER

@<TRIPOS>ATOM
      1 C           2.5083    0.5076   25.4766 C.ar    1  UNL1        0.1348
      2 C           3.9482    0.5632   25.0601 C.ar    1  UNL1        0.0346
      3 C           4.3203    1.1261   23.7204 C.ar    1  UNL1        0.0065
      4 C           3.2524    1.6333   22.7972 C.ar    1  UNL1        0.0432
      5 C           1.8125    1.5777   23.2137 C.ar    1  UNL1        0.1256
      6 N           1.4404    1.0148   24.5534 N.ar    1  UNL1       -0.2222
      7 C           3.6245    2.1961   21.4575 C.ar    1  UNL1        0.0850
      8 C           4.0695    1.4067   20.2622 C.ar    1  UNL1        0.1005
      9 N           4.3369    2.3699   19.1439 N.ar    1  UNL1       -0.2264
     10 C           4.0571    3.7547   19.6479 C.ar    1  UNL1        0.1474
     11 C           4.1463    5.0995   18.9896 C.ar    1  UNL1        0.0332
     12 C           3.7952    6.3370   19.7613 C.ar    1  UNL1       -0.0174
     13 C           3.8845    7.6819   19.1030 C.3     1  UNL1        0.0312
     14 C           3.3549    6.2297   21.1912 C.ar    1  UNL1        0.0149
     15 C           3.2657    4.8848   21.8495 C.ar    1  UNL1        0.0811
     16 N           3.6168    3.6472   21.0778 N.ar    1  UNL1       -0.2888
     17 C           4.2207   -0.0843   20.1968 C.ar    1  UNL1        0.0385
     18 C           3.0172   -0.9510   19.9723 C.ar    1  UNL1        0.0079
     19 C           3.1683   -2.4420   19.9069 C.ar    1  UNL1        0.0578
     20 C           4.5230   -3.0662   20.0659 C.ar    1  UNL1        0.2250
     21 N           5.7265   -2.1994   20.2904 N.ar    1  UNL1       -0.2101
     22 C           5.5753   -0.7085   20.3558 C.ar    1  UNL1        0.1036
     23 O           4.6742   -4.5571   20.0005 O.3     1  UNL1       -0.4561
     24 C           4.6319   -5.2577   18.6748 C.3     1  UNL1        0.2542
     25 C           1.6988    0.8617   27.9198 C.2     1  UNL1        0.2414
     26 O           1.6335    2.3416   27.6837 O.2     1  UNL1       -0.2733
     27 N           2.1363   -0.0553   26.8163 N.am    1  UNL1       -0.2682
     28 H           2.1792   -1.0265   26.9713 H       1  UNL1        0.1563
     29 C           1.3268    0.2989   29.2595 C.3     1  UNL1        0.1319
     30 C           2.2031    0.5542   30.4499 C.3     1  UNL1        0.0270
     31 C          -1.1791   -0.1041   28.7046 C.3     1  UNL1        0.0862
     32 N           0.0785   -0.5193   29.4088 N.3     1  UNL1       -0.2902
     33 H           0.3020   -1.4596   29.0826 H       1  UNL1        0.1237
     34 C           0.7445    2.0849   22.2905 C.1     1  UNL1       -0.0404
     35 C          -0.3234    2.5921   21.3673 C.1     1  UNL1       -0.0583
     36 C          -1.3913    3.0994   20.4441 C.ar    1  UNL1        0.0421
     37 C          -1.0227    3.6288   19.0900 C.ar    1  UNL1        0.0097
     38 C          -2.0906    4.1360   18.1668 C.ar    1  UNL1        0.0179
     39 C          -3.5272    4.1138   18.5978 C.ar    1  UNL1        0.0625
     40 C          -3.8958    3.5843   19.9519 C.ar    1  UNL1        0.0166
     41 C          -5.3324    3.5620   20.3829 C.ar    1  UNL1        0.0063
     42 C          -6.4003    4.0692   19.4598 C.ar    1  UNL1        0.0608
     43 C          -6.0317    4.5987   18.1056 C.ar    1  UNL1        0.2610
     44 O          -7.0996    5.1059   17.1824 O.2     1  UNL1       -0.2670
     45 N          -4.5951    4.6210   17.6746 N.ar    1  UNL1       -0.2935
     46 C          -4.2265    5.1505   16.3205 C.3     1  UNL1        0.1335
     47 C          -2.8279    3.0771   20.8751 C.ar    1  UNL1        0.0097
@<TRIPOS>BOND
     1    31    32    1
     2    32    29    1
     3    29    30    1
     4    29    25    1
     5    25    26    2
     6    25    27   am
     7    27     1    1
     8     1     2   ar
     9     2     3   ar
    10     3     4   ar
    11     4     7    1
    12     7     8   ar
    13     8    17    1
    14    17    18   ar
    15    18    19   ar
    16    19    20   ar
    17    20    23    1
    18    23    24    1
    19    20    21   ar
    20    21    22   ar
    21     8     9   ar
    22     9    10   ar
    23    10    11   ar
    24    11    12   ar
    25    12    13    1
    26    12    14   ar
    27    14    15   ar
    28    15    16   ar
    29     4     5   ar
    30     5    34    1
    31    34    35    3
    32    35    36    1
    33    36    37   ar
    34    37    38   ar
    35    38    39   ar
    36    39    40   ar
    37    40    41   ar
    38    41    42   ar
    39    42    43   ar
    40    43    44    2
    41    43    45   ar
    42    45    46    1
    43    40    47   ar
    44     5     6   ar
    45     6     1   ar
    46    16     7   ar
    47    47    36   ar
    48    22    17   ar
    49    16    10   ar
    50    45    39   ar
    51    32    33    1
    52    27    28    1
@<TRIPOS>MOLECULE
*****
 47 52 0 0 0
SMALL
GASTEIGER

@<TRIPOS>ATOM
      1 C           2.4942    0.0178   29.9533 C.ar    1  UNL1        0.1348
      2 C           1.8761    1.3454   30.2779 C.ar    1  UNL1        0.0346
      3 C           1.5248    2.2990   29.1746 C.ar    1  UNL1        0.0065
      4 C           1.7917    1.9250   27.7467 C.ar    1  UNL1        0.0432
      5 C           2.4098    0.5974   27.4222 C.ar    1  UNL1        0.1256
      6 N           2.7610   -0.3562   28.5255 N.ar    1  UNL1       -0.2222
      7 C           1.4405    2.8786   26.6434 C.ar    1  UNL1        0.0850
      8 C           2.4127    3.6634   25.8135 C.ar    1  UNL1        0.1005
      9 N           1.6285    4.4846   24.8334 N.ar    1  UNL1       -0.2264
     10 C           0.1715    4.2074   25.0576 C.ar    1  UNL1        0.1474
     11 C          -1.0645    4.7305   24.3877 C.ar    1  UNL1        0.0332
     12 C          -2.4166    4.2610   24.8364 C.ar    1  UNL1       -0.0174
     13 C          -3.6525    4.7841   24.1665 C.3     1  UNL1        0.0312
     14 C          -2.5328    3.2684   25.9550 C.ar    1  UNL1        0.0149
     15 C          -1.2969    2.7452   26.6249 C.ar    1  UNL1        0.0811
     16 N           0.0553    3.2148   26.1762 N.ar    1  UNL1       -0.2888
     17 C           3.9070    3.6324   25.9412 C.ar    1  UNL1        0.0385
     18 C           4.7429    3.0651   24.8323 C.ar    1  UNL1        0.0079
     19 C           6.2372    3.0342   24.9601 C.ar    1  UNL1        0.0578
     20 C           6.8955    3.5705   26.1966 C.ar    1  UNL1        0.2250
     21 N           6.0596    4.1377   27.3054 N.ar    1  UNL1       -0.2101
     22 C           4.5653    4.1687   27.1776 C.ar    1  UNL1        0.1036
     23 O           8.3897    3.5395   26.3243 O.3     1  UNL1       -0.4561
     24 C           9.0834    2.2660   26.7075 C.3     1  UNL1        0.2542
     25 C           4.1887   -0.8543   31.7191 C.2     1  UNL1        0.2414
     26 O           5.1808    0.1808   31.2783 O.2     1  UNL1       -0.2733
     27 N           2.8454   -0.9358   31.0567 N.am    1  UNL1       -0.2682
     28 H           2.1943   -1.6152   31.3460 H       1  UNL1        0.1563
     29 C           4.5399   -1.8079   32.8225 C.3     1  UNL1        0.1319
     30 C           4.3339   -1.4079   34.2534 C.3     1  UNL1        0.0270
     31 C           6.5312   -3.3013   32.0780 C.3     1  UNL1        0.0862
     32 N           5.0971   -3.1614   32.4949 N.3     1  UNL1       -0.2902
     33 H           4.9745   -3.7394   33.3263 H       1  UNL1        0.1237
     34 C           2.6767    0.2233   25.9942 C.1     1  UNL1       -0.0404
     35 C           2.9436   -0.1507   24.5664 C.1     1  UNL1       -0.0583
     36 C           3.2105   -0.5248   23.1384 C.ar    1  UNL1        0.0421
     37 C           3.8996   -1.8181   22.8182 C.ar    1  UNL1        0.0097
     38 C           4.1665   -2.1921   21.3903 C.ar    1  UNL1        0.0179
     39 C           3.7443   -1.2728   20.2827 C.ar    1  UNL1        0.0625
     40 C           3.0552    0.0204   20.6030 C.ar    1  UNL1        0.0166
     41 C           2.6330    0.9397   19.4954 C.ar    1  UNL1        0.0063
     42 C           2.8999    0.5656   18.0675 C.ar    1  UNL1        0.0608
     43 C           3.5890   -0.7277   17.7472 C.ar    1  UNL1        0.2610
     44 O           3.8558   -1.1017   16.3193 O.2     1  UNL1       -0.2670
     45 N           4.0112   -1.6469   18.8548 N.ar    1  UNL1       -0.2935
     46 C           4.7002   -2.9402   18.5345 C.3     1  UNL1        0.1335
     47 C           2.7883    0.3944   22.0309 C.ar    1  UNL1        0.0097
@<TRIPOS>BOND
     1    31    32    1
     2    32    29    1
     3    29    30    1
     4    29    25    1
     5    25    26    2
     6    25    27   am
     7    27     1    1
     8     1     2   ar
     9     2     3   ar
    10     3     4   ar
    11     4     7    1
    12     7     8   ar
    13     8    17    1
    14    17    18   ar
    15    18    19   ar
    16    19    20   ar
    17    20    23    1
    18    23    24    1
    19    20    21   ar
    20    21    22   ar
    21     8     9   ar
    22     9    10   ar
    23    10    11   ar
    24    11    12   ar
    25    12    13    1
    26    12    14   ar
    27    14    15   ar
    28    15    16   ar
    29     4     5   ar
    30     5    34    1
    31    34    35    3
    32    35    36    1
    33    36    37   ar
    34    37    38   ar
    35    38    39   ar
    36    39    40   ar
    37    40    41   ar
    38    41    42   ar
    39    42    43   ar
    40    43    44    2
    41    43    45   ar
    42    45    46    1
    43    40    47   ar
    44     5     6   ar
    45     6     1   ar
    46    16     7   ar
    47    47    36   ar
    48    22    17   ar
    49    16    10   ar
    50    45    39   ar
    51    32    33    1
    52    27    28    1
@<TRIPOS>MOLECULE
*****
 47 52 0 0 0
SMALL
GASTEIGER

@<TRIPOS>ATOM
      1 C          -0.2165    1.8118   20.4989 C.ar    1  UNL1        0.1348
      2 C           0.2205    1.8046   19.0640 C.ar    1  UNL1        0.0346
      3 C           1.4931    1.1146   18.6710 C.ar    1  UNL1        0.0065
      4 C           2.3287    0.4319   19.7129 C.ar    1  UNL1        0.0432
      5 C           1.8917    0.4391   21.1477 C.ar    1  UNL1        0.1256
      6 N           0.6191    1.1290   21.5407 N.ar    1  UNL1       -0.2222
      7 C           3.6013   -0.2581   19.3198 C.ar    1  UNL1        0.0850
      8 C           4.9007    0.4124   18.9851 C.ar    1  UNL1        0.1005
      9 N           5.9004   -0.6548   18.6509 N.ar    1  UNL1       -0.2264
     10 C           5.2189   -1.9849   18.7792 C.ar    1  UNL1        0.1474
     11 C           5.7086   -3.3876   18.5729 C.ar    1  UNL1        0.0332
     12 C           4.7773   -4.5451   18.7801 C.ar    1  UNL1       -0.0174
     13 C           5.2670   -5.9479   18.5738 C.3     1  UNL1        0.0312
     14 C           3.3564   -4.3000   19.1935 C.ar    1  UNL1        0.0149
     15 C           2.8667   -2.8973   19.3997 C.ar    1  UNL1        0.0811
     16 N           3.7980   -1.7397   19.1926 N.ar    1  UNL1       -0.2888
     17 C           5.1556    1.8905   18.9846 C.ar    1  UNL1        0.0385
     18 C           5.2493    2.6350   17.6856 C.ar    1  UNL1        0.0079
     19 C           5.5042    4.1132   17.6851 C.ar    1  UNL1        0.0578
     20 C           5.6655    4.8469   18.9834 C.ar    1  UNL1        0.2250
     21 N           5.5718    4.1025   20.2823 N.ar    1  UNL1       -0.2101
     22 C           5.3168    2.6243   20.2828 C.ar    1  UNL1        0.1036
     23 O           5.9204    6.3251   18.9829 O.3     1  UNL1       -0.4561
     24 C           4.8970    7.2628   19.5515 C.3     1  UNL1        0.2542
     25 C          -1.4379    3.7906   21.6574 C.2     1  UNL1        0.2414
     26 O          -0.1141    4.3896   22.0300 O.2     1  UNL1       -0.2733
     27 N          -1.4891    2.5017   20.8919 N.am    1  UNL1       -0.2682
     28 H          -2.3580    2.1086   20.6474 H       1  UNL1        0.1563
     29 C          -2.7105    4.4806   22.0504 C.3     1  UNL1        0.1319
     30 C          -2.6645    5.6952   22.9295 C.3     1  UNL1        0.0270
     31 C          -4.8987    3.1478   22.4812 C.3     1  UNL1        0.0862
     32 N          -4.0290    3.9560   21.5644 N.3     1  UNL1       -0.2902
     33 H          -4.5787    4.7647   21.2741 H       1  UNL1        0.1237
     34 C           2.7273   -0.2437   22.1897 C.1     1  UNL1       -0.0404
     35 C           3.5629   -0.9265   23.2316 C.1     1  UNL1       -0.0583
     36 C           4.3985   -1.6093   24.2736 C.ar    1  UNL1        0.0421
     37 C           4.3286   -1.1608   25.7032 C.ar    1  UNL1        0.0097
     38 C           5.1642   -1.8436   26.7451 C.ar    1  UNL1        0.0179
     39 C           6.0697   -2.9748   26.3573 C.ar    1  UNL1        0.0625
     40 C           6.1397   -3.4232   24.9277 C.ar    1  UNL1        0.0166
     41 C           7.0452   -4.5545   24.5399 C.ar    1  UNL1        0.0063
     42 C           7.8808   -5.2372   25.5818 C.ar    1  UNL1        0.0608
     43 C           7.8109   -4.7888   27.0115 C.ar    1  UNL1        0.2610
     44 O           8.6465   -5.4715   28.0534 O.2     1  UNL1       -0.2670
     45 N           6.9054   -3.6575   27.3993 N.ar    1  UNL1       -0.2935
     46 C           6.8355   -3.2091   28.8289 C.3     1  UNL1        0.1335
     47 C           5.3041   -2.7405   23.8858 C.ar    1  UNL1        0.0097
@<TRIPOS>BOND
     1    31    32    1
     2    32    29    1
     3    29    30    1
     4    29    25    1
     5    25    26    2
     6    25    27   am
     7    27     1    1
     8     1     2   ar
     9     2     3   ar
    10     3     4   ar
    11     4     7    1
    12     7     8   ar
    13     8    17    1
    14    17    18   ar
    15    18    19   ar
    16    19    20   ar
    17    20    23    1
    18    23    24    1
    19    20    21   ar
    20    21    22   ar
    21     8     9   ar
    22     9    10   ar
    23    10    11   ar
    24    11    12   ar
    25    12    13    1
    26    12    14   ar
    27    14    15   ar
    28    15    16   ar
    29     4     5   ar
    30     5    34    1
    31    34    35    3
    32    35    36    1
    33    36    37   ar
    34    37    38   ar
    35    38    39   ar
    36    39    40   ar
    37    40    41   ar
    38    41    42   ar
    39    42    43   ar
    40    43    44    2
    41    43    45   ar
    42    45    46    1
    43    40    47   ar
    44     5     6   ar
    45     6     1   ar
    46    16     7   ar
    47    47    36   ar
    48    22    17   ar
    49    16    10   ar
    50    45    39   ar
    51    32    33    1
    52    27    28    1
@<TRIPOS>MOLECULE
*****
 47 52 0 0 0
SMALL
GASTEIGER

@<TRIPOS>ATOM
      1 C          -2.6443    4.1955   21.9297 C.ar    1  UNL1        0.1348
      2 C          -2.4647    4.9574   23.2092 C.ar    1  UNL1        0.0346
      3 C          -1.3130    4.6395   24.1161 C.ar    1  UNL1        0.0065
      4 C          -0.3409    3.5596   23.7435 C.ar    1  UNL1        0.0432
      5 C          -0.5206    2.7976   22.4641 C.ar    1  UNL1        0.1256
      6 N          -1.6723    3.1155   21.5572 N.ar    1  UNL1       -0.2222
      7 C           0.8107    3.2416   24.6505 C.ar    1  UNL1        0.0850
      8 C           2.2333    3.6751   24.4543 C.ar    1  UNL1        0.1005
      9 N           3.0438    3.1357   25.5954 N.ar    1  UNL1       -0.2264
     10 C           2.1223    2.3689   26.4968 C.ar    1  UNL1        0.1474
     11 C           2.3614    1.6195   27.7740 C.ar    1  UNL1        0.0332
     12 C           1.2205    0.9355   28.4671 C.ar    1  UNL1       -0.0174
     13 C           1.4597    0.1861   29.7443 C.3     1  UNL1        0.0312
     14 C          -0.1596    1.0009   27.8832 C.ar    1  UNL1        0.0149
     15 C          -0.3988    1.7503   26.6061 C.ar    1  UNL1        0.0811
     16 N           0.7421    2.4343   25.9128 N.ar    1  UNL1       -0.2888
     17 C           2.7539    4.5027   23.3167 C.ar    1  UNL1        0.0385
     18 C           3.5229    3.8511   22.2057 C.ar    1  UNL1        0.0079
     19 C           4.0435    4.6787   21.0681 C.ar    1  UNL1        0.0578
     20 C           3.7952    6.1578   21.0415 C.ar    1  UNL1        0.2250
     21 N           3.0262    6.8092   22.1524 N.ar    1  UNL1       -0.2101
     22 C           2.5056    5.9816   23.2900 C.ar    1  UNL1        0.1036
     23 O           4.3158    6.9853   19.9039 O.3     1  UNL1       -0.4561
     24 C           3.3587    7.7063   19.0016 C.3     1  UNL1        0.2542
     25 C          -5.0142    3.6383   21.0225 C.2     1  UNL1        0.2414
     26 O          -5.0808    2.4451   21.9291 O.2     1  UNL1       -0.2733
     27 N          -3.7960    4.5134   21.0228 N.am    1  UNL1       -0.2682
     28 H          -3.7524    5.2965   20.4277 H       1  UNL1        0.1563
     29 C          -6.1659    3.9562   20.1155 C.3     1  UNL1        0.1319
     30 C          -6.1219    3.5427   18.6743 C.3     1  UNL1        0.0270
     31 C          -7.1867    6.0090   21.3378 C.3     1  UNL1        0.0862
     32 N          -7.3615    4.6876   20.6498 N.3     1  UNL1       -0.2902
     33 H          -7.9863    4.8475   19.8595 H       1  UNL1        0.1237
     34 C           0.4515    1.7176   22.0915 C.1     1  UNL1       -0.0404
     35 C           1.4235    0.6376   21.7189 C.1     1  UNL1       -0.0583
     36 C           2.3955   -0.4424   21.3463 C.ar    1  UNL1        0.0421
     37 C           2.1797   -1.2483   20.0997 C.ar    1  UNL1        0.0097
     38 C           3.1517   -2.3282   19.7272 C.ar    1  UNL1        0.0179
     39 C           4.3396   -2.6022   20.6012 C.ar    1  UNL1        0.0625
     40 C           4.5555   -1.7963   21.8477 C.ar    1  UNL1        0.0166
     41 C           5.7434   -2.0703   22.7216 C.ar    1  UNL1        0.0063
     42 C           6.7154   -3.1502   22.3491 C.ar    1  UNL1        0.0608
     43 C           6.4996   -3.9562   21.1025 C.ar    1  UNL1        0.2610
     44 O           7.4717   -5.0361   20.7300 O.2     1  UNL1       -0.2670
     45 N           5.3117   -3.6822   20.2286 N.ar    1  UNL1       -0.2935
     46 C           5.0958   -4.4881   18.9820 C.3     1  UNL1        0.1335
     47 C           3.5834   -0.7164   22.2202 C.ar    1  UNL1        0.0097
@<TRIPOS>BOND
     1    31    32    1
     2    32    29    1
     3    29    30    1
     4    29    25    1
     5    25    26    2
     6    25    27   am
     7    27     1    1
     8     1     2   ar
     9     2     3   ar
    10     3     4   ar
    11     4     7    1
    12     7     8   ar
    13     8    17    1
    14    17    18   ar
    15    18    19   ar
    16    19    20   ar
    17    20    23    1
    18    23    24    1
    19    20    21   ar
    20    21    22   ar
    21     8     9   ar
    22     9    10   ar
    23    10    11   ar
    24    11    12   ar
    25    12    13    1
    26    12    14   ar
    27    14    15   ar
    28    15    16   ar
    29     4     5   ar
    30     5    34    1
    31    34    35    3
    32    35    36    1
    33    36    37   ar
    34    37    38   ar
    35    38    39   ar
    36    39    40   ar
    37    40    41   ar
    38    41    42   ar
    39    42    43   ar
    40    43    44    2
    41    43    45   ar
    42    45    46    1
    43    40    47   ar
    44     5     6   ar
    45     6     1   ar
    46    16     7   ar
    47    47    36   ar
    48    22    17   ar
    49    16    10   ar
    50    45    39   ar
    51    32    33    1
    52    27    28    1
@<TRIPOS>MOLECULE
*****
 47 52 0 0 0
SMALL
GASTEIGER

@<TRIPOS>ATOM
      1 C           6.9301   -2.7264   28.0019 C.ar    1  UNL1        0.1348
      2 C           7.8083   -3.0326   26.8250 C.ar    1  UNL1        0.0346
      3 C           7.4310   -2.5400   25.4594 C.ar    1  UNL1        0.0065
      4 C           6.1755   -1.7413   25.2706 C.ar    1  UNL1        0.0432
      5 C           5.2973   -1.4352   26.4474 C.ar    1  UNL1        0.1256
      6 N           5.6746   -1.9278   27.8131 N.ar    1  UNL1       -0.2222
      7 C           5.7981   -1.2487   23.9049 C.ar    1  UNL1        0.0850
      8 C           5.9220    0.1622   23.4112 C.ar    1  UNL1        0.1005
      9 N           5.4311    0.2024   21.9943 N.ar    1  UNL1       -0.2264
     10 C           5.0038   -1.1838   21.6124 C.ar    1  UNL1        0.1474
     11 C           4.4375   -1.7453   20.3420 C.ar    1  UNL1        0.0332
     12 C           4.0980   -3.2037   20.2524 C.ar    1  UNL1       -0.0174
     13 C           3.5317   -3.7652   18.9820 C.3     1  UNL1        0.0312
     14 C           4.3248   -4.1005   21.4332 C.ar    1  UNL1        0.0149
     15 C           4.8912   -3.5390   22.7036 C.ar    1  UNL1        0.0811
     16 N           5.2307   -2.0806   22.7932 N.ar    1  UNL1       -0.2888
     17 C           6.4450    1.3284   24.1964 C.ar    1  UNL1        0.0385
     18 C           5.4982    2.3741   24.7068 C.ar    1  UNL1        0.0079
     19 C           6.0212    3.5402   25.4920 C.ar    1  UNL1        0.0578
     20 C           7.4908    3.6608   25.7669 C.ar    1  UNL1        0.2250
     21 N           8.4375    2.6152   25.2565 N.ar    1  UNL1       -0.2101
     22 C           7.9146    1.4490   24.4713 C.ar    1  UNL1        0.1036
     23 O           8.0138    4.8270   26.5521 O.3     1  UNL1       -0.4561
     24 C           7.3256    6.1571   26.4676 C.3     1  UNL1        0.2542
     25 C           6.9229   -4.6034   29.7982 C.2     1  UNL1        0.2414
     26 O           6.1610   -5.4953   28.8633 O.2     1  UNL1       -0.2733
     27 N           7.3075   -3.2190   29.3675 N.am    1  UNL1       -0.2682
     28 H           7.8075   -2.6337   29.9811 H       1  UNL1        0.1563
     29 C           7.3003   -5.0960   31.1639 C.3     1  UNL1        0.1319
     30 C           8.4941   -5.9877   31.3362 C.3     1  UNL1        0.0270
     31 C           5.9765   -3.2908   32.4826 C.3     1  UNL1        0.0862
     32 N           6.4838   -4.6969   32.3572 N.3     1  UNL1       -0.2902
     33 H           5.6666   -5.3072   32.3723 H       1  UNL1        0.1237
     34 C           4.0417   -0.6364   26.2586 C.1     1  UNL1       -0.0404
     35 C           2.7861    0.1622   26.0699 C.1     1  UNL1       -0.0583
     36 C           1.5305    0.9610   25.8812 C.ar    1  UNL1        0.0421
     37 C           0.6256    1.2228   27.0484 C.ar    1  UNL1        0.0097
     38 C          -0.6300    2.0215   26.8596 C.ar    1  UNL1        0.0179
     39 C          -0.9805    2.5584   25.5036 C.ar    1  UNL1        0.0625
     40 C          -0.0756    2.2965   24.3363 C.ar    1  UNL1        0.0166
     41 C          -0.4262    2.8334   22.9803 C.ar    1  UNL1        0.0063
     42 C          -1.6817    3.6321   22.7915 C.ar    1  UNL1        0.0608
     43 C          -2.5867    3.8940   23.9588 C.ar    1  UNL1        0.2610
     44 O          -3.8423    4.6926   23.7700 O.2     1  UNL1       -0.2670
     45 N          -2.2362    3.3571   25.3148 N.ar    1  UNL1       -0.2935
     46 C          -3.1411    3.6189   26.4820 C.3     1  UNL1        0.1335
     47 C           1.1799    1.4978   24.5251 C.ar    1  UNL1        0.0097
@<TRIPOS>BOND
     1    31    32    1
     2    32    29    1
     3    29    30    1
     4    29    25    1
     5    25    26    2
     6    25    27   am
     7    27     1    1
     8     1     2   ar
     9     2     3   ar
    10     3     4   ar
    11     4     7    1
    12     7     8   ar
    13     8    17    1
    14    17    18   ar
    15    18    19   ar
    16    19    20   ar
    17    20    23    1
    18    23    24    1
    19    20    21   ar
    20    21    22   ar
    21     8     9   ar
    22     9    10   ar
    23    10    11   ar
    24    11    12   ar
    25    12    13    1
    26    12    14   ar
    27    14    15   ar
    28    15    16   ar
    29     4     5   ar
    30     5    34    1
    31    34    35    3
    32    35    36    1
    33    36    37   ar
    34    37    38   ar
    35    38    39   ar
    36    39    40   ar
    37    40    41   ar
    38    41    42   ar
    39    42    43   ar
    40    43    44    2
    41    43    45   ar
    42    45    46    1
    43    40    47   ar
    44     5     6   ar
    45     6     1   ar
    46    16     7   ar
    47    47    36   ar
    48    22    17   ar
    49    16    10   ar
    50    45    39   ar
    51    32    33    1
    52    27    28    1
@<TRIPOS>MOLECULE
*****
 47 52 0 0 0
SMALL
GASTEIGER

@<TRIPOS>ATOM
      1 C          -3.0403    6.1213   23.4213 C.ar    1  UNL1        0.1348
      2 C          -3.5818    7.0932   22.4152 C.ar    1  UNL1        0.0346
      3 C          -3.2173    6.9545   20.9668 C.ar    1  UNL1        0.0065
      4 C          -2.3115    5.8438   20.5244 C.ar    1  UNL1        0.0432
      5 C          -1.7701    4.8718   21.5305 C.ar    1  UNL1        0.1256
      6 N          -2.1345    5.0106   22.9789 N.ar    1  UNL1       -0.2222
      7 C          -1.9471    5.7050   19.0760 C.ar    1  UNL1        0.0850
      8 C          -2.9065    5.5016   17.9410 C.ar    1  UNL1        0.1005
      9 N          -2.1116    5.4162   16.6718 N.ar    1  UNL1       -0.2264
     10 C          -0.6609    5.5667   17.0223 C.ar    1  UNL1        0.1474
     11 C           0.5806    5.5643   16.1805 C.ar    1  UNL1        0.0332
     12 C           1.9237    5.7404   16.8246 C.ar    1  UNL1       -0.0174
     13 C           3.1652    5.7381   15.9828 C.3     1  UNL1        0.0312
     14 C           2.0255    5.9190   18.3105 C.ar    1  UNL1        0.0149
     15 C           0.7840    5.9213   19.1523 C.ar    1  UNL1        0.0811
     16 N          -0.5593    5.7452   18.5082 N.ar    1  UNL1       -0.2888
     17 C          -4.3987    5.4013   18.0551 C.ar    1  UNL1        0.0385
     18 C          -5.0350    4.1017   18.4506 C.ar    1  UNL1        0.0079
     19 C          -6.5273    4.0014   18.5648 C.ar    1  UNL1        0.0578
     20 C          -7.3833    5.2006   18.2835 C.ar    1  UNL1        0.2250
     21 N          -6.7471    6.5001   17.8881 N.ar    1  UNL1       -0.2101
     22 C          -5.2548    6.6004   17.7739 C.ar    1  UNL1        0.1036
     23 O          -8.8756    5.1003   18.3976 O.3     1  UNL1       -0.4561
     24 C          -9.7337    6.2882   18.0776 C.3     1  UNL1        0.2542
     25 C          -4.7196    5.7358   25.3658 C.2     1  UNL1        0.2414
     26 O          -5.6702    5.0727   24.4135 O.2     1  UNL1       -0.2733
     27 N          -3.4048    6.2601   24.8697 N.am    1  UNL1       -0.2682
     28 H          -2.7809    6.6953   25.4947 H       1  UNL1        0.1563
     29 C          -5.0841    5.8746   26.8142 C.3     1  UNL1        0.1319
     30 C          -6.5171    6.0712   27.2115 C.3     1  UNL1        0.0270
     31 C          -3.3754    7.0820   28.3545 C.3     1  UNL1        0.0862
     32 N          -4.0155    5.8167   27.8653 N.3     1  UNL1       -0.2902
     33 H          -4.4279    5.3614   28.6796 H       1  UNL1        0.1237
     34 C          -0.8642    3.7611   21.0881 C.1     1  UNL1       -0.0404
     35 C           0.0417    2.6504   20.6458 C.1     1  UNL1       -0.0583
     36 C           0.9476    1.5396   20.2035 C.ar    1  UNL1        0.0421
     37 C           0.6905    0.1346   20.6616 C.ar    1  UNL1        0.0097
     38 C           1.5963   -0.9761   20.2192 C.ar    1  UNL1        0.0179
     39 C           2.7593   -0.6818   19.3187 C.ar    1  UNL1        0.0625
     40 C           3.0165    0.7232   18.8606 C.ar    1  UNL1        0.0166
     41 C           4.1795    1.0175   17.9602 C.ar    1  UNL1        0.0063
     42 C           5.0853   -0.0932   17.5178 C.ar    1  UNL1        0.0608
     43 C           4.8282   -1.4983   17.9759 C.ar    1  UNL1        0.2610
     44 O           5.7341   -2.6090   17.5336 O.2     1  UNL1       -0.2670
     45 N           3.6652   -1.7926   18.8764 N.ar    1  UNL1       -0.2935
     46 C           3.4081   -3.1975   19.3345 C.3     1  UNL1        0.1335
     47 C           2.1106    1.8339   19.3030 C.ar    1  UNL1        0.0097
@<TRIPOS>BOND
     1    31    32    1
     2    32    29    1
     3    29    30    1
     4    29    25    1
     5    25    26    2
     6    25    27   am
     7    27     1    1
     8     1     2   ar
     9     2     3   ar
    10     3     4   ar
    11     4     7    1
    12     7     8   ar
    13     8    17    1
    14    17    18   ar
    15    18    19   ar
    16    19    20   ar
    17    20    23    1
    18    23    24    1
    19    20    21   ar
    20    21    22   ar
    21     8     9   ar
    22     9    10   ar
    23    10    11   ar
    24    11    12   ar
    25    12    13    1
    26    12    14   ar
    27    14    15   ar
    28    15    16   ar
    29     4     5   ar
    30     5    34    1
    31    34    35    3
    32    35    36    1
    33    36    37   ar
    34    37    38   ar
    35    38    39   ar
    36    39    40   ar
    37    40    41   ar
    38    41    42   ar
    39    42    43   ar
    40    43    44    2
    41    43    45   ar
    42    45    46    1
    43    40    47   ar
    44     5     6   ar
    45     6     1   ar
    46    16     7   ar
    47    47    36   ar
    48    22    17   ar
    49    16    10   ar
    50    45    39   ar
    51    32    33    1
    52    27    28    1
@<TRIPOS>MOLECULE
*****
 47 52 0 0 0
SMALL
GASTEIGER

@<TRIPOS>ATOM
      1 C           2.7559    0.4428   26.5916 C.ar    1  UNL1        0.1348
      2 C           3.6376    1.2220   27.5219 C.ar    1  UNL1        0.0346
      3 C           3.1486    2.5095   28.1163 C.ar    1  UNL1        0.0065
      4 C           1.7780    3.0178   27.7803 C.ar    1  UNL1        0.0432
      5 C           0.8963    2.2387   26.8500 C.ar    1  UNL1        0.1256
      6 N           1.3853    0.9512   26.2557 N.ar    1  UNL1       -0.2222
      7 C           1.2890    4.3053   28.3747 C.ar    1  UNL1        0.0850
      8 C           1.2082    5.6271   27.6702 C.ar    1  UNL1        0.1005
      9 N           0.6643    6.6358   28.6380 N.ar    1  UNL1       -0.2264
     10 C           0.4089    5.9374   29.9407 C.ar    1  UNL1        0.1474
     11 C          -0.1254    6.4269   31.2541 C.ar    1  UNL1        0.0332
     12 C          -0.2735    5.4761   32.4047 C.ar    1  UNL1       -0.0174
     13 C          -0.8078    5.9655   33.7181 C.3     1  UNL1        0.0312
     14 C           0.1126    4.0357   32.2420 C.ar    1  UNL1        0.0149
     15 C           0.6468    3.5462   30.9287 C.ar    1  UNL1        0.0811
     16 N           0.7950    4.4971   29.7779 N.ar    1  UNL1       -0.2888
     17 C           1.6022    5.8935   26.2476 C.ar    1  UNL1        0.0385
     18 C           0.5500    5.9844   25.1823 C.ar    1  UNL1        0.0079
     19 C           0.9439    6.2508   23.7597 C.ar    1  UNL1        0.0578
     20 C           2.3901    6.4262   23.4023 C.ar    1  UNL1        0.2250
     21 N           3.4423    6.3353   24.4674 N.ar    1  UNL1       -0.2101
     22 C           3.0483    6.0689   25.8901 C.ar    1  UNL1        0.1036
     23 O           2.7841    6.6926   21.9797 O.3     1  UNL1       -0.4561
     24 C           2.3196    5.7743   20.8884 C.3     1  UNL1        0.2542
     25 C           4.2392   -0.8225   24.8744 C.2     1  UNL1        0.2414
     26 O           4.7446    0.4873   24.3459 O.2     1  UNL1       -0.2733
     27 N           3.2449   -0.8446   25.9972 N.am    1  UNL1       -0.2682
     28 H           2.9132   -1.7042   26.3441 H       1  UNL1        0.1563
     29 C           4.7282   -2.1100   24.2800 C.3     1  UNL1        0.1319
     30 C           4.2564   -2.5357   22.9212 C.3     1  UNL1        0.0270
     31 C           6.2982   -2.4674   26.3189 C.3     1  UNL1        0.0862
     32 N           5.6889   -2.9717   25.0444 N.3     1  UNL1       -0.2902
     33 H           5.1927   -3.8324   25.2756 H       1  UNL1        0.1237
     34 C          -0.4744    2.7470   26.5141 C.1     1  UNL1       -0.0404
     35 C          -1.8451    3.2552   26.1781 C.1     1  UNL1       -0.0583
     36 C          -3.2158    3.7635   25.8421 C.ar    1  UNL1        0.0421
     37 C          -3.8436    3.4137   24.5255 C.ar    1  UNL1        0.0097
     38 C          -5.2142    3.9220   24.1896 C.ar    1  UNL1        0.0179
     39 C          -5.9571    4.7801   25.1703 C.ar    1  UNL1        0.0625
     40 C          -5.3293    5.1300   26.4868 C.ar    1  UNL1        0.0166
     41 C          -6.0721    5.9882   27.4675 C.ar    1  UNL1        0.0063
     42 C          -7.4428    6.4965   27.1316 C.ar    1  UNL1        0.0608
     43 C          -8.0707    6.1466   25.8149 C.ar    1  UNL1        0.2610
     44 O          -9.4413    6.6549   25.4790 O.2     1  UNL1       -0.2670
     45 N          -7.3278    5.2885   24.8343 N.ar    1  UNL1       -0.2935
     46 C          -7.9556    4.9386   23.5177 C.3     1  UNL1        0.1335
     47 C          -3.9586    4.6217   26.8227 C.ar    1  UNL1        0.0097
@<TRIPOS>BOND
     1    31    32    1
     2    32    29    1
     3    29    30    1
     4    29    25    1
     5    25    26    2
     6    25    27   am
     7    27     1    1
     8     1     2   ar
     9     2     3   ar
    10     3     4   ar
    11     4     7    1
    12     7     8   ar
    13     8    17    1
    14    17    18   ar
    15    18    19   ar
    16    19    20   ar
    17    20    23    1
    18    23    24    1
    19    20    21   ar
    20    21    22   ar
    21     8     9   ar
    22     9    10   ar
    23    10    11   ar
    24    11    12   ar
    25    12    13    1
    26    12    14   ar
    27    14    15   ar
    28    15    16   ar
    29     4     5   ar
    30     5    34    1
    31    34    35    3
    32    35    36    1
    33    36    37   ar
    34    37    38   ar
    35    38    39   ar
    36    39    40   ar
    37    40    41   ar
    38    41    42   ar
    39    42    43   ar
    40    43    44    2
    41    43    45   ar
    42    45    46    1
    43    40    47   ar
    44     5     6   ar
    45     6     1   ar
    46    16     7   ar
    47    47    36   ar
    48    22    17   ar
    49    16    10   ar
    50    45    39   ar
    51    32    33    1
    52    27    28    1
@<TRIPOS>MOLECULE
*****
 47 52 0 0 0
SMALL
GASTEIGER

@<TRIPOS>ATOM
      1 C           2.8722   -0.0043   24.6669 C.ar    1  UNL1        0.1348
      2 C           3.9301    0.5931   25.5466 C.ar    1  UNL1        0.0346
      3 C           3.6155    1.7942   26.3882 C.ar    1  UNL1        0.0065
      4 C           2.2429    2.3979   26.3502 C.ar    1  UNL1        0.0432
      5 C           1.1849    1.8006   25.4705 C.ar    1  UNL1        0.1256
      6 N           1.4996    0.5994   24.6289 N.ar    1  UNL1       -0.2222
      7 C           1.9282    3.5990   27.1918 C.ar    1  UNL1        0.0850
      8 C           2.0120    5.0305   26.7516 C.ar    1  UNL1        0.1005
      9 N           1.6101    5.8958   27.9092 N.ar    1  UNL1       -0.2264
     10 C           1.2779    4.9990   29.0648 C.ar    1  UNL1        0.1474
     11 C           0.8218    5.2915   30.4635 C.ar    1  UNL1        0.0332
     12 C           0.5624    4.1646   31.4188 C.ar    1  UNL1       -0.0174
     13 C           0.1063    4.4571   32.8175 C.3     1  UNL1        0.0312
     14 C           0.7589    2.7451   30.9755 C.ar    1  UNL1        0.0149
     15 C           1.2150    2.4526   29.5768 C.ar    1  UNL1        0.0811
     16 N           1.4745    3.5796   28.6214 N.ar    1  UNL1       -0.2888
     17 C           2.4252    5.5123   25.3925 C.ar    1  UNL1        0.0385
     18 C           1.3859    5.7870   24.3462 C.ar    1  UNL1        0.0079
     19 C           1.7991    6.2688   22.9871 C.ar    1  UNL1        0.0578
     20 C           3.2514    6.4758   22.6742 C.ar    1  UNL1        0.2250
     21 N           4.2906    6.2011   23.7205 N.ar    1  UNL1       -0.2101
     22 C           3.8774    5.7194   25.0796 C.ar    1  UNL1        0.1036
     23 O           3.6646    6.9576   21.3151 O.3     1  UNL1       -0.4561
     24 C           3.1376    6.2777   20.0863 C.3     1  UNL1        0.2542
     25 C           3.7720   -1.0289   22.4555 C.2     1  UNL1        0.2414
     26 O           4.0426    0.3488   21.9273 O.2     1  UNL1       -0.2733
     27 N           3.1868   -1.2054   23.8253 N.am    1  UNL1       -0.2682
     28 H           3.0092   -2.1095   24.1719 H       1  UNL1        0.1563
     29 C           4.0866   -2.2300   21.6139 C.3     1  UNL1        0.1319
     30 C           4.5509   -3.5000   22.2632 C.3     1  UNL1        0.0270
     31 C           3.5254   -3.3811   19.3534 C.3     1  UNL1        0.0862
     32 N           3.9370   -2.1611   20.1230 N.3     1  UNL1       -0.2902
     33 H           3.2398   -1.4421   19.9299 H       1  UNL1        0.1237
     34 C          -0.1878    2.4043   25.4325 C.1     1  UNL1       -0.0404
     35 C          -1.5604    3.0079   25.3945 C.1     1  UNL1       -0.0583
     36 C          -2.9330    3.6116   25.3564 C.ar    1  UNL1        0.0421
     37 C          -3.4346    4.4083   26.5242 C.ar    1  UNL1        0.0097
     38 C          -4.8072    5.0119   26.4861 C.ar    1  UNL1        0.0179
     39 C          -5.6782    4.8190   25.2802 C.ar    1  UNL1        0.0625
     40 C          -5.1767    4.0223   24.1125 C.ar    1  UNL1        0.0166
     41 C          -6.0477    3.8293   22.9066 C.ar    1  UNL1        0.0063
     42 C          -7.4203    4.4330   22.8685 C.ar    1  UNL1        0.0608
     43 C          -7.9219    5.2297   24.0363 C.ar    1  UNL1        0.2610
     44 O          -9.2945    5.8334   23.9982 O.2     1  UNL1       -0.2670
     45 N          -7.0509    5.4227   25.2422 N.ar    1  UNL1       -0.2935
     46 C          -7.5525    6.2193   26.4100 C.3     1  UNL1        0.1335
     47 C          -3.8040    3.4187   24.1506 C.ar    1  UNL1        0.0097
@<TRIPOS>BOND
     1    31    32    1
     2    32    29    1
     3    29    30    1
     4    29    25    1
     5    25    26    2
     6    25    27   am
     7    27     1    1
     8     1     2   ar
     9     2     3   ar
    10     3     4   ar
    11     4     7    1
    12     7     8   ar
    13     8    17    1
    14    17    18   ar
    15    18    19   ar
    16    19    20   ar
    17    20    23    1
    18    23    24    1
    19    20    21   ar
    20    21    22   ar
    21     8     9   ar
    22     9    10   ar
    23    10    11   ar
    24    11    12   ar
    25    12    13    1
    26    12    14   ar
    27    14    15   ar
    28    15    16   ar
    29     4     5   ar
    30     5    34    1
    31    34    35    3
    32    35    36    1
    33    36    37   ar
    34    37    38   ar
    35    38    39   ar
    36    39    40   ar
    37    40    41   ar
    38    41    42   ar
    39    42    43   ar
    40    43    44    2
    41    43    45   ar
    42    45    46    1
    43    40    47   ar
    44     5     6   ar
    45     6     1   ar
    46    16     7   ar
    47    47    36   ar
    48    22    17   ar
    49    16    10   ar
    50    45    39   ar
    51    32    33    1
    52    27    28    1
@<TRIPOS>MOLECULE
*****
 47 52 0 0 0
SMALL
GASTEIGER

@<TRIPOS>ATOM
      1 C           1.2019    4.1573   29.6791 C.ar    1  UNL1        0.1348
      2 C           0.2474    5.2263   29.2361 C.ar    1  UNL1        0.0346
      3 C          -0.2038    5.2834   27.8067 C.ar    1  UNL1        0.0065
      4 C           0.2994    4.2716   26.8203 C.ar    1  UNL1        0.0432
      5 C           1.2538    3.2026   27.2634 C.ar    1  UNL1        0.1256
      6 N           1.7050    3.1455   28.6927 N.ar    1  UNL1       -0.2222
      7 C          -0.1519    4.3287   25.3910 C.ar    1  UNL1        0.0850
      8 C           0.6976    4.7021   24.2124 C.ar    1  UNL1        0.1005
      9 N          -0.1574    4.6267   22.9822 N.ar    1  UNL1       -0.2264
     10 C          -1.5353    4.2066   23.4005 C.ar    1  UNL1        0.1474
     11 C          -2.7926    3.9679   22.6181 C.ar    1  UNL1        0.0332
     12 C          -4.0466    3.5452   23.3244 C.ar    1  UNL1       -0.0174
     13 C          -5.3039    3.3065   22.5420 C.3     1  UNL1        0.0312
     14 C          -4.0432    3.3610   24.8131 C.ar    1  UNL1        0.0149
     15 C          -2.7859    3.5996   25.5954 C.ar    1  UNL1        0.0811
     16 N          -1.5319    4.0224   24.8891 N.ar    1  UNL1       -0.2888
     17 C           2.1475    5.0840   24.2564 C.ar    1  UNL1        0.0385
     18 C           2.5839    6.2823   25.0463 C.ar    1  UNL1        0.0079
     19 C           4.0338    6.6642   25.0902 C.ar    1  UNL1        0.0578
     20 C           5.0473    5.8479   24.3443 C.ar    1  UNL1        0.2250
     21 N           4.6109    4.6497   23.5544 N.ar    1  UNL1       -0.2101
     22 C           3.1610    4.2678   23.5105 C.ar    1  UNL1        0.1036
     23 O           6.4973    6.2297   24.3882 O.3     1  UNL1       -0.4561
     24 C           7.5139    5.2559   24.9059 C.3     1  UNL1        0.2542
     25 C           1.1641    3.0024   32.0060 C.2     1  UNL1        0.2414
     26 O           0.2238    1.9616   31.4742 O.2     1  UNL1       -0.2733
     27 N           1.6531    4.1002   31.1085 N.am    1  UNL1       -0.2682
     28 H           2.2703    4.7832   31.4575 H       1  UNL1        0.1563
     29 C           1.6154    2.9452   33.4354 C.3     1  UNL1        0.1319
     30 C           1.4026    4.1252   34.3368 C.3     1  UNL1        0.0270
     31 C           3.1978    0.9153   33.0815 C.3     1  UNL1        0.0862
     32 N           2.2793    1.7082   33.9634 N.3     1  UNL1       -0.2902
     33 H           2.8247    1.9913   34.7775 H       1  UNL1        0.1237
     34 C           1.7570    2.1907   26.2770 C.1     1  UNL1       -0.0404
     35 C           2.2602    1.1788   25.2907 C.1     1  UNL1       -0.0583
     36 C           2.7634    0.1669   24.3043 C.ar    1  UNL1        0.0421
     37 C           3.7119   -0.9067   24.7490 C.ar    1  UNL1        0.0097
     38 C           4.2151   -1.9185   23.7626 C.ar    1  UNL1        0.0179
     39 C           3.7698   -1.8568   22.3316 C.ar    1  UNL1        0.0625
     40 C           2.8212   -0.7833   21.8869 C.ar    1  UNL1        0.0166
     41 C           2.3759   -0.7216   20.4559 C.ar    1  UNL1        0.0063
     42 C           2.8791   -1.7334   19.4695 C.ar    1  UNL1        0.0608
     43 C           3.8276   -2.8070   19.9142 C.ar    1  UNL1        0.2610
     44 O           4.3308   -3.8189   18.9278 O.2     1  UNL1       -0.2670
     45 N           4.2730   -2.8687   21.3452 N.ar    1  UNL1       -0.2935
     46 C           5.2215   -3.9422   21.7899 C.3     1  UNL1        0.1335
     47 C           2.3181    0.2286   22.8732 C.ar    1  UNL1        0.0097
@<TRIPOS>BOND
     1    31    32    1
     2    32    29    1
     3    29    30    1
     4    29    25    1
     5    25    26    2
     6    25    27   am
     7    27     1    1
     8     1     2   ar
     9     2     3   ar
    10     3     4   ar
    11     4     7    1
    12     7     8   ar
    13     8    17    1
    14    17    18   ar
    15    18    19   ar
    16    19    20   ar
    17    20    23    1
    18    23    24    1
    19    20    21   ar
    20    21    22   ar
    21     8     9   ar
    22     9    10   ar
    23    10    11   ar
    24    11    12   ar
    25    12    13    1
    26    12    14   ar
    27    14    15   ar
    28    15    16   ar
    29     4     5   ar
    30     5    34    1
    31    34    35    3
    32    35    36    1
    33    36    37   ar
    34    37    38   ar
    35    38    39   ar
    36    39    40   ar
    37    40    41   ar
    38    41    42   ar
    39    42    43   ar
    40    43    44    2
    41    43    45   ar
    42    45    46    1
    43    40    47   ar
    44     5     6   ar
    45     6     1   ar
    46    16     7   ar
    47    47    36   ar
    48    22    17   ar
    49    16    10   ar
    50    45    39   ar
    51    32    33    1
    52    27    28    1
