@<TRIPOS>MOLECULE
*****
 22 25 0 0 0
SMALL
GASTEIGER

@<TRIPOS>ATOM
      1 O          -6.8598  -19.2537   22.3891 O.2     1  UNL1       -0.2448
      2 C          -7.7712  -18.0701   22.5240 C.2     1  UNL1        0.3428
      3 C          -9.1712  -18.2552   23.0299 C.2     1  UNL1        0.0959
      4 C          -9.5690  -18.9959   24.2720 C.2     1  UNL1        0.1049
      5 N         -11.0628  -18.9305   24.3922 N.2     1  UNL1       -0.2476
      6 C         -11.5881  -18.1493   23.2244 C.2     1  UNL1        0.0637
      7 C         -12.9799  -17.7642   22.8189 C.3     1  UNL1        0.0741
      8 C         -13.2026  -16.9616   21.5715 C.2     1  UNL1        0.0098
      9 C         -12.0335  -16.5442   20.7295 C.2     1  UNL1        0.1363
     10 F         -12.2562  -15.7415   19.4820 F       1  UNL1       -0.2045
     11 C         -10.6416  -16.9294   21.1350 C.2     1  UNL1        0.0307
     12 C         -10.4190  -17.7319   22.3824 C.2     1  UNL1        0.0239
     13 O          -7.2826  -16.7012   22.1530 O.3     1  UNL1       -0.4454
     14 C          -7.6760  -15.5143   22.9816 C.3     1  UNL1        0.2087
     15 C          -7.3687  -15.4896   24.4496 C.3     1  UNL1        0.0445
     16 C          -8.4818  -15.5848   25.4505 C.3     1  UNL1        0.0210
     17 C          -8.1745  -15.5601   26.9185 C.3     1  UNL1        0.0722
     18 N          -6.7541  -15.4402   27.3856 N.3     1  UNL1       -0.2727
     19 C          -5.6410  -15.3451   26.3846 C.3     1  UNL1        0.0722
     20 C          -5.9483  -15.3698   24.9166 C.3     1  UNL1        0.0210
     21 C          -6.8733  -15.4496   26.5709 C.3     1  UNL1        0.0722
     22 C          -7.1511  -15.4719   25.2435 C.3     1  UNL1        0.0210
@<TRIPOS>BOND
     1     1     2    2
     2     2    13    1
     3    13    14    1
     4    14    15    1
     5    15    16    1
     6    16    17    1
     7    17    18    1
     8    18    19    1
     9    19    20    1
    10    18    21    1
    11    21    22    1
    12     2     3    1
    13     3     4    2
    14     4     5    1
    15     5     6    2
    16     6     7    1
    17     7     8    1
    18     8     9    2
    19     9    10    1
    20     9    11    1
    21    11    12    2
    22    20    15    1
    23    12     3    1
    24    22    15    1
    25    12     6    1
@<TRIPOS>MOLECULE
*****
 22 25 0 0 0
SMALL
GASTEIGER

@<TRIPOS>ATOM
      1 O          -9.1932  -20.2989   18.5626 O.2     1  UNL1       -0.2448
      2 C          -9.0243  -19.3027   19.6711 C.2     1  UNL1        0.3428
      3 C         -10.2297  -18.6714   20.3023 C.2     1  UNL1        0.0959
      4 C         -11.2256  -17.7875   19.6117 C.2     1  UNL1        0.1049
      5 N         -12.2622  -17.3830   20.6176 N.2     1  UNL1       -0.2476
      6 C         -11.9070  -18.0169   21.9299 C.2     1  UNL1        0.0637
      7 C         -12.5651  -17.9720   23.2770 C.3     1  UNL1        0.0741
      8 C         -11.9670  -18.7232   24.4293 C.2     1  UNL1        0.0098
      9 C         -10.7108  -19.5195   24.2344 C.2     1  UNL1        0.1363
     10 F         -10.1127  -20.2708   25.3868 F       1  UNL1       -0.2045
     11 C         -10.0527  -19.5645   22.8873 C.2     1  UNL1        0.0307
     12 C         -10.6508  -18.8132   21.7350 C.2     1  UNL1        0.0239
     13 O          -7.6498  -18.9376   20.1484 O.3     1  UNL1       -0.4454
     14 C          -6.8677  -19.9016   20.9904 C.3     1  UNL1        0.2087
     15 C          -5.4157  -19.6477   21.2682 C.3     1  UNL1        0.0445
     16 C          -5.0125  -18.8119   22.4467 C.3     1  UNL1        0.0210
     17 C          -3.5605  -18.5580   22.7245 C.3     1  UNL1        0.0722
     18 N          -2.5116  -19.1399   21.8238 N.3     1  UNL1       -0.2727
     19 C          -2.9148  -19.9757   20.6453 C.3     1  UNL1        0.0722
     20 C          -4.3669  -20.2296   20.3675 C.3     1  UNL1        0.0210
     21 C          -3.2946  -19.3065   21.6312 C.3     1  UNL1        0.0722
     22 C          -4.6076  -19.5361   21.3800 C.3     1  UNL1        0.0210
@<TRIPOS>BOND
     1     1     2    2
     2     2    13    1
     3    13    14    1
     4    14    15    1
     5    15    16    1
     6    16    17    1
     7    17    18    1
     8    18    19    1
     9    19    20    1
    10    18    21    1
    11    21    22    1
    12     2     3    1
    13     3     4    2
    14     4     5    1
    15     5     6    2
    16     6     7    1
    17     7     8    1
    18     8     9    2
    19     9    10    1
    20     9    11    1
    21    11    12    2
    22    20    15    1
    23    12     3    1
    24    22    15    1
    25    12     6    1
@<TRIPOS>MOLECULE
*****
 22 25 0 0 0
SMALL
GASTEIGER

@<TRIPOS>ATOM
      1 O          -8.1101  -15.3327   21.2650 O.2     1  UNL1       -0.2448
      2 C          -7.9326  -16.6484   21.9629 C.2     1  UNL1        0.3428
      3 C          -8.4086  -16.8186   23.3752 C.2     1  UNL1        0.0959
      4 C          -9.6505  -17.5410   23.8060 C.2     1  UNL1        0.1049
      5 N          -9.7356  -17.4651   25.3016 N.2     1  UNL1       -0.2476
      6 C          -8.5463  -16.6957   25.7952 C.2     1  UNL1        0.0637
      7 C          -8.1042  -16.3073   27.1749 C.3     1  UNL1        0.0741
      8 C          -6.8420  -15.5193   27.3639 C.2     1  UNL1        0.0098
      9 C          -6.0218  -15.1198   26.1733 C.2     1  UNL1        0.1363
     10 F          -4.7595  -14.3318   26.3624 F       1  UNL1       -0.2045
     11 C          -6.4639  -15.5081   24.7936 C.2     1  UNL1        0.0307
     12 C          -7.7261  -16.2961   24.6045 C.2     1  UNL1        0.0239
     13 O          -7.2791  -17.7942   21.2485 O.3     1  UNL1       -0.4454
     14 C          -6.5457  -18.8444   22.0290 C.3     1  UNL1        0.2087
     15 C          -5.0474  -18.9010   21.9862 C.3     1  UNL1        0.0445
     16 C          -4.3588  -19.8224   21.0235 C.3     1  UNL1        0.0210
     17 C          -2.8604  -19.8789   20.9808 C.3     1  UNL1        0.0722
     18 N          -2.0507  -19.0141   21.9008 N.3     1  UNL1       -0.2727
     19 C          -2.7393  -18.0927   22.8636 C.3     1  UNL1        0.0722
     20 C          -4.2377  -18.0361   22.9062 C.3     1  UNL1        0.0210
     21 C          -2.8693  -18.9484   21.9608 C.3     1  UNL1        0.0722
     22 C          -4.2241  -18.8973   21.9994 C.3     1  UNL1        0.0210
@<TRIPOS>BOND
     1     1     2    2
     2     2    13    1
     3    13    14    1
     4    14    15    1
     5    15    16    1
     6    16    17    1
     7    17    18    1
     8    18    19    1
     9    19    20    1
    10    18    21    1
    11    21    22    1
    12     2     3    1
    13     3     4    2
    14     4     5    1
    15     5     6    2
    16     6     7    1
    17     7     8    1
    18     8     9    2
    19     9    10    1
    20     9    11    1
    21    11    12    2
    22    20    15    1
    23    12     3    1
    24    22    15    1
    25    12     6    1
@<TRIPOS>MOLECULE
*****
 22 25 0 0 0
SMALL
GASTEIGER

@<TRIPOS>ATOM
      1 O          -8.4447  -19.2795   19.0441 O.2     1  UNL1       -0.2448
      2 C          -7.8873  -19.0107   20.4104 C.2     1  UNL1        0.3428
      3 C          -8.7669  -19.1414   21.6184 C.2     1  UNL1        0.0959
      4 C          -8.4717  -19.9611   22.8395 C.2     1  UNL1        0.1049
      5 N          -9.6185  -19.8016   23.7931 N.2     1  UNL1       -0.2476
      6 C         -10.6224  -18.8833   23.1615 C.2     1  UNL1        0.0637
      7 C         -11.9477  -18.3660   23.6366 C.3     1  UNL1        0.0741
      8 C         -12.7468  -17.4407   22.7676 C.2     1  UNL1        0.0098
      9 C         -12.2205  -17.0326   21.4235 C.2     1  UNL1        0.1363
     10 F         -13.0196  -16.1072   20.5545 F       1  UNL1       -0.2045
     11 C         -10.8951  -17.5499   20.9485 C.2     1  UNL1        0.0307
     12 C         -10.0961  -18.4753   21.8174 C.2     1  UNL1        0.0239
     13 O          -6.4501  -18.6112   20.5688 O.3     1  UNL1       -0.4454
     14 C          -5.3777  -19.6599   20.5868 C.3     1  UNL1        0.2087
     15 C          -3.9334  -19.2554   20.6019 C.3     1  UNL1        0.0445
     16 C          -3.2716  -18.7902   19.3387 C.3     1  UNL1        0.0210
     17 C          -1.8272  -18.3857   19.3539 C.3     1  UNL1        0.0722
     18 N          -1.0447  -18.4463   20.6323 N.3     1  UNL1       -0.2727
     19 C          -1.7066  -18.9115   21.8954 C.3     1  UNL1        0.0722
     20 C          -3.1510  -19.3161   21.8802 C.3     1  UNL1        0.0210
     21 C          -1.8337  -18.6782   20.6732 C.3     1  UNL1        0.0722
     22 C          -3.1397  -19.0440   20.6596 C.3     1  UNL1        0.0210
@<TRIPOS>BOND
     1     1     2    2
     2     2    13    1
     3    13    14    1
     4    14    15    1
     5    15    16    1
     6    16    17    1
     7    17    18    1
     8    18    19    1
     9    19    20    1
    10    18    21    1
    11    21    22    1
    12     2     3    1
    13     3     4    2
    14     4     5    1
    15     5     6    2
    16     6     7    1
    17     7     8    1
    18     8     9    2
    19     9    10    1
    20     9    11    1
    21    11    12    2
    22    20    15    1
    23    12     3    1
    24    22    15    1
    25    12     6    1
@<TRIPOS>MOLECULE
*****
 22 25 0 0 0
SMALL
GASTEIGER

@<TRIPOS>ATOM
      1 O          -6.7672  -15.9863   23.0560 O.2     1  UNL1       -0.2448
      2 C          -7.4869  -17.2993   22.9678 C.2     1  UNL1        0.3428
      3 C          -7.0754  -18.3128   21.9414 C.2     1  UNL1        0.0959
      4 C          -7.9877  -19.0126   20.9781 C.2     1  UNL1        0.1049
      5 N          -7.1554  -19.9366   20.1394 N.2     1  UNL1       -0.2476
      6 C          -5.7287  -19.8079   20.5843 C.2     1  UNL1        0.0637
      7 C          -4.4682  -20.4749   20.1192 C.3     1  UNL1        0.0741
      8 C          -3.1583  -20.1382   20.7678 C.2     1  UNL1        0.0098
      9 C          -3.1089  -19.1346   21.8815 C.2     1  UNL1        0.1363
     10 F          -1.7988  -18.7979   22.5301 F       1  UNL1       -0.2045
     11 C          -4.3693  -18.4676   22.3466 C.2     1  UNL1        0.0307
     12 C          -5.6792  -18.8043   21.6980 C.2     1  UNL1        0.0239
     13 O          -8.6183  -17.5990   23.9062 O.3     1  UNL1       -0.4454
     14 C          -9.8511  -16.7446   23.8916 C.3     1  UNL1        0.2087
     15 C         -10.7831  -16.7929   22.7173 C.3     1  UNL1        0.0445
     16 C         -10.4561  -16.0294   21.4683 C.3     1  UNL1        0.0210
     17 C         -11.3882  -16.0777   20.2941 C.3     1  UNL1        0.0722
     18 N         -12.6473  -16.8895   20.3688 N.3     1  UNL1       -0.2727
     19 C         -12.9743  -17.6531   21.6178 C.3     1  UNL1        0.0722
     20 C         -12.0422  -17.6047   22.7921 C.3     1  UNL1        0.0210
     21 C         -12.1674  -16.8936   21.0378 C.3     1  UNL1        0.0722
     22 C         -11.3246  -16.8500   22.0997 C.3     1  UNL1        0.0210
@<TRIPOS>BOND
     1     1     2    2
     2     2    13    1
     3    13    14    1
     4    14    15    1
     5    15    16    1
     6    16    17    1
     7    17    18    1
     8    18    19    1
     9    19    20    1
    10    18    21    1
    11    21    22    1
    12     2     3    1
    13     3     4    2
    14     4     5    1
    15     5     6    2
    16     6     7    1
    17     7     8    1
    18     8     9    2
    19     9    10    1
    20     9    11    1
    21    11    12    2
    22    20    15    1
    23    12     3    1
    24    22    15    1
    25    12     6    1
@<TRIPOS>MOLECULE
*****
 22 25 0 0 0
SMALL
GASTEIGER

@<TRIPOS>ATOM
      1 O          -6.0881  -17.3267   22.8237 O.2     1  UNL1       -0.2448
      2 C          -6.1803  -18.6256   22.0793 C.2     1  UNL1        0.3428
      3 C          -7.3202  -18.8698   21.1352 C.2     1  UNL1        0.0959
      4 C          -7.2023  -19.3040   19.7043 C.2     1  UNL1        0.1049
      5 N          -8.5873  -19.4252   19.1412 N.2     1  UNL1       -0.2476
      6 C          -9.5611  -19.0659   20.2240 C.2     1  UNL1        0.0637
      7 C         -11.0597  -19.0070   20.2471 C.3     1  UNL1        0.0741
      8 C         -11.7752  -18.6048   21.5026 C.2     1  UNL1        0.0098
      9 C         -10.9921  -18.2615   22.7350 C.2     1  UNL1        0.1363
     10 F         -11.7077  -17.8593   23.9905 F       1  UNL1       -0.2045
     11 C          -9.4935  -18.3205   22.7119 C.2     1  UNL1        0.0307
     12 C          -8.7780  -18.7226   21.4565 C.2     1  UNL1        0.0239
     13 O          -5.1326  -19.6805   22.2789 O.3     1  UNL1       -0.4454
     14 C          -3.7799  -19.3037   22.8064 C.3     1  UNL1        0.2087
     15 C          -2.8358  -18.5112   21.9517 C.3     1  UNL1        0.0445
     16 C          -2.6030  -17.0578   22.2401 C.3     1  UNL1        0.0210
     17 C          -1.6588  -16.2654   21.3853 C.3     1  UNL1        0.0722
     18 N          -0.9474  -16.9264   20.2421 N.3     1  UNL1       -0.2727
     19 C          -1.1802  -18.3799   19.9536 C.3     1  UNL1        0.0722
     20 C          -2.1244  -19.1723   20.8085 C.3     1  UNL1        0.0210
     21 C          -1.4554  -17.4016   20.6827 C.3     1  UNL1        0.0722
     22 C          -2.3092  -18.1182   21.4555 C.3     1  UNL1        0.0210
@<TRIPOS>BOND
     1     1     2    2
     2     2    13    1
     3    13    14    1
     4    14    15    1
     5    15    16    1
     6    16    17    1
     7    17    18    1
     8    18    19    1
     9    19    20    1
    10    18    21    1
    11    21    22    1
    12     2     3    1
    13     3     4    2
    14     4     5    1
    15     5     6    2
    16     6     7    1
    17     7     8    1
    18     8     9    2
    19     9    10    1
    20     9    11    1
    21    11    12    2
    22    20    15    1
    23    12     3    1
    24    22    15    1
    25    12     6    1
@<TRIPOS>MOLECULE
*****
 22 25 0 0 0
SMALL
GASTEIGER

@<TRIPOS>ATOM
      1 O          -7.7562  -15.0115   21.7063 O.2     1  UNL1       -0.2448
      2 C          -7.1910  -15.5929   22.9682 C.2     1  UNL1        0.3428
      3 C          -8.0684  -16.3944   23.8834 C.2     1  UNL1        0.0959
      4 C          -8.2563  -16.1605   25.3531 C.2     1  UNL1        0.1049
      5 N          -9.2160  -17.1921   25.8676 N.2     1  UNL1       -0.2476
      6 C          -9.6211  -18.0637   24.7160 C.2     1  UNL1        0.0637
      7 C         -10.5442  -19.2425   24.6256 C.3     1  UNL1        0.0741
      8 C         -10.7580  -19.9283   23.3088 C.2     1  UNL1        0.0098
      9 C         -10.0488  -19.4353   22.0825 C.2     1  UNL1        0.1363
     10 F         -10.2627  -20.1211   20.7657 F       1  UNL1       -0.2045
     11 C          -9.1257  -18.2565   22.1729 C.2     1  UNL1        0.0307
     12 C          -8.9118  -17.5707   23.4897 C.2     1  UNL1        0.0239
     13 O          -5.7482  -15.3727   23.3149 O.3     1  UNL1       -0.4454
     14 C          -4.9610  -16.4643   23.9773 C.3     1  UNL1        0.2087
     15 C          -4.3137  -17.5322   23.1465 C.3     1  UNL1        0.0445
     16 C          -5.1499  -18.6179   22.5364 C.3     1  UNL1        0.0210
     17 C          -4.5025  -19.6858   21.7055 C.3     1  UNL1        0.0722
     18 N          -3.0189  -19.6682   21.4847 N.3     1  UNL1       -0.2727
     19 C          -2.1827  -18.5826   22.0949 C.3     1  UNL1        0.0722
     20 C          -2.8302  -17.5146   22.9258 C.3     1  UNL1        0.0210
     21 C          -3.3286  -19.0616   21.9475 C.3     1  UNL1        0.0722
     22 C          -3.9139  -18.0959   22.6988 C.3     1  UNL1        0.0210
@<TRIPOS>BOND
     1     1     2    2
     2     2    13    1
     3    13    14    1
     4    14    15    1
     5    15    16    1
     6    16    17    1
     7    17    18    1
     8    18    19    1
     9    19    20    1
    10    18    21    1
    11    21    22    1
    12     2     3    1
    13     3     4    2
    14     4     5    1
    15     5     6    2
    16     6     7    1
    17     7     8    1
    18     8     9    2
    19     9    10    1
    20     9    11    1
    21    11    12    2
    22    20    15    1
    23    12     3    1
    24    22    15    1
    25    12     6    1
@<TRIPOS>MOLECULE
*****
 22 25 0 0 0
SMALL
GASTEIGER

@<TRIPOS>ATOM
      1 O          -6.3222  -18.1394   21.8184 O.2     1  UNL1       -0.2448
      2 C          -7.1237  -19.0320   20.9181 C.2     1  UNL1        0.3428
      3 C          -8.6211  -19.0364   21.0059 C.2     1  UNL1        0.0959
      4 C          -9.5710  -19.2253   19.8604 C.2     1  UNL1        0.1049
      5 N         -10.9684  -19.1583   20.4013 N.2     1  UNL1       -0.2476
      6 C         -10.8823  -18.9281   21.8810 C.2     1  UNL1        0.0637
      7 C         -11.9375  -18.7773   22.9364 C.3     1  UNL1        0.0741
      8 C         -11.5418  -18.5511   24.3655 C.2     1  UNL1        0.0098
      9 C         -10.0911  -18.4758   24.7392 C.2     1  UNL1        0.1363
     10 F          -9.6955  -18.2497   26.1683 F       1  UNL1       -0.2045
     11 C          -9.0359  -18.6266   23.6838 C.2     1  UNL1        0.0307
     12 C          -9.4316  -18.8527   22.2547 C.2     1  UNL1        0.0239
     13 O          -6.4277  -19.9204   19.9298 O.3     1  UNL1       -0.4454
     14 C          -5.1689  -20.6361   20.3212 C.3     1  UNL1        0.2087
     15 C          -3.8827  -19.8751   20.4499 C.3     1  UNL1        0.0445
     16 C          -3.2503  -19.2604   19.2365 C.3     1  UNL1        0.0210
     17 C          -1.9641  -18.4995   19.3652 C.3     1  UNL1        0.0722
     18 N          -1.3102  -18.3531   20.7073 N.3     1  UNL1       -0.2727
     19 C          -1.9426  -18.9677   21.9206 C.3     1  UNL1        0.0722
     20 C          -3.2289  -19.7288   21.7919 C.3     1  UNL1        0.0210
     21 C          -2.0146  -18.7791   20.6863 C.3     1  UNL1        0.0722
     22 C          -3.1776  -19.4672   20.5701 C.3     1  UNL1        0.0210
@<TRIPOS>BOND
     1     1     2    2
     2     2    13    1
     3    13    14    1
     4    14    15    1
     5    15    16    1
     6    16    17    1
     7    17    18    1
     8    18    19    1
     9    19    20    1
    10    18    21    1
    11    21    22    1
    12     2     3    1
    13     3     4    2
    14     4     5    1
    15     5     6    2
    16     6     7    1
    17     7     8    1
    18     8     9    2
    19     9    10    1
    20     9    11    1
    21    11    12    2
    22    20    15    1
    23    12     3    1
    24    22    15    1
    25    12     6    1
@<TRIPOS>MOLECULE
*****
 22 25 0 0 0
SMALL
GASTEIGER

@<TRIPOS>ATOM
      1 O          -8.0064  -17.3042   21.4545 O.2     1  UNL1       -0.2448
      2 C          -7.5487  -18.6196   22.0113 C.2     1  UNL1        0.3428
      3 C          -6.4003  -19.3448   21.3746 C.2     1  UNL1        0.0959
      4 C          -6.5056  -20.4424   20.3576 C.2     1  UNL1        0.1049
      5 N          -5.1154  -20.8756   19.9976 N.2     1  UNL1       -0.2476
      6 C          -4.1509  -20.0458   20.7921 C.2     1  UNL1        0.0637
      7 C          -2.6521  -20.0295   20.8506 C.3     1  UNL1        0.0741
      8 C          -1.9475  -19.0670   21.7601 C.2     1  UNL1        0.0098
      9 C          -2.7417  -18.1209   22.6111 C.2     1  UNL1        0.1363
     10 F          -2.0370  -17.1585   23.5206 F       1  UNL1       -0.2045
     11 C          -4.2404  -18.1373   22.5526 C.2     1  UNL1        0.0307
     12 C          -4.9450  -19.0997   21.6431 C.2     1  UNL1        0.0239
     13 O          -8.2393  -19.2099   23.2049 O.3     1  UNL1       -0.4454
     14 C          -9.5382  -19.9405   23.0346 C.3     1  UNL1        0.2087
     15 C         -10.8319  -19.1814   23.0401 C.3     1  UNL1        0.0445
     16 C         -11.6150  -19.0431   24.3120 C.3     1  UNL1        0.0210
     17 C         -12.9087  -18.2840   24.3174 C.3     1  UNL1        0.0722
     18 N         -13.4195  -17.6632   23.0510 N.3     1  UNL1       -0.2727
     19 C         -12.6364  -17.8016   21.7791 C.3     1  UNL1        0.0722
     20 C         -11.3426  -18.5607   21.7737 C.3     1  UNL1        0.0210
     21 C         -12.7053  -18.0698   22.9988 C.3     1  UNL1        0.0722
     22 C         -11.5355  -18.7561   22.9937 C.3     1  UNL1        0.0210
@<TRIPOS>BOND
     1     1     2    2
     2     2    13    1
     3    13    14    1
     4    14    15    1
     5    15    16    1
     6    16    17    1
     7    17    18    1
     8    18    19    1
     9    19    20    1
    10    18    21    1
    11    21    22    1
    12     2     3    1
    13     3     4    2
    14     4     5    1
    15     5     6    2
    16     6     7    1
    17     7     8    1
    18     8     9    2
    19     9    10    1
    20     9    11    1
    21    11    12    2
    22    20    15    1
    23    12     3    1
    24    22    15    1
    25    12     6    1
