@<TRIPOS>MOLECULE
*****
 42 45 0 0 0
SMALL
GASTEIGER

@<TRIPOS>ATOM
      1 C           5.1478   -3.3845   21.8612 C.3     1  UNL1        0.0487
      2 C           4.9407   -2.9543   23.2832 C.3     1  UNL1        0.1816
      3 C           5.8598   -3.9123   23.9815 C.3     1  UNL1        0.1129
      4 N           6.5961   -4.6053   25.0895 N.3     1  UNL1       -0.2883
      5 C           7.0608   -4.9498   26.4734 C.3     1  UNL1        0.1317
      6 C           7.1979   -4.9043   27.9664 C.2     1  UNL1        0.2403
      7 O           8.1889   -6.0116   28.1709 O.2     1  UNL1       -0.2734
      8 N           6.9908   -4.4742   29.3885 N.am    1  UNL1       -0.2701
      9 C           7.9099   -5.4321   30.0869 C.3     1  UNL1        0.1153
     10 C           6.4646   -3.7114   30.5680 C.3     1  UNL1        0.1519
     11 C           7.2009   -4.4045   31.6759 C.3     1  UNL1        0.0314
     12 C           5.6826   -2.7080   31.3627 C.2     1  UNL1        0.2409
     13 O           6.1473   -3.0525   32.7467 O.2     1  UNL1       -0.2733
     14 N           4.7392   -1.5849   31.6767 N.am    1  UNL1       -0.2967
     15 C           3.7482   -0.4775   31.4723 C.3     1  UNL1        0.1530
     16 C           2.8291    0.4804   30.7740 C.2     1  UNL1        0.2407
     17 O           2.3028    1.2431   31.9534 O.2     1  UNL1       -0.2733
     18 N           2.0928    1.1734   29.6660 N.am    1  UNL1       -0.3030
     19 C           1.6280    1.5179   28.2821 C.3     1  UNL1        0.0898
     20 C           1.4909    1.4724   26.7890 C.3     1  UNL1        0.0260
     21 C           1.6980    1.0422   25.3670 C.3     1  UNL1        0.0312
     22 C           2.2243    0.2795   24.1875 C.ar    1  UNL1        0.0118
     23 C           1.3052    1.2374   23.4892 C.ar    1  UNL1       -0.0013
     24 C           1.1681    1.1919   21.9962 C.ar    1  UNL1       -0.0001
     25 C           1.9501    0.1884   21.2015 C.ar    1  UNL1        0.0031
     26 C           2.8692   -0.7695   21.8998 C.ar    1  UNL1        0.0366
     27 C           3.0063   -0.7240   23.3928 C.ar    1  UNL1        0.1344
     28 O           3.9497   -1.8471   23.0788 O.3     1  UNL1       -0.4781
     29 H           7.5280   -4.4537   24.7035 H       1  UNL1        0.1237
     30 H           4.8292   -1.5550   32.6566 H       1  UNL1        0.1499
     31 H           1.5795    1.8320   30.1876 H       1  UNL1        0.1495
     32 C           8.0042   -6.0729   26.1594 C.3     1  UNL1        0.0233
     33 C           9.3939   -6.5613   25.8761 C.3     1  UNL1        0.0019
     34 C           8.2486   -7.5298   25.8986 C.3     1  UNL1        0.0019
     35 C           3.5411   -0.0474   32.8943 C.3     1  UNL1        0.0553
     36 C           4.7204    0.1249   33.8050 C.ar    1  UNL1       -0.0199
     37 C           4.7446   -0.5608   35.1389 C.ar    1  UNL1       -0.0019
     38 C           5.9239   -0.3885   36.0496 C.ar    1  UNL1        0.0293
     39 C           7.0793    0.4695   35.6264 C.ar    1  UNL1        0.1401
     40 F           8.2586    0.6418   36.5372 F       1  UNL1       -0.2042
     41 C           7.0551    1.1552   34.2925 C.ar    1  UNL1        0.0293
     42 C           5.8758    0.9829   33.3818 C.ar    1  UNL1       -0.0019
@<TRIPOS>BOND
     1     2     1    1
     2     2     3    1
     3     3     4    1
     4     4     5    1
     5     5    32    1
     6    32    33    1
     7    33    34    1
     8     5     6    1
     9     6     7    2
    10     6     8   am
    11     8     9    1
    12     8    10    1
    13    10    11    1
    14    10    12    1
    15    12    13    2
    16    12    14   am
    17    14    15    1
    18    15    35    1
    19    35    36    1
    20    36    37   ar
    21    37    38   ar
    22    38    39   ar
    23    39    40    1
    24    39    41   ar
    25    41    42   ar
    26    15    16    1
    27    16    17    2
    28    16    18   am
    29    18    19    1
    30    19    20    1
    31    20    21    1
    32    21    22    1
    33    22    23   ar
    34    23    24   ar
    35    24    25   ar
    36    25    26   ar
    37    26    27   ar
    38    27    28    1
    39    28     2    1
    40    34    32    1
    41    42    36   ar
    42    27    22   ar
    43     4    29    1
    44    14    30    1
    45    18    31    1
@<TRIPOS>MOLECULE
*****
 42 45 0 0 0
SMALL
GASTEIGER

@<TRIPOS>ATOM
      1 C           5.2579   -1.4163   32.9158 C.3     1  UNL1        0.0487
      2 C           4.9502   -1.3586   31.4489 C.3     1  UNL1        0.1816
      3 C           5.9086   -2.3946   30.9408 C.3     1  UNL1        0.1129
      4 N           6.6446   -3.2857   29.9846 N.3     1  UNL1       -0.2883
      5 C           7.0693   -3.9242   28.6955 C.3     1  UNL1        0.1317
      6 C           7.1316   -4.2333   27.2290 C.2     1  UNL1        0.2403
      7 O           8.1969   -5.2894   27.2305 O.2     1  UNL1       -0.2734
      8 N           6.8239   -4.1757   25.7620 N.am    1  UNL1       -0.2701
      9 C           7.7824   -5.2117   25.2539 C.3     1  UNL1        0.1153
     10 C           6.1834   -3.7583   24.4715 C.3     1  UNL1        0.1519
     11 C           6.9194   -4.6494   23.5152 C.3     1  UNL1        0.0314
     12 C           5.2873   -3.0314   23.5130 C.2     1  UNL1        0.2409
     13 O           5.7120   -3.6700   22.2239 O.2     1  UNL1       -0.2733
     14 N           4.2437   -2.0828   23.0024 N.am    1  UNL1       -0.2967
     15 C           3.1784   -1.0267   23.0009 C.3     1  UNL1        0.1530
     16 C           2.2199    0.0093   23.5090 C.2     1  UNL1        0.2407
     17 O           1.5794    0.4267   22.2185 O.2     1  UNL1       -0.2733
     18 N           1.4840    0.9003   24.4652 N.am    1  UNL1       -0.3030
     19 C           1.0592    1.5389   25.7543 C.3     1  UNL1        0.0898
     20 C           0.9969    1.8480   27.2208 C.3     1  UNL1        0.0260
     21 C           1.3046    1.7903   28.6878 C.3     1  UNL1        0.0312
     22 C           1.9451    1.3730   29.9783 C.ar    1  UNL1        0.0118
     23 C           0.9867    2.4089   30.4863 C.ar    1  UNL1       -0.0013
     24 C           0.9244    2.7180   31.9528 C.ar    1  UNL1       -0.0001
     25 C           1.8205    1.9912   32.9112 C.ar    1  UNL1        0.0031
     26 C           2.7790    0.9552   32.4032 C.ar    1  UNL1        0.0366
     27 C           2.8412    0.6461   30.9367 C.ar    1  UNL1        0.1344
     28 O           3.8849   -0.3026   31.4474 O.3     1  UNL1       -0.4781
     29 H           6.4142   -4.1582   30.4599 H       1  UNL1        0.1237
     30 H           4.2845   -2.2856   22.0399 H       1  UNL1        0.1499
     31 H           0.8958    1.3774   23.8361 H       1  UNL1        0.1495
     32 C           8.1129   -4.8729   29.2062 C.3     1  UNL1        0.0233
     33 C           8.5024   -6.2388   29.6884 C.3     1  UNL1        0.0019
     34 C           9.5312   -5.1502   29.6087 C.3     1  UNL1        0.0019
     35 C           2.8707   -0.9691   21.5339 C.3     1  UNL1        0.0553
     36 C           3.9202   -1.3495   20.5320 C.ar    1  UNL1       -0.0199
     37 C           3.7034   -2.5277   19.6293 C.ar    1  UNL1       -0.0019
     38 C           4.7530   -2.9080   18.6274 C.ar    1  UNL1        0.0293
     39 C           6.0193   -2.1102   18.5282 C.ar    1  UNL1        0.1401
     40 F           7.0688   -2.4905   17.5263 F       1  UNL1       -0.2042
     41 C           6.2360   -0.9320   19.4309 C.ar    1  UNL1        0.0293
     42 C           5.1865   -0.5516   20.4328 C.ar    1  UNL1       -0.0019
@<TRIPOS>BOND
     1     2     1    1
     2     2     3    1
     3     3     4    1
     4     4     5    1
     5     5    32    1
     6    32    33    1
     7    33    34    1
     8     5     6    1
     9     6     7    2
    10     6     8   am
    11     8     9    1
    12     8    10    1
    13    10    11    1
    14    10    12    1
    15    12    13    2
    16    12    14   am
    17    14    15    1
    18    15    35    1
    19    35    36    1
    20    36    37   ar
    21    37    38   ar
    22    38    39   ar
    23    39    40    1
    24    39    41   ar
    25    41    42   ar
    26    15    16    1
    27    16    17    2
    28    16    18   am
    29    18    19    1
    30    19    20    1
    31    20    21    1
    32    21    22    1
    33    22    23   ar
    34    23    24   ar
    35    24    25   ar
    36    25    26   ar
    37    26    27   ar
    38    27    28    1
    39    28     2    1
    40    34    32    1
    41    42    36   ar
    42    27    22   ar
    43     4    29    1
    44    14    30    1
    45    18    31    1
@<TRIPOS>MOLECULE
*****
 42 45 0 0 0
SMALL
GASTEIGER

@<TRIPOS>ATOM
      1 C           7.4969   -4.3266   31.4231 C.3     1  UNL1        0.0487
      2 C           6.6774   -3.6127   30.3893 C.3     1  UNL1        0.1816
      3 C           7.1634   -4.3031   29.1494 C.3     1  UNL1        0.1129
      4 N           7.3063   -4.6622   27.7001 N.3     1  UNL1       -0.2883
      5 C           7.0887   -4.6469   26.2160 C.3     1  UNL1        0.1317
      6 C           6.5368   -4.2589   24.8763 C.2     1  UNL1        0.2403
      7 O           7.3075   -5.1971   23.9955 O.2     1  UNL1       -0.2734
      8 N           5.7173   -3.5450   23.8424 N.am    1  UNL1       -0.2701
      9 C           6.2034   -4.2354   22.6025 C.3     1  UNL1        0.1153
     10 C           4.7290   -2.5915   23.2391 C.3     1  UNL1        0.1519
     11 C           4.8719   -2.9507   21.7897 C.3     1  UNL1        0.0314
     12 C           3.6911   -1.5132   23.1392 C.2     1  UNL1        0.2409
     13 O           3.4735   -1.4978   21.6551 O.2     1  UNL1       -0.2733
     14 N           2.7288   -0.4402   23.5547 N.am    1  UNL1       -0.2967
     15 C           1.9581    0.4980   24.4355 C.3     1  UNL1        0.1530
     16 C           1.4720    1.1884   25.6753 C.2     1  UNL1        0.2407
     17 O           0.4838    2.1419   25.0721 O.2     1  UNL1       -0.2733
     18 N           1.3292    1.5475   27.1246 N.am    1  UNL1       -0.3030
     19 C           1.5468    1.5322   28.6087 C.3     1  UNL1        0.0898
     20 C           2.0987    1.1442   29.9485 C.3     1  UNL1        0.0260
     21 C           2.9182    0.4303   30.9823 C.3     1  UNL1        0.0312
     22 C           3.9065   -0.5232   31.5856 C.ar    1  UNL1        0.0118
     23 C           3.4204    0.1671   32.8254 C.ar    1  UNL1       -0.0013
     24 C           3.9722   -0.2209   34.1651 C.ar    1  UNL1       -0.0001
     25 C           5.0101   -1.2992   34.2650 C.ar    1  UNL1        0.0031
     26 C           5.4962   -1.9895   33.0253 C.ar    1  UNL1        0.0366
     27 C           4.9444   -1.6015   31.6855 C.ar    1  UNL1        0.1344
     28 O           5.9067   -2.6745   31.2700 O.3     1  UNL1       -0.4781
     29 H           7.1129   -5.6563   27.8215 H       1  UNL1        0.1237
     30 H           2.3666   -0.1856   22.6754 H       1  UNL1        0.1499
     31 H           0.6480    2.2553   27.0591 H       1  UNL1        0.1495
     32 C           8.0510   -5.7198   25.8006 C.3     1  UNL1        0.0233
     33 C           8.3336   -7.1569   25.4767 C.3     1  UNL1        0.0019
     34 C           9.4351   -6.1413   25.4048 C.3     1  UNL1        0.0019
     35 C           1.1386    1.2119   23.4016 C.3     1  UNL1        0.0553
     36 C           1.4942    1.0926   21.9493 C.ar    1  UNL1       -0.0199
     37 C           2.6734    1.8407   21.4018 C.ar    1  UNL1       -0.0019
     38 C           3.0290    1.7213   19.9495 C.ar    1  UNL1        0.0293
     39 C           2.2052    0.8538   19.0445 C.ar    1  UNL1        0.1401
     40 F           2.5608    0.7345   17.5921 F       1  UNL1       -0.2042
     41 C           1.0260    0.1057   19.5919 C.ar    1  UNL1        0.0293
     42 C           0.6704    0.2250   21.0443 C.ar    1  UNL1       -0.0019
@<TRIPOS>BOND
     1     2     1    1
     2     2     3    1
     3     3     4    1
     4     4     5    1
     5     5    32    1
     6    32    33    1
     7    33    34    1
     8     5     6    1
     9     6     7    2
    10     6     8   am
    11     8     9    1
    12     8    10    1
    13    10    11    1
    14    10    12    1
    15    12    13    2
    16    12    14   am
    17    14    15    1
    18    15    35    1
    19    35    36    1
    20    36    37   ar
    21    37    38   ar
    22    38    39   ar
    23    39    40    1
    24    39    41   ar
    25    41    42   ar
    26    15    16    1
    27    16    17    2
    28    16    18   am
    29    18    19    1
    30    19    20    1
    31    20    21    1
    32    21    22    1
    33    22    23   ar
    34    23    24   ar
    35    24    25   ar
    36    25    26   ar
    37    26    27   ar
    38    27    28    1
    39    28     2    1
    40    34    32    1
    41    42    36   ar
    42    27    22   ar
    43     4    29    1
    44    14    30    1
    45    18    31    1
@<TRIPOS>MOLECULE
*****
 42 45 0 0 0
SMALL
GASTEIGER

@<TRIPOS>ATOM
      1 C           5.7163   -3.0477   24.4598 C.3     1  UNL1        0.0487
      2 C           4.6741   -2.0638   24.0173 C.3     1  UNL1        0.1816
      3 C           4.2072   -1.5615   25.3514 C.3     1  UNL1        0.1129
      4 N           3.4346   -0.7780   26.3709 N.3     1  UNL1       -0.2883
      5 C           2.4496    0.1921   26.9528 C.3     1  UNL1        0.1317
      6 C           1.3710    1.2318   27.0271 C.2     1  UNL1        0.2403
      7 O           1.2660    1.3924   28.5148 O.2     1  UNL1       -0.2734
      8 N           0.3288    2.2158   26.5847 N.am    1  UNL1       -0.2701
      9 C          -0.1381    2.7181   27.9187 C.3     1  UNL1        0.1153
     10 C          -0.5512    3.0253   25.6790 C.3     1  UNL1        0.1519
     11 C          -1.3237    3.8088   26.6985 C.3     1  UNL1        0.0314
     12 C          -1.1628    3.5628   24.4193 C.2     1  UNL1        0.2409
     13 O          -2.1478    4.5329   25.0012 O.2     1  UNL1       -0.2733
     14 N          -1.4324    3.7633   22.9574 N.am    1  UNL1       -0.2967
     15 C          -1.3274    3.6027   21.4697 C.3     1  UNL1        0.1530
     16 C          -0.8604    3.1004   20.1356 C.2     1  UNL1        0.2407
     17 O          -1.7404    3.9099   19.2300 O.2     1  UNL1       -0.2733
     18 N          -0.0879    2.3170   19.1161 N.am    1  UNL1       -0.3030
     19 C           0.8971    1.3469   18.5342 C.3     1  UNL1        0.0898
     20 C           1.9758    0.3071   18.4599 C.3     1  UNL1        0.0260
     21 C           3.0179   -0.6769   18.9024 C.3     1  UNL1        0.0312
     22 C           3.8979   -1.4864   19.8080 C.ar    1  UNL1        0.0118
     23 C           4.3648   -1.9887   18.4740 C.ar    1  UNL1       -0.0013
     24 C           5.4434   -3.0284   18.3997 C.ar    1  UNL1       -0.0001
     25 C           6.0551   -3.5659   19.6595 C.ar    1  UNL1        0.0031
     26 C           5.5882   -3.0636   20.9935 C.ar    1  UNL1        0.0366
     27 C           4.5096   -2.0238   21.0678 C.ar    1  UNL1        0.1344
     28 O           4.7791   -2.2243   22.5297 O.3     1  UNL1       -0.4781
     29 H           4.2517   -0.3888   26.8414 H       1  UNL1        0.1237
     30 H          -2.1403    4.4457   23.0061 H       1  UNL1        0.1499
     31 H          -0.4894    2.6697   18.2893 H       1  UNL1        0.1495
     32 C           2.7192   -0.0085   28.4147 C.3     1  UNL1        0.0233
     33 C           2.3435   -0.6164   29.7335 C.3     1  UNL1        0.0019
     34 C           3.5619    0.2521   29.6280 C.3     1  UNL1        0.0019
     35 C          -2.3695    4.5867   21.0272 C.3     1  UNL1        0.0553
     36 C          -3.6492    4.7212   21.7981 C.ar    1  UNL1       -0.0199
     37 C          -4.0307    6.0441   22.3935 C.ar    1  UNL1       -0.0019
     38 C          -5.3104    6.1786   23.1644 C.ar    1  UNL1        0.0293
     39 C          -6.2087    4.9902   23.3400 C.ar    1  UNL1        0.1401
     40 F          -7.4884    5.1247   24.1109 F       1  UNL1       -0.2042
     41 C          -5.8272    3.6673   22.7446 C.ar    1  UNL1        0.0293
     42 C          -4.5475    3.5328   21.9737 C.ar    1  UNL1       -0.0019
@<TRIPOS>BOND
     1     2     1    1
     2     2     3    1
     3     3     4    1
     4     4     5    1
     5     5    32    1
     6    32    33    1
     7    33    34    1
     8     5     6    1
     9     6     7    2
    10     6     8   am
    11     8     9    1
    12     8    10    1
    13    10    11    1
    14    10    12    1
    15    12    13    2
    16    12    14   am
    17    14    15    1
    18    15    35    1
    19    35    36    1
    20    36    37   ar
    21    37    38   ar
    22    38    39   ar
    23    39    40    1
    24    39    41   ar
    25    41    42   ar
    26    15    16    1
    27    16    17    2
    28    16    18   am
    29    18    19    1
    30    19    20    1
    31    20    21    1
    32    21    22    1
    33    22    23   ar
    34    23    24   ar
    35    24    25   ar
    36    25    26   ar
    37    26    27   ar
    38    27    28    1
    39    28     2    1
    40    34    32    1
    41    42    36   ar
    42    27    22   ar
    43     4    29    1
    44    14    30    1
    45    18    31    1
@<TRIPOS>MOLECULE
*****
 42 45 0 0 0
SMALL
GASTEIGER

@<TRIPOS>ATOM
      1 C          -0.2705    2.5600   20.6843 C.3     1  UNL1        0.0487
      2 C           0.6741    1.8043   21.5712 C.3     1  UNL1        0.1816
      3 C           1.6029    1.2369   20.5390 C.3     1  UNL1        0.1129
      4 N           2.7477    0.4756   19.9393 N.3     1  UNL1       -0.2883
      5 C           3.9705   -0.3880   19.8445 C.3     1  UNL1        0.1317
      6 C           5.1238   -1.2496   20.2659 C.2     1  UNL1        0.2403
      7 O           5.7245   -1.5545   18.9256 O.2     1  UNL1       -0.2734
      8 N           6.0685   -2.0053   21.1528 N.am    1  UNL1       -0.2701
      9 C           6.9973   -2.5727   20.1206 C.3     1  UNL1        0.1153
     10 C           6.6906   -2.5640   22.3981 C.3     1  UNL1        0.1519
     11 C           7.8354   -3.3253   21.7984 C.3     1  UNL1        0.0314
     12 C           6.9151   -2.8582   23.8517 C.2     1  UNL1        0.2409
     13 O           8.1379   -3.7218   23.7569 O.2     1  UNL1       -0.2733
     14 N           6.7148   -2.8525   25.3383 N.am    1  UNL1       -0.2967
     15 C           6.1141   -2.5476   26.6785 C.3     1  UNL1        0.1530
     16 C           5.1854   -1.9803   27.7107 C.2     1  UNL1        0.2407
     17 O           5.8074   -2.5389   28.9560 O.2     1  UNL1       -0.2733
     18 N           4.0405   -1.2189   28.3104 N.am    1  UNL1       -0.3030
     19 C           2.8177   -0.3553   28.4053 C.3     1  UNL1        0.0898
     20 C           1.6644    0.5063   27.9839 C.3     1  UNL1        0.0260
     21 C           0.7198    1.2620   27.0969 C.3     1  UNL1        0.0312
     22 C           0.0977    1.8207   25.8516 C.ar    1  UNL1        0.0118
     23 C          -0.8311    2.3880   26.8838 C.ar    1  UNL1       -0.0013
     24 C          -1.9844    3.2496   26.4624 C.ar    1  UNL1       -0.0001
     25 C          -2.2089    3.5438   25.0088 C.ar    1  UNL1        0.0031
     26 C          -1.2801    2.9765   23.9766 C.ar    1  UNL1        0.0366
     27 C          -0.1268    2.1149   24.3980 C.ar    1  UNL1        0.1344
     28 O           0.0734    2.1092   22.9115 O.3     1  UNL1       -0.4781
     29 H           3.1419    1.2672   19.4310 H       1  UNL1        0.1237
     30 H           7.4718   -3.4180   25.6149 H       1  UNL1        0.1499
     31 H           4.1879   -1.4120   29.2645 H       1  UNL1        0.1495
     32 C           4.1707   -0.3937   18.3579 C.3     1  UNL1        0.0233
     33 C           4.8653    0.1364   17.1386 C.3     1  UNL1        0.0019
     34 C           3.8229   -0.9335   17.0023 C.3     1  UNL1        0.0019
     35 C           7.0588   -3.3033   27.5654 C.3     1  UNL1        0.0553
     36 C           7.5630   -4.6526   27.1470 C.ar    1  UNL1       -0.0199
     37 C           6.5986   -5.7829   26.9409 C.ar    1  UNL1       -0.0019
     38 C           7.1029   -7.1322   26.5225 C.ar    1  UNL1        0.0293
     39 C           8.5715   -7.3514   26.3103 C.ar    1  UNL1        0.1401
     40 F           9.0758   -8.7007   25.8919 F       1  UNL1       -0.2042
     41 C           9.5359   -6.2211   26.5164 C.ar    1  UNL1        0.0293
     42 C           9.0317   -4.8718   26.9348 C.ar    1  UNL1       -0.0019
@<TRIPOS>BOND
     1     2     1    1
     2     2     3    1
     3     3     4    1
     4     4     5    1
     5     5    32    1
     6    32    33    1
     7    33    34    1
     8     5     6    1
     9     6     7    2
    10     6     8   am
    11     8     9    1
    12     8    10    1
    13    10    11    1
    14    10    12    1
    15    12    13    2
    16    12    14   am
    17    14    15    1
    18    15    35    1
    19    35    36    1
    20    36    37   ar
    21    37    38   ar
    22    38    39   ar
    23    39    40    1
    24    39    41   ar
    25    41    42   ar
    26    15    16    1
    27    16    17    2
    28    16    18   am
    29    18    19    1
    30    19    20    1
    31    20    21    1
    32    21    22    1
    33    22    23   ar
    34    23    24   ar
    35    24    25   ar
    36    25    26   ar
    37    26    27   ar
    38    27    28    1
    39    28     2    1
    40    34    32    1
    41    42    36   ar
    42    27    22   ar
    43     4    29    1
    44    14    30    1
    45    18    31    1
@<TRIPOS>MOLECULE
*****
 42 45 0 0 0
SMALL
GASTEIGER

@<TRIPOS>ATOM
      1 C           5.4664   -1.9993   32.7348 C.3     1  UNL1        0.0487
      2 C           5.2256   -1.9785   31.2544 C.3     1  UNL1        0.1816
      3 C           4.2101   -0.8776   31.1712 C.3     1  UNL1        0.1129
      4 N           3.2333    0.0977   30.5840 N.3     1  UNL1       -0.2883
      5 C           2.4133    0.8298   29.5634 C.3     1  UNL1        0.1317
      6 C           1.8488    1.2304   28.2327 C.2     1  UNL1        0.2403
      7 O           0.9169    2.3240   28.6637 O.2     1  UNL1       -0.2734
      8 N           1.6080    1.2513   26.7523 N.am    1  UNL1       -0.2701
      9 C           0.5924    2.3522   26.6691 C.3     1  UNL1        0.1153
     10 C           1.7198    0.8900   25.3008 C.3     1  UNL1        0.1519
     11 C           0.7431    1.8653   24.7135 C.3     1  UNL1        0.0314
     12 C           2.1709    0.1899   24.0532 C.2     1  UNL1        0.2409
     13 O           1.3509    0.9220   23.0327 O.2     1  UNL1       -0.2733
     14 N           2.9068   -0.7645   23.1602 N.am    1  UNL1       -0.2967
     15 C           3.8387   -1.8581   22.7292 C.3     1  UNL1        0.1530
     16 C           4.8543   -2.9588   22.8123 C.2     1  UNL1        0.2407
     17 O           4.9661   -3.3202   21.3608 O.2     1  UNL1       -0.2733
     18 N           5.8310   -3.9341   23.3995 N.am    1  UNL1       -0.3030
     19 C           6.6510   -4.6662   24.4201 C.3     1  UNL1        0.0898
     20 C           7.2155   -5.0669   25.7509 C.3     1  UNL1        0.0260
     21 C           7.4563   -5.0878   27.2312 C.3     1  UNL1        0.0312
     22 C           7.3445   -4.7264   28.6827 C.ar    1  UNL1        0.0118
     23 C           8.3600   -5.8272   28.7659 C.ar    1  UNL1       -0.0013
     24 C           8.9245   -6.2279   30.0966 C.ar    1  UNL1       -0.0001
     25 C           8.4734   -5.5278   31.3441 C.ar    1  UNL1        0.0031
     26 C           7.4579   -4.4270   31.2610 C.ar    1  UNL1        0.0366
     27 C           6.8934   -4.0263   29.9303 C.ar    1  UNL1        0.1344
     28 O           6.1575   -3.0719   30.8234 O.3     1  UNL1       -0.4781
     29 H           3.6681    0.9301   30.9821 H       1  UNL1        0.1237
     30 H           2.5363   -0.5015   22.2867 H       1  UNL1        0.1499
     31 H           6.1270   -4.3936   22.5807 H       1  UNL1        0.1495
     32 C           1.6775    1.7841   30.4565 C.3     1  UNL1        0.0233
     33 C           1.5546    3.1382   31.0902 C.3     1  UNL1        0.0019
     34 C           0.5257    2.0832   31.3699 C.3     1  UNL1        0.0019
     35 C           3.5979   -1.8371   21.2487 C.3     1  UNL1        0.0553
     36 C           2.9191   -0.6587   20.6159 C.ar    1  UNL1       -0.0199
     37 C           3.6547    0.6400   20.4673 C.ar    1  UNL1       -0.0019
     38 C           2.9759    1.8184   19.8345 C.ar    1  UNL1        0.0293
     39 C           1.5612    1.6981   19.3502 C.ar    1  UNL1        0.1401
     40 F           0.8824    2.8766   18.7174 F       1  UNL1       -0.2042
     41 C           0.8256    0.3994   19.4988 C.ar    1  UNL1        0.0293
     42 C           1.5044   -0.7790   20.1317 C.ar    1  UNL1       -0.0019
@<TRIPOS>BOND
     1     2     1    1
     2     2     3    1
     3     3     4    1
     4     4     5    1
     5     5    32    1
     6    32    33    1
     7    33    34    1
     8     5     6    1
     9     6     7    2
    10     6     8   am
    11     8     9    1
    12     8    10    1
    13    10    11    1
    14    10    12    1
    15    12    13    2
    16    12    14   am
    17    14    15    1
    18    15    35    1
    19    35    36    1
    20    36    37   ar
    21    37    38   ar
    22    38    39   ar
    23    39    40    1
    24    39    41   ar
    25    41    42   ar
    26    15    16    1
    27    16    17    2
    28    16    18   am
    29    18    19    1
    30    19    20    1
    31    20    21    1
    32    21    22    1
    33    22    23   ar
    34    23    24   ar
    35    24    25   ar
    36    25    26   ar
    37    26    27   ar
    38    27    28    1
    39    28     2    1
    40    34    32    1
    41    42    36   ar
    42    27    22   ar
    43     4    29    1
    44    14    30    1
    45    18    31    1
@<TRIPOS>MOLECULE
*****
 42 45 0 0 0
SMALL
GASTEIGER

@<TRIPOS>ATOM
      1 C           0.7238    0.6137   20.9947 C.3     1  UNL1        0.0487
      2 C           1.4644    0.2351   22.2429 C.3     1  UNL1        0.1816
      3 C           0.7820    1.1323   23.2327 C.3     1  UNL1        0.1129
      4 N           0.4392    1.7898   24.5366 N.3     1  UNL1       -0.2883
      5 C           0.4772    2.1283   25.9974 C.3     1  UNL1        0.1317
      6 C           0.8914    2.1070   27.4389 C.2     1  UNL1        0.2403
      7 O          -0.0481    3.1356   27.9951 O.2     1  UNL1       -0.2734
      8 N           1.6320    1.7285   28.6873 N.am    1  UNL1       -0.2701
      9 C           0.9496    2.6256   29.6771 C.3     1  UNL1        0.1153
     10 C           2.6094    1.0384   29.5920 C.3     1  UNL1        0.1519
     11 C           2.2666    1.6959   30.8959 C.3     1  UNL1        0.0314
     12 C           3.7060    0.1200   30.0437 C.2     1  UNL1        0.2409
     13 O           3.7440    0.4585   31.5045 O.2     1  UNL1       -0.2733
     14 N           4.7893   -0.9159   29.9881 N.am    1  UNL1       -0.2967
     15 C           5.7289   -1.9445   29.4319 C.3     1  UNL1        0.1530
     16 C           6.4112   -2.8416   28.4422 C.2     1  UNL1        0.2407
     17 O           7.3886   -3.5317   29.3467 O.2     1  UNL1       -0.2733
     18 N           6.7540   -3.4991   27.1383 N.am    1  UNL1       -0.3030
     19 C           6.7160   -3.8376   25.6775 C.3     1  UNL1        0.0898
     20 C           6.3018   -3.8164   24.2359 C.3     1  UNL1        0.0260
     21 C           5.5612   -3.4378   22.9876 C.3     1  UNL1        0.0312
     22 C           4.5838   -2.7478   22.0830 C.ar    1  UNL1        0.0118
     23 C           5.2661   -3.6449   21.0933 C.ar    1  UNL1       -0.0013
     24 C           4.8519   -3.6236   19.6518 C.ar    1  UNL1       -0.0001
     25 C           3.7553   -2.7052   19.2000 C.ar    1  UNL1        0.0031
     26 C           3.0730   -1.8081   20.1897 C.ar    1  UNL1        0.0366
     27 C           3.4872   -1.8294   21.6312 C.ar    1  UNL1        0.1344
     28 O           2.4039   -0.7934   21.6868 O.3     1  UNL1       -0.4781
     29 H          -0.5531    1.5547   24.5119 H       1  UNL1        0.1237
     30 H           5.0612   -0.9299   30.9342 H       1  UNL1        0.1499
     31 H           7.4737   -4.1019   27.4348 H       1  UNL1        0.1495
     32 C          -0.6062    3.1642   26.0530 C.3     1  UNL1        0.0233
     33 C          -1.0316    4.6022   26.0169 C.3     1  UNL1        0.0019
     34 C          -2.0572    3.5207   26.1853 C.3     1  UNL1        0.0019
     35 C           6.4694   -2.3230   30.6803 C.3     1  UNL1        0.0553
     36 C           5.9730   -1.8575   32.0170 C.ar    1  UNL1       -0.0199
     37 C           6.6699   -0.7346   32.7264 C.ar    1  UNL1       -0.0019
     38 C           6.1735   -0.2691   34.0632 C.ar    1  UNL1        0.0293
     39 C           4.9801   -0.9266   34.6906 C.ar    1  UNL1        0.1401
     40 F           4.4837   -0.4611   36.0273 F       1  UNL1       -0.2042
     41 C           4.2832   -2.0496   33.9811 C.ar    1  UNL1        0.0293
     42 C           4.7796   -2.5151   32.6444 C.ar    1  UNL1       -0.0019
@<TRIPOS>BOND
     1     2     1    1
     2     2     3    1
     3     3     4    1
     4     4     5    1
     5     5    32    1
     6    32    33    1
     7    33    34    1
     8     5     6    1
     9     6     7    2
    10     6     8   am
    11     8     9    1
    12     8    10    1
    13    10    11    1
    14    10    12    1
    15    12    13    2
    16    12    14   am
    17    14    15    1
    18    15    35    1
    19    35    36    1
    20    36    37   ar
    21    37    38   ar
    22    38    39   ar
    23    39    40    1
    24    39    41   ar
    25    41    42   ar
    26    15    16    1
    27    16    17    2
    28    16    18   am
    29    18    19    1
    30    19    20    1
    31    20    21    1
    32    21    22    1
    33    22    23   ar
    34    23    24   ar
    35    24    25   ar
    36    25    26   ar
    37    26    27   ar
    38    27    28    1
    39    28     2    1
    40    34    32    1
    41    42    36   ar
    42    27    22   ar
    43     4    29    1
    44    14    30    1
    45    18    31    1
@<TRIPOS>MOLECULE
*****
 42 45 0 0 0
SMALL
GASTEIGER

@<TRIPOS>ATOM
      1 C           2.7527   -0.5821   22.0310 C.3     1  UNL1        0.0487
      2 C           3.1341   -0.7657   23.4699 C.3     1  UNL1        0.1816
      3 C           2.1763    0.1901   24.1173 C.3     1  UNL1        0.1129
      4 N           1.4664    0.9669   25.1863 N.3     1  UNL1       -0.2883
      5 C           1.0902    1.4709   26.5480 C.3     1  UNL1        0.1317
      6 C           1.0929    1.6415   28.0383 C.2     1  UNL1        0.2403
      7 O           0.0026    2.6610   28.1858 O.2     1  UNL1       -0.2734
      8 N           1.4744    1.4579   29.4773 N.am    1  UNL1       -0.2701
      9 C           0.5165    2.4137   30.1247 C.3     1  UNL1        0.1153
     10 C           2.1884    0.9425   30.6916 C.3     1  UNL1        0.1519
     11 C           1.4786    1.7193   31.7606 C.3     1  UNL1        0.0314
     12 C           3.1491    0.1573   31.5346 C.2     1  UNL1        0.2409
     13 O           2.7728    0.6613   32.8963 O.2     1  UNL1       -0.2733
     14 N           4.2404   -0.8030   31.9045 N.am    1  UNL1       -0.2967
     15 C           5.3307   -1.8225   31.7570 C.3     1  UNL1        0.1530
     16 C           6.2886   -2.7783   31.1098 C.2     1  UNL1        0.2407
     17 O           7.0027   -3.2937   32.3239 O.2     1  UNL1       -0.2733
     18 N           6.9985   -3.5550   30.0408 N.am    1  UNL1       -0.3030
     19 C           7.3747   -4.0591   28.6790 C.3     1  UNL1        0.0898
     20 C           7.3719   -4.2296   27.1887 C.3     1  UNL1        0.0260
     21 C           6.9904   -4.0461   25.7497 C.3     1  UNL1        0.0312
     22 C           6.2764   -3.5307   24.5355 C.ar    1  UNL1        0.0118
     23 C           7.2343   -4.4864   23.8882 C.ar    1  UNL1       -0.0013
     24 C           7.2315   -4.6569   22.3980 C.ar    1  UNL1       -0.0001
     25 C           6.2708   -3.8717   21.5550 C.ar    1  UNL1        0.0031
     26 C           5.3130   -2.9160   22.2022 C.ar    1  UNL1        0.0366
     27 C           5.3158   -2.7454   23.6925 C.ar    1  UNL1        0.1344
     28 O           4.2245   -1.7851   23.3225 O.3     1  UNL1       -0.4781
     29 H           0.5276    0.6643   24.9263 H       1  UNL1        0.1237
     30 H           4.2422   -0.6911   32.8827 H       1  UNL1        0.1499
     31 H           7.6289   -4.0704   30.5941 H       1  UNL1        0.1495
     32 C          -0.0011    2.4312   26.1780 C.3     1  UNL1        0.0233
     33 C          -0.4467    3.8219   25.8351 C.3     1  UNL1        0.0019
     34 C          -1.4457    2.7039   25.8799 C.3     1  UNL1        0.0019
     35 C           5.7122   -2.0061   33.1961 C.3     1  UNL1        0.0553
     36 C           5.7631   -0.8219   34.1154 C.ar    1  UNL1       -0.0199
     37 C           4.8520   -0.7562   35.3052 C.ar    1  UNL1       -0.0019
     38 C           4.9029    0.4280   36.2244 C.ar    1  UNL1        0.0293
     39 C           5.8649    1.5466   35.9539 C.ar    1  UNL1        0.1401
     40 F           5.9158    2.7308   36.8732 F       1  UNL1       -0.2042
     41 C           6.7760    1.4810   34.7641 C.ar    1  UNL1        0.0293
     42 C           6.7251    0.2968   33.8448 C.ar    1  UNL1       -0.0019
@<TRIPOS>BOND
     1     2     1    1
     2     2     3    1
     3     3     4    1
     4     4     5    1
     5     5    32    1
     6    32    33    1
     7    33    34    1
     8     5     6    1
     9     6     7    2
    10     6     8   am
    11     8     9    1
    12     8    10    1
    13    10    11    1
    14    10    12    1
    15    12    13    2
    16    12    14   am
    17    14    15    1
    18    15    35    1
    19    35    36    1
    20    36    37   ar
    21    37    38   ar
    22    38    39   ar
    23    39    40    1
    24    39    41   ar
    25    41    42   ar
    26    15    16    1
    27    16    17    2
    28    16    18   am
    29    18    19    1
    30    19    20    1
    31    20    21    1
    32    21    22    1
    33    22    23   ar
    34    23    24   ar
    35    24    25   ar
    36    25    26   ar
    37    26    27   ar
    38    27    28    1
    39    28     2    1
    40    34    32    1
    41    42    36   ar
    42    27    22   ar
    43     4    29    1
    44    14    30    1
    45    18    31    1
@<TRIPOS>MOLECULE
*****
 42 45 0 0 0
SMALL
GASTEIGER

@<TRIPOS>ATOM
      1 C           8.4980   -7.0044   24.9131 C.3     1  UNL1        0.0487
      2 C           7.6699   -5.8922   25.4850 C.3     1  UNL1        0.1816
      3 C           7.0612   -5.3472   24.2270 C.3     1  UNL1        0.1129
      4 N           6.2384   -4.4817   23.3193 N.3     1  UNL1       -0.2883
      5 C           5.3006   -3.4001   22.8715 C.3     1  UNL1        0.1317
      6 C           4.3610   -2.2327   22.9376 C.2     1  UNL1        0.2403
      7 O           4.0399   -2.0741   21.4809 O.2     1  UNL1       -0.2734
      8 N           3.5328   -1.1204   23.5095 N.am    1  UNL1       -0.2701
      9 C           2.9241   -0.5755   22.2515 C.3     1  UNL1        0.1153
     10 C           2.9160   -0.1974   24.5182 C.3     1  UNL1        0.1519
     11 C           2.0932    0.6681   23.6106 C.3     1  UNL1        0.0314
     12 C           2.5850    0.4250   25.8423 C.2     1  UNL1        0.2409
     13 O           1.6472    1.5067   25.3945 O.2     1  UNL1       -0.2733
     14 N           2.5798    0.6717   27.3218 N.am    1  UNL1       -0.2967
     15 C           2.9009    0.5130   28.7785 C.3     1  UNL1        0.1530
     16 C           3.5095   -0.0319   30.0365 C.2     1  UNL1        0.2407
     17 O           2.8928    0.8911   31.0452 O.2     1  UNL1       -0.2733
     18 N           4.3323   -0.8973   30.9441 N.am    1  UNL1       -0.3030
     19 C           5.2701   -1.9790   31.3919 C.3     1  UNL1        0.0898
     20 C           6.2098   -3.1464   31.3259 C.3     1  UNL1        0.0260
     21 C           7.0379   -4.2586   30.7540 C.3     1  UNL1        0.0312
     22 C           7.6547   -5.1817   29.7452 C.ar    1  UNL1        0.0118
     23 C           8.2633   -5.7266   31.0032 C.ar    1  UNL1       -0.0013
     24 C           9.2029   -6.8939   30.9372 C.ar    1  UNL1       -0.0001
     25 C           9.5339   -7.5163   29.6132 C.ar    1  UNL1        0.0031
     26 C           8.9253   -6.9714   28.3552 C.ar    1  UNL1        0.0366
     27 C           7.9857   -5.8041   28.4212 C.ar    1  UNL1        0.1344
     28 O           7.9909   -6.0508   26.9417 O.3     1  UNL1       -0.4781
     29 H           5.7253   -5.2485   22.8843 H       1  UNL1        0.1237
     30 H           1.9631    1.4379   27.3652 H       1  UNL1        0.1499
     31 H           4.1151   -0.4888   31.8131 H       1  UNL1        0.1495
     32 C           5.3059   -3.6468   21.3920 C.3     1  UNL1        0.0233
     33 C           4.6589   -4.2274   20.1695 C.3     1  UNL1        0.0019
     34 C           5.9619   -3.4937   20.0517 C.3     1  UNL1        0.0019
     35 C           2.0727    1.6253   29.3504 C.3     1  UNL1        0.0553
     36 C           0.8711    2.1255   28.6047 C.ar    1  UNL1       -0.0199
     37 C           0.8295    3.5420   28.1130 C.ar    1  UNL1       -0.0019
     38 C          -0.3720    4.0422   27.3673 C.ar    1  UNL1        0.0293
     39 C          -1.5322    3.1258   27.1134 C.ar    1  UNL1        0.1401
     40 F          -2.7337    3.6260   26.3677 F       1  UNL1       -0.2042
     41 C          -1.4906    1.7093   27.6051 C.ar    1  UNL1        0.0293
     42 C          -0.2890    1.2091   28.3508 C.ar    1  UNL1       -0.0019
@<TRIPOS>BOND
     1     2     1    1
     2     2     3    1
     3     3     4    1
     4     4     5    1
     5     5    32    1
     6    32    33    1
     7    33    34    1
     8     5     6    1
     9     6     7    2
    10     6     8   am
    11     8     9    1
    12     8    10    1
    13    10    11    1
    14    10    12    1
    15    12    13    2
    16    12    14   am
    17    14    15    1
    18    15    35    1
    19    35    36    1
    20    36    37   ar
    21    37    38   ar
    22    38    39   ar
    23    39    40    1
    24    39    41   ar
    25    41    42   ar
    26    15    16    1
    27    16    17    2
    28    16    18   am
    29    18    19    1
    30    19    20    1
    31    20    21    1
    32    21    22    1
    33    22    23   ar
    34    23    24   ar
    35    24    25   ar
    36    25    26   ar
    37    26    27   ar
    38    27    28    1
    39    28     2    1
    40    34    32    1
    41    42    36   ar
    42    27    22   ar
    43     4    29    1
    44    14    30    1
    45    18    31    1
