@<TRIPOS>MOLECULE
*****
 32 36 0 0 0
SMALL
GASTEIGER

@<TRIPOS>ATOM
      1 C          -7.7714  -19.4776   19.9095 C.ar    1  UNL1        0.0207
      2 C          -8.9784  -19.9858   19.1783 C.ar    1  UNL1        0.0994
      3 N         -10.2923  -19.2753   19.3147 N.ar    1  UNL1       -0.2126
      4 C         -10.3993  -18.0563   20.1823 C.ar    1  UNL1        0.2172
      5 N          -9.1922  -17.5480   20.9136 N.ar    1  UNL1       -0.2126
      6 C          -7.8783  -18.2586   20.7772 C.ar    1  UNL1        0.0994
      7 N         -11.7132  -17.3458   20.3187 N.pl3   1  UNL1       -0.2978
      8 H         -12.2439  -17.1340   19.5169 H       1  UNL1        0.1500
      9 C         -12.2187  -16.9578   21.6766 C.3     1  UNL1        0.1360
     10 C         -11.5107  -17.4423   22.9070 C.ar    1  UNL1        0.0802
     11 C         -12.0031  -18.6647   23.6233 C.ar    1  UNL1        0.0165
     12 C         -11.2951  -19.1493   24.8537 C.ar    1  UNL1        0.0041
     13 C         -10.0946  -18.4114   25.3678 C.ar    1  UNL1        0.0343
     14 C          -9.6021  -17.1890   24.6514 C.ar    1  UNL1        0.1315
     15 N         -10.3101  -16.7045   23.4211 N.ar    1  UNL1       -0.2333
     16 N          -8.4016  -16.4511   25.1656 N.pl3   1  UNL1       -0.2881
     17 C          -7.3530  -15.9658   24.2089 C.3     1  UNL1        0.1242
     18 C          -6.1525  -15.2280   24.7231 C.3     1  UNL1        0.1636
     19 O          -6.0005  -14.9754   26.1938 O.3     1  UNL1       -0.3501
     20 C          -7.0490  -15.4607   27.1504 C.3     1  UNL1        0.1636
     21 C          -8.2495  -16.1986   26.6363 C.3     1  UNL1        0.1242
     22 C          -6.4574  -20.1881   19.7732 C.3     1  UNL1        0.0596
     23 C          -1.4324  -17.7662   17.8560 C.3     1  UNL1        0.0307
     24 C          -2.0328  -18.2543   19.1410 C.2     1  UNL1        0.0074
     25 C          -1.2462  -18.1715   20.4155 C.2     1  UNL1        0.2278
     26 N          -1.8466  -18.6596   21.7005 N.2     1  UNL1       -0.0314
     27 C          -3.2336  -19.2305   21.7111 C.2     1  UNL1        0.3716
     28 N          -4.0818  -19.7865   22.8163 N.2     1  UNL1       -0.0311
     29 C          -5.3927  -20.2128   22.2248 C.2     1  UNL1        0.2319
     30 C          -5.3547  -19.9205   20.7541 C.2     1  UNL1        0.0328
     31 C          -4.0202  -19.3133   20.4366 C.2     1  UNL1        0.0704
     32 C          -3.4198  -18.8252   19.1516 C.3     1  UNL1        0.0598
@<TRIPOS>BOND
     1    23    24    1
     2    24    25    2
     3    25    26    1
     4    26    27    2
     5    27    28    1
     6    28    29    2
     7    29    30    1
     8    30    22    1
     9    22     1    1
    10     1     2   ar
    11     2     3   ar
    12     3     4   ar
    13     4     7    1
    14     7     9    1
    15     9    10    1
    16    10    11   ar
    17    11    12   ar
    18    12    13   ar
    19    13    14   ar
    20    14    16    1
    21    16    17    1
    22    17    18    1
    23    18    19    1
    24    19    20    1
    25    20    21    1
    26    14    15   ar
    27     4     5   ar
    28     5     6   ar
    29    30    31    2
    30    31    32    1
    31    32    24    1
    32    31    27    1
    33     6     1   ar
    34    15    10   ar
    35    21    16    1
    36     7     8    1
@<TRIPOS>MOLECULE
*****
 32 36 0 0 0
SMALL
GASTEIGER

@<TRIPOS>ATOM
      1 C          -7.9975  -20.0174   19.5852 C.ar    1  UNL1        0.0207
      2 C          -7.3341  -21.3612   19.6472 C.ar    1  UNL1        0.0994
      3 N          -5.8816  -21.4648   20.0070 N.ar    1  UNL1       -0.2126
      4 C          -5.0924  -20.2244   20.3049 C.ar    1  UNL1        0.2172
      5 N          -5.7559  -18.8805   20.2428 N.ar    1  UNL1       -0.2126
      6 C          -7.2084  -18.7769   19.8830 C.ar    1  UNL1        0.0994
      7 N          -3.6399  -20.3279   20.6647 N.pl3   1  UNL1       -0.2978
      8 H          -3.0066  -20.7486   20.0392 H       1  UNL1        0.1500
      9 C          -3.1523  -19.7905   21.9774 C.3     1  UNL1        0.1360
     10 C          -3.3276  -18.3371   22.3045 C.ar    1  UNL1        0.0802
     11 C          -2.4196  -17.3148   21.6879 C.ar    1  UNL1        0.0165
     12 C          -2.5949  -15.8614   22.0149 C.ar    1  UNL1        0.0041
     13 C          -3.6782  -15.4303   22.9586 C.ar    1  UNL1        0.0343
     14 C          -4.5862  -16.4528   23.5753 C.ar    1  UNL1        0.1315
     15 N          -4.4109  -17.9061   23.2482 N.ar    1  UNL1       -0.2333
     16 N          -5.6696  -16.0217   24.5190 N.pl3   1  UNL1       -0.2881
     17 C          -5.3596  -15.8130   25.9718 C.3     1  UNL1        0.1242
     18 C          -6.4428  -15.3819   26.9154 C.3     1  UNL1        0.1636
     19 O          -7.8362  -15.1596   26.4065 O.3     1  UNL1       -0.3501
     20 C          -8.1463  -15.3683   24.9538 C.3     1  UNL1        0.1636
     21 C          -7.0629  -15.7994   24.0101 C.3     1  UNL1        0.1242
     22 C          -9.4500  -19.9138   19.2254 C.3     1  UNL1        0.0596
     23 C          -9.9315  -20.7185   25.0488 C.3     1  UNL1        0.0307
     24 C         -10.4769  -19.8127   23.9848 C.2     1  UNL1        0.0074
     25 C         -11.4513  -18.7315   24.3473 C.2     1  UNL1        0.2278
     26 N         -11.9966  -17.8257   23.2832 N.2     1  UNL1       -0.0314
     27 C         -11.5676  -18.0013   21.8567 C.2     1  UNL1        0.3716
     28 N         -11.9326  -17.2662   20.6011 N.2     1  UNL1       -0.0311
     29 C         -11.1837  -17.8932   19.4626 C.2     1  UNL1        0.2319
     30 C         -10.3560  -19.0157   20.0145 C.2     1  UNL1        0.0328
     31 C         -10.5933  -19.0825   21.4942 C.2     1  UNL1        0.0704
     32 C         -10.0479  -19.9883   22.5582 C.3     1  UNL1        0.0598
@<TRIPOS>BOND
     1    23    24    1
     2    24    25    2
     3    25    26    1
     4    26    27    2
     5    27    28    1
     6    28    29    2
     7    29    30    1
     8    30    22    1
     9    22     1    1
    10     1     2   ar
    11     2     3   ar
    12     3     4   ar
    13     4     7    1
    14     7     9    1
    15     9    10    1
    16    10    11   ar
    17    11    12   ar
    18    12    13   ar
    19    13    14   ar
    20    14    16    1
    21    16    17    1
    22    17    18    1
    23    18    19    1
    24    19    20    1
    25    20    21    1
    26    14    15   ar
    27     4     5   ar
    28     5     6   ar
    29    30    31    2
    30    31    32    1
    31    32    24    1
    32    31    27    1
    33     6     1   ar
    34    15    10   ar
    35    21    16    1
    36     7     8    1
@<TRIPOS>MOLECULE
*****
 32 36 0 0 0
SMALL
GASTEIGER

@<TRIPOS>ATOM
      1 C          -3.6402  -16.7212   23.6958 C.ar    1  UNL1        0.0207
      2 C          -4.3449  -15.6734   22.8863 C.ar    1  UNL1        0.0994
      3 N          -5.5473  -14.9743   23.4480 N.ar    1  UNL1       -0.2126
      4 C          -6.0450  -15.3231   24.8194 C.ar    1  UNL1        0.2172
      5 N          -5.3402  -16.3710   25.6290 N.ar    1  UNL1       -0.2126
      6 C          -4.1378  -17.0700   25.0672 C.ar    1  UNL1        0.0994
      7 N          -7.2474  -14.6241   25.3811 N.pl3   1  UNL1       -0.2978
      8 H          -7.3599  -13.6550   25.2489 H       1  UNL1        0.1500
      9 C          -8.2785  -15.4015   26.1443 C.3     1  UNL1        0.1360
     10 C          -9.0050  -16.5347   25.4824 C.ar    1  UNL1        0.0802
     11 C          -9.2336  -17.8162   26.2277 C.ar    1  UNL1        0.0165
     12 C          -9.9601  -18.9494   25.5658 C.ar    1  UNL1        0.0041
     13 C         -10.4580  -18.8011   24.1586 C.ar    1  UNL1        0.0343
     14 C         -10.2293  -17.5195   23.4134 C.ar    1  UNL1        0.1315
     15 N          -9.5028  -16.3864   24.0753 N.ar    1  UNL1       -0.2333
     16 N         -10.7272  -17.3713   22.0062 N.pl3   1  UNL1       -0.2881
     17 C         -10.4726  -18.4563   21.0022 C.3     1  UNL1        0.1242
     18 C         -10.9704  -18.3080   19.5951 C.3     1  UNL1        0.1636
     19 O         -11.7229  -17.0747   19.1918 O.3     1  UNL1       -0.3501
     20 C         -11.9775  -15.9896   20.1957 C.3     1  UNL1        0.1636
     21 C         -11.4797  -16.1379   21.6029 C.3     1  UNL1        0.1242
     22 C          -2.4378  -17.4202   23.1341 C.3     1  UNL1        0.0596
     23 C          -7.5293  -20.2891   22.3354 C.3     1  UNL1        0.0307
     24 C          -6.1899  -20.1594   21.6728 C.2     1  UNL1        0.0074
     25 C          -5.8967  -20.9262   20.4174 C.2     1  UNL1        0.2278
     26 N          -4.5573  -20.7965   19.7548 N.2     1  UNL1       -0.0314
     27 C          -3.5110  -19.9000   20.3476 C.2     1  UNL1        0.3716
     28 N          -2.1104  -19.5734   19.9213 N.2     1  UNL1       -0.0311
     29 C          -1.5379  -18.6047   20.9133 C.2     1  UNL1        0.2319
     30 C          -2.5846  -18.3326   21.9526 C.2     1  UNL1        0.0328
     31 C          -3.8041  -19.1331   21.6029 C.2     1  UNL1        0.0704
     32 C          -5.1435  -19.2628   22.2655 C.3     1  UNL1        0.0598
@<TRIPOS>BOND
     1    23    24    1
     2    24    25    2
     3    25    26    1
     4    26    27    2
     5    27    28    1
     6    28    29    2
     7    29    30    1
     8    30    22    1
     9    22     1    1
    10     1     2   ar
    11     2     3   ar
    12     3     4   ar
    13     4     7    1
    14     7     9    1
    15     9    10    1
    16    10    11   ar
    17    11    12   ar
    18    12    13   ar
    19    13    14   ar
    20    14    16    1
    21    16    17    1
    22    17    18    1
    23    18    19    1
    24    19    20    1
    25    20    21    1
    26    14    15   ar
    27     4     5   ar
    28     5     6   ar
    29    30    31    2
    30    31    32    1
    31    32    24    1
    32    31    27    1
    33     6     1   ar
    34    15    10   ar
    35    21    16    1
    36     7     8    1
@<TRIPOS>MOLECULE
*****
 32 36 0 0 0
SMALL
GASTEIGER

@<TRIPOS>ATOM
      1 C         -13.7695   -7.8383   17.4347 C.ar    1  UNL1        0.0207
      2 C         -12.5552   -8.0379   16.5771 C.ar    1  UNL1        0.0994
      3 N         -11.2086   -7.5973   17.0696 N.ar    1  UNL1       -0.2126
      4 C         -11.0763   -6.9570   18.4196 C.ar    1  UNL1        0.2172
      5 N         -12.2908   -6.7574   19.2772 N.ar    1  UNL1       -0.2126
      6 C         -13.6374   -7.1981   18.7847 C.ar    1  UNL1        0.0994
      7 N          -9.7297   -6.5164   18.9120 N.pl3   1  UNL1       -0.2978
      8 H          -9.0182   -7.1805   19.0601 H       1  UNL1        0.1500
      9 C          -9.4672   -5.0639   19.1789 C.3     1  UNL1        0.1360
     10 C         -10.0309   -4.0191   18.2621 C.ar    1  UNL1        0.0802
     11 C          -9.4367   -3.8171   16.8997 C.ar    1  UNL1        0.0165
     12 C         -10.0004   -2.7722   15.9829 C.ar    1  UNL1        0.0041
     13 C         -11.1585   -1.9294   16.4284 C.ar    1  UNL1        0.0343
     14 C         -11.7527   -2.1314   17.7908 C.ar    1  UNL1        0.1315
     15 N         -11.1890   -3.1762   18.7076 N.ar    1  UNL1       -0.2333
     16 N         -12.9108   -1.2886   18.2364 N.pl3   1  UNL1       -0.2881
     17 C         -12.8834    0.1962   18.0243 C.3     1  UNL1        0.1242
     18 C         -14.0414    1.0390   18.4698 C.3     1  UNL1        0.1636
     19 O         -15.2269    0.3972   19.1274 O.3     1  UNL1       -0.3501
     20 C         -15.2545   -1.0875   19.3395 C.3     1  UNL1        0.1636
     21 C         -14.0964   -1.9304   18.8940 C.3     1  UNL1        0.1242
     22 C         -15.1161   -8.2790   16.9422 C.3     1  UNL1        0.0596
     23 C         -19.4082   -5.2228   19.5935 C.3     1  UNL1        0.0307
     24 C         -18.8942   -6.6308   19.5356 C.2     1  UNL1        0.0074
     25 C         -19.5644   -7.7073   20.3367 C.2     1  UNL1        0.2278
     26 N         -19.0504   -9.1153   20.2788 N.2     1  UNL1       -0.0314
     27 C         -17.8662   -9.4468   19.4199 C.2     1  UNL1        0.3716
     28 N         -17.1409  -10.7345   19.1640 N.2     1  UNL1       -0.0311
     29 C         -16.0224  -10.4538   18.2047 C.2     1  UNL1        0.2319
     30 C         -16.0565   -8.9926   17.8677 C.2     1  UNL1        0.0328
     31 C         -17.1961   -8.3702   18.6188 C.2     1  UNL1        0.0704
     32 C         -17.7101   -6.9622   18.6766 C.3     1  UNL1        0.0598
@<TRIPOS>BOND
     1    23    24    1
     2    24    25    2
     3    25    26    1
     4    26    27    2
     5    27    28    1
     6    28    29    2
     7    29    30    1
     8    30    22    1
     9    22     1    1
    10     1     2   ar
    11     2     3   ar
    12     3     4   ar
    13     4     7    1
    14     7     9    1
    15     9    10    1
    16    10    11   ar
    17    11    12   ar
    18    12    13   ar
    19    13    14   ar
    20    14    16    1
    21    16    17    1
    22    17    18    1
    23    18    19    1
    24    19    20    1
    25    20    21    1
    26    14    15   ar
    27     4     5   ar
    28     5     6   ar
    29    30    31    2
    30    31    32    1
    31    32    24    1
    32    31    27    1
    33     6     1   ar
    34    15    10   ar
    35    21    16    1
    36     7     8    1
@<TRIPOS>MOLECULE
*****
 32 36 0 0 0
SMALL
GASTEIGER

@<TRIPOS>ATOM
      1 C           4.9482   -3.4514   22.2642 C.ar    1  UNL1        0.0207
      2 C           4.1987   -2.4649   23.1098 C.ar    1  UNL1        0.0994
      3 N           4.7812   -1.9965   24.4102 N.ar    1  UNL1       -0.2126
      4 C           6.1134   -2.5146   24.8652 C.ar    1  UNL1        0.2172
      5 N           6.8629   -3.5012   24.0195 N.ar    1  UNL1       -0.2126
      6 C           6.2803   -3.9696   22.7191 C.ar    1  UNL1        0.0994
      7 N           6.6960   -2.0462   26.1656 N.pl3   1  UNL1       -0.2978
      8 H           6.4035   -1.1913   26.5565 H       1  UNL1        0.1500
      9 C           7.7241   -2.8804   26.8705 C.3     1  UNL1        0.1360
     10 C           7.4653   -3.3700   28.2645 C.ar    1  UNL1        0.0802
     11 C           8.1039   -4.6396   28.7442 C.ar    1  UNL1        0.0165
     12 C           7.8451   -5.1292   30.1382 C.ar    1  UNL1        0.0041
     13 C           6.9477   -4.3492   31.0526 C.ar    1  UNL1        0.0343
     14 C           6.3090   -3.0795   30.5729 C.ar    1  UNL1        0.1315
     15 N           6.5679   -2.5899   29.1789 N.ar    1  UNL1       -0.2333
     16 N           5.4116   -2.2994   31.4872 N.pl3   1  UNL1       -0.2881
     17 C           5.2653   -2.7083   32.9231 C.3     1  UNL1        0.1242
     18 C           4.3679   -1.9283   33.8374 C.3     1  UNL1        0.1636
     19 O           3.6166   -0.7393   33.3160 O.3     1  UNL1       -0.3501
     20 C           3.7628   -0.3304   31.8803 C.3     1  UNL1        0.1636
     21 C           4.6603   -1.1104   30.9659 C.3     1  UNL1        0.1242
     22 C           4.3656   -3.9198   20.9637 C.3     1  UNL1        0.0596
     23 C           0.3448    0.3517   20.3481 C.3     1  UNL1        0.0307
     24 C           1.5313   -0.1971   19.6127 C.2     1  UNL1        0.0074
     25 C           1.9549    0.4142   18.3101 C.2     1  UNL1        0.2278
     26 N           3.1415   -0.1347   17.5747 N.2     1  UNL1       -0.0314
     27 C           3.9045   -1.2948   18.1419 C.2     1  UNL1        0.3716
     28 N           5.1059   -2.0444   17.6471 N.2     1  UNL1       -0.0311
     29 C           5.4248   -3.1189   18.6439 C.2     1  UNL1        0.2319
     30 C           4.4206   -3.0335   19.7548 C.2     1  UNL1        0.0328
     31 C           3.4809   -1.9061   19.4445 C.2     1  UNL1        0.0704
     32 C           2.2944   -1.3573   20.1799 C.3     1  UNL1        0.0598
@<TRIPOS>BOND
     1    23    24    1
     2    24    25    2
     3    25    26    1
     4    26    27    2
     5    27    28    1
     6    28    29    2
     7    29    30    1
     8    30    22    1
     9    22     1    1
    10     1     2   ar
    11     2     3   ar
    12     3     4   ar
    13     4     7    1
    14     7     9    1
    15     9    10    1
    16    10    11   ar
    17    11    12   ar
    18    12    13   ar
    19    13    14   ar
    20    14    16    1
    21    16    17    1
    22    17    18    1
    23    18    19    1
    24    19    20    1
    25    20    21    1
    26    14    15   ar
    27     4     5   ar
    28     5     6   ar
    29    30    31    2
    30    31    32    1
    31    32    24    1
    32    31    27    1
    33     6     1   ar
    34    15    10   ar
    35    21    16    1
    36     7     8    1
@<TRIPOS>MOLECULE
*****
 32 36 0 0 0
SMALL
GASTEIGER

@<TRIPOS>ATOM
      1 C           4.9408   -3.4405   22.1976 C.ar    1  UNL1        0.0207
      2 C           6.2945   -3.9160   22.6348 C.ar    1  UNL1        0.0994
      3 N           6.8686   -3.4485   23.9393 N.ar    1  UNL1       -0.2126
      4 C           6.0888   -2.5053   24.8068 C.ar    1  UNL1        0.2172
      5 N           4.7350   -2.0298   24.3696 N.ar    1  UNL1       -0.2126
      6 C           4.1609   -2.4973   23.0650 C.ar    1  UNL1        0.0994
      7 N           6.6628   -2.0378   26.1113 N.pl3   1  UNL1       -0.2978
      8 H           7.3352   -1.3188   26.1238 H       1  UNL1        0.1500
      9 C           6.2124   -2.6658   27.3969 C.3     1  UNL1        0.1360
     10 C           5.3069   -1.9101   28.3238 C.ar    1  UNL1        0.0802
     11 C           5.6801   -1.7445   29.7671 C.ar    1  UNL1        0.0165
     12 C           4.7746   -0.9889   30.6940 C.ar    1  UNL1        0.0041
     13 C           3.4958   -0.3989   30.1775 C.ar    1  UNL1        0.0343
     14 C           3.1227   -0.5645   28.7341 C.ar    1  UNL1        0.1315
     15 N           4.0282   -1.3201   27.8073 N.ar    1  UNL1       -0.2333
     16 N           1.8439    0.0255   28.2176 N.pl3   1  UNL1       -0.2881
     17 C           0.5610   -0.1955   28.9630 C.3     1  UNL1        0.1242
     18 C          -0.7176    0.3945   28.4465 C.3     1  UNL1        0.1636
     19 O          -0.7135    1.2056   27.1847 O.3     1  UNL1       -0.3501
     20 C           0.5693    1.4266   26.4394 C.3     1  UNL1        0.1636
     21 C           1.8480    0.8366   26.9558 C.3     1  UNL1        0.1242
     22 C           4.3667   -3.9080   20.8931 C.3     1  UNL1        0.0596
     23 C           0.3365    0.3652   20.3562 C.3     1  UNL1        0.0307
     24 C           1.5156   -0.1765   19.6036 C.2     1  UNL1        0.0074
     25 C           1.9249    0.4461   18.3018 C.2     1  UNL1        0.2278
     26 N           3.1040   -0.0955   17.5492 N.2     1  UNL1       -0.0314
     27 C           3.8738   -1.2598   18.0985 C.2     1  UNL1        0.3716
     28 N           5.0704   -2.0041   17.5847 N.2     1  UNL1       -0.0311
     29 C           5.4007   -3.0868   18.5690 C.2     1  UNL1        0.2319
     30 C           4.4083   -3.0116   19.6912 C.2     1  UNL1        0.0328
     31 C           3.4646   -1.8824   19.4004 C.2     1  UNL1        0.0704
     32 C           2.2855   -1.3407   20.1529 C.3     1  UNL1        0.0598
@<TRIPOS>BOND
     1    23    24    1
     2    24    25    2
     3    25    26    1
     4    26    27    2
     5    27    28    1
     6    28    29    2
     7    29    30    1
     8    30    22    1
     9    22     1    1
    10     1     2   ar
    11     2     3   ar
    12     3     4   ar
    13     4     7    1
    14     7     9    1
    15     9    10    1
    16    10    11   ar
    17    11    12   ar
    18    12    13   ar
    19    13    14   ar
    20    14    16    1
    21    16    17    1
    22    17    18    1
    23    18    19    1
    24    19    20    1
    25    20    21    1
    26    14    15   ar
    27     4     5   ar
    28     5     6   ar
    29    30    31    2
    30    31    32    1
    31    32    24    1
    32    31    27    1
    33     6     1   ar
    34    15    10   ar
    35    21    16    1
    36     7     8    1
@<TRIPOS>MOLECULE
*****
 32 36 0 0 0
SMALL
GASTEIGER

@<TRIPOS>ATOM
      1 C         -14.8125   -0.0170   18.6365 C.ar    1  UNL1        0.0207
      2 C         -13.5767    0.6549   18.1158 C.ar    1  UNL1        0.0994
      3 N         -12.2493   -0.0369   18.2128 N.ar    1  UNL1       -0.2126
      4 C         -12.1578   -1.4007   18.8306 C.ar    1  UNL1        0.2172
      5 N         -13.3937   -2.0727   19.3513 N.ar    1  UNL1       -0.2126
      6 C         -14.7211   -1.3809   19.2542 C.ar    1  UNL1        0.0994
      7 N         -10.8304   -2.0926   18.9276 N.pl3   1  UNL1       -0.2978
      8 H         -10.2122   -1.8708   19.6610 H       1  UNL1        0.1500
      9 C         -10.4449   -3.1222   17.9072 C.3     1  UNL1        0.1360
     10 C         -10.6705   -4.5782   18.1887 C.ar    1  UNL1        0.0802
     11 C          -9.4997   -5.4902   18.4064 C.ar    1  UNL1        0.0165
     12 C          -9.7252   -6.9462   18.6879 C.ar    1  UNL1        0.0041
     13 C         -11.1216   -7.4902   18.7518 C.ar    1  UNL1        0.0343
     14 C         -12.2925   -6.5781   18.5341 C.ar    1  UNL1        0.1315
     15 N         -12.0669   -5.1222   18.2526 N.ar    1  UNL1       -0.2333
     16 N         -13.6889   -7.1221   18.5979 N.pl3   1  UNL1       -0.2881
     17 C         -13.9946   -8.4733   18.0226 C.3     1  UNL1        0.1242
     18 C         -15.3909   -9.0173   18.0864 C.3     1  UNL1        0.1636
     19 O         -16.4818   -8.2102   18.7256 O.3     1  UNL1       -0.3501
     20 C         -16.1762   -6.8591   19.3009 C.3     1  UNL1        0.1636
     21 C         -14.7798   -6.3150   19.2371 C.3     1  UNL1        0.1242
     22 C         -16.1399    0.6748   18.5394 C.3     1  UNL1        0.0596
     23 C         -14.6219    5.5532   21.4871 C.3     1  UNL1        0.0307
     24 C         -15.6190    4.4371   21.5874 C.2     1  UNL1        0.0074
     25 C         -16.5977    4.4056   22.7237 C.2     1  UNL1        0.2278
     26 N         -17.5948    3.2895   22.8240 N.2     1  UNL1       -0.0314
     27 C         -17.6132    2.2048   21.7882 C.2     1  UNL1        0.3716
     28 N         -18.4732    0.9867   21.6255 N.2     1  UNL1       -0.0311
     29 C         -18.0260    0.2653   20.3888 C.2     1  UNL1        0.2319
     30 C         -16.8896    1.0375   19.7870 C.2     1  UNL1        0.0328
     31 C         -16.6345    2.2363   20.6519 C.2     1  UNL1        0.0704
     32 C         -15.6374    3.3524   20.5516 C.3     1  UNL1        0.0598
@<TRIPOS>BOND
     1    23    24    1
     2    24    25    2
     3    25    26    1
     4    26    27    2
     5    27    28    1
     6    28    29    2
     7    29    30    1
     8    30    22    1
     9    22     1    1
    10     1     2   ar
    11     2     3   ar
    12     3     4   ar
    13     4     7    1
    14     7     9    1
    15     9    10    1
    16    10    11   ar
    17    11    12   ar
    18    12    13   ar
    19    13    14   ar
    20    14    16    1
    21    16    17    1
    22    17    18    1
    23    18    19    1
    24    19    20    1
    25    20    21    1
    26    14    15   ar
    27     4     5   ar
    28     5     6   ar
    29    30    31    2
    30    31    32    1
    31    32    24    1
    32    31    27    1
    33     6     1   ar
    34    15    10   ar
    35    21    16    1
    36     7     8    1
@<TRIPOS>MOLECULE
*****
 32 36 0 0 0
SMALL
GASTEIGER

@<TRIPOS>ATOM
      1 C           4.6426   -3.6063   20.5336 C.ar    1  UNL1        0.0207
      2 C           4.3140   -3.4249   21.9858 C.ar    1  UNL1        0.0994
      3 N           5.3471   -3.7233   23.0316 N.ar    1  UNL1       -0.2126
      4 C           6.7089   -4.2031   22.6251 C.ar    1  UNL1        0.2172
      5 N           7.0376   -4.3844   21.1727 N.ar    1  UNL1       -0.2126
      6 C           6.0044   -4.0860   20.1270 C.ar    1  UNL1        0.0994
      7 N           7.7421   -4.5014   23.6708 N.pl3   1  UNL1       -0.2978
      8 H           8.1197   -3.7710   24.2122 H       1  UNL1        0.1500
      9 C           8.1998   -5.9127   23.8916 C.3     1  UNL1        0.1360
     10 C           8.2288   -6.4834   25.2785 C.ar    1  UNL1        0.0802
     11 C           8.6911   -7.8931   25.4999 C.ar    1  UNL1        0.0165
     12 C           8.7201   -8.4638   26.8868 C.ar    1  UNL1        0.0041
     13 C           8.2868   -7.6249   28.0523 C.ar    1  UNL1        0.0343
     14 C           7.8246   -6.2151   27.8308 C.ar    1  UNL1        0.1315
     15 N           7.7956   -5.6444   26.4440 N.ar    1  UNL1       -0.2333
     16 N           7.3913   -5.3761   28.9963 N.pl3   1  UNL1       -0.2881
     17 C           6.9572   -3.9568   28.7787 C.3     1  UNL1        0.1242
     18 C           6.5240   -3.1179   29.9442 C.3     1  UNL1        0.1636
     19 O           6.5248   -3.6982   31.3274 O.3     1  UNL1       -0.3501
     20 C           6.9589   -5.1174   31.5451 C.3     1  UNL1        0.1636
     21 C           7.3922   -5.9563   30.3796 C.3     1  UNL1        0.1242
     22 C           3.6095   -3.3079   19.4878 C.3     1  UNL1        0.0596
     23 C           0.5729    1.0458   22.0600 C.3     1  UNL1        0.0307
     24 C           1.4094    0.8226   20.8351 C.2     1  UNL1        0.0074
     25 C           1.6404    1.9470   19.8695 C.2     1  UNL1        0.2278
     26 N           2.4769    1.7238   18.6446 N.2     1  UNL1       -0.0314
     27 C           3.0825    0.3762   18.3853 C.2     1  UNL1        0.3716
     28 N           3.9456   -0.1389   17.2719 N.2     1  UNL1       -0.0311
     29 C           4.2481   -1.5817   17.5494 C.2     1  UNL1        0.2319
     30 C           3.5719   -1.9583   18.8343 C.2     1  UNL1        0.0328
     31 C           2.8515   -0.7482   19.3508 C.2     1  UNL1        0.0704
     32 C           2.0149   -0.5250   20.5758 C.3     1  UNL1        0.0598
@<TRIPOS>BOND
     1    23    24    1
     2    24    25    2
     3    25    26    1
     4    26    27    2
     5    27    28    1
     6    28    29    2
     7    29    30    1
     8    30    22    1
     9    22     1    1
    10     1     2   ar
    11     2     3   ar
    12     3     4   ar
    13     4     7    1
    14     7     9    1
    15     9    10    1
    16    10    11   ar
    17    11    12   ar
    18    12    13   ar
    19    13    14   ar
    20    14    16    1
    21    16    17    1
    22    17    18    1
    23    18    19    1
    24    19    20    1
    25    20    21    1
    26    14    15   ar
    27     4     5   ar
    28     5     6   ar
    29    30    31    2
    30    31    32    1
    31    32    24    1
    32    31    27    1
    33     6     1   ar
    34    15    10   ar
    35    21    16    1
    36     7     8    1
@<TRIPOS>MOLECULE
*****
 32 36 0 0 0
SMALL
GASTEIGER

@<TRIPOS>ATOM
      1 C           4.6019   -3.0185   22.7771 C.ar    1  UNL1        0.0207
      2 C           5.6883   -3.6384   23.6050 C.ar    1  UNL1        0.0994
      3 N           6.1381   -2.9730   24.8719 N.ar    1  UNL1       -0.2126
      4 C           5.5014   -1.6878   25.3109 C.ar    1  UNL1        0.2172
      5 N           4.4149   -1.0679   24.4829 N.ar    1  UNL1       -0.2126
      6 C           3.9652   -1.7332   23.2160 C.ar    1  UNL1        0.0994
      7 N           5.9512   -1.0224   26.5778 N.pl3   1  UNL1       -0.2978
      8 H           6.6300   -0.3101   26.5456 H       1  UNL1        0.1500
      9 C           5.3666   -1.4424   27.8938 C.3     1  UNL1        0.1360
     10 C           6.0025   -2.5526   28.6768 C.ar    1  UNL1        0.0802
     11 C           6.2417   -2.3908   30.1487 C.ar    1  UNL1        0.0165
     12 C           6.8776   -3.5011   30.9317 C.ar    1  UNL1        0.0041
     13 C           7.2742   -4.7731   30.2428 C.ar    1  UNL1        0.0343
     14 C           7.0349   -4.9348   28.7708 C.ar    1  UNL1        0.1315
     15 N           6.3991   -3.8246   27.9879 N.ar    1  UNL1       -0.2333
     16 N           7.4316   -6.2069   28.0818 N.pl3   1  UNL1       -0.2881
     17 C           6.9137   -6.5080   26.7066 C.3     1  UNL1        0.1242
     18 C           7.3103   -7.7800   26.0177 C.3     1  UNL1        0.1636
     19 O           8.2248   -8.7509   26.7040 O.3     1  UNL1       -0.3501
     20 C           8.7427   -8.4498   28.0791 C.3     1  UNL1        0.1636
     21 C           8.3461   -7.1778   28.7681 C.3     1  UNL1        0.1242
     22 C           4.1522   -3.6838   21.5102 C.3     1  UNL1        0.0596
     23 C           0.3438    0.6005   20.1201 C.3     1  UNL1        0.0307
     24 C           1.5390   -0.0847   19.5268 C.2     1  UNL1        0.0074
     25 C           2.0465    0.3277   18.1769 C.2     1  UNL1        0.2278
     26 N           3.2418   -0.3575   17.5836 N.2     1  UNL1       -0.0314
     27 C           3.9294   -1.4550   18.3403 C.2     1  UNL1        0.3716
     28 N           5.1201   -2.3065   18.0128 N.2     1  UNL1       -0.0311
     29 C           5.3485   -3.2450   19.1604 C.2     1  UNL1        0.2319
     30 C           4.2990   -2.9737   20.1971 C.2     1  UNL1        0.0328
     31 C           3.4219   -1.8673   19.6902 C.2     1  UNL1        0.0704
     32 C           2.2267   -1.1821   20.2835 C.3     1  UNL1        0.0598
@<TRIPOS>BOND
     1    23    24    1
     2    24    25    2
     3    25    26    1
     4    26    27    2
     5    27    28    1
     6    28    29    2
     7    29    30    1
     8    30    22    1
     9    22     1    1
    10     1     2   ar
    11     2     3   ar
    12     3     4   ar
    13     4     7    1
    14     7     9    1
    15     9    10    1
    16    10    11   ar
    17    11    12   ar
    18    12    13   ar
    19    13    14   ar
    20    14    16    1
    21    16    17    1
    22    17    18    1
    23    18    19    1
    24    19    20    1
    25    20    21    1
    26    14    15   ar
    27     4     5   ar
    28     5     6   ar
    29    30    31    2
    30    31    32    1
    31    32    24    1
    32    31    27    1
    33     6     1   ar
    34    15    10   ar
    35    21    16    1
    36     7     8    1
