@<TRIPOS>MOLECULE
*****
 17 19 0 0 0
SMALL
GASTEIGER

@<TRIPOS>ATOM
      1 C          -7.0157  -19.2039   20.8514 C.ar    1  UNL1        0.2497
      2 N          -7.7208  -19.1784   19.5277 N.ar    1  UNL1       -0.1072
      3 N          -9.1728  -18.9000   19.7812 N.ar    1  UNL1       -0.1114
      4 C          -9.3651  -18.7535   21.2617 C.ar    1  UNL1        0.2260
      5 O          -8.0319  -18.9413   21.9230 O.2     1  UNL1       -0.4195
      6 C          -3.2952  -20.4498   20.2549 C.ar    1  UNL1        0.0990
      7 C          -4.7594  -20.2048   20.0405 C.ar    1  UNL1        0.0254
      8 C          -5.5514  -19.4489   21.0659 C.ar    1  UNL1        0.0582
      9 C          -4.8792  -18.9381   22.3057 C.ar    1  UNL1        0.0254
     10 C          -3.4150  -19.1832   22.5201 C.ar    1  UNL1        0.0990
     11 N          -2.6230  -19.9390   21.4947 N.ar    1  UNL1       -0.2423
     12 C         -10.6627  -18.4691   21.9583 C.3     1  UNL1        0.0782
     13 C         -11.8258  -17.9237   21.1840 C.3     1  UNL1        0.0093
     14 C         -13.1234  -17.6394   21.8807 C.3     1  UNL1        0.0005
     15 C         -13.2578  -17.9004   23.3517 C.3     1  UNL1        0.0000
     16 C         -12.0947  -18.4458   24.1260 C.3     1  UNL1        0.0005
     17 C         -10.7971  -18.7302   23.4293 C.3     1  UNL1        0.0093
@<TRIPOS>BOND
     1     6     7   ar
     2     7     8   ar
     3     8     1    1
     4     1     2   ar
     5     2     3   ar
     6     3     4   ar
     7     4    12    1
     8    12    13    1
     9    13    14    1
    10    14    15    1
    11    15    16    1
    12    16    17    1
    13     4     5   ar
    14     8     9   ar
    15     9    10   ar
    16    10    11   ar
    17    11     6   ar
    18     5     1   ar
    19    17    12    1
@<TRIPOS>MOLECULE
*****
 17 19 0 0 0
SMALL
GASTEIGER

@<TRIPOS>ATOM
      1 C          -6.4596  -18.2234   22.3887 C.ar    1  UNL1        0.2497
      2 N          -6.4466  -16.8776   23.0508 N.ar    1  UNL1       -0.1072
      3 N          -7.8546  -16.5405   23.4433 N.ar    1  UNL1       -0.1114
      4 C          -8.7378  -17.6781   23.0237 C.ar    1  UNL1        0.2260
      5 O          -7.8756  -18.7182   22.3719 O.2     1  UNL1       -0.4195
      6 C          -4.2222  -20.5655   20.0954 C.ar    1  UNL1        0.0990
      7 C          -5.4156  -19.8414   20.6444 C.ar    1  UNL1        0.0254
      8 C          -5.2661  -18.9475   21.8397 C.ar    1  UNL1        0.0582
      9 C          -3.9232  -18.7777   22.4859 C.ar    1  UNL1        0.0254
     10 C          -2.7298  -19.5018   21.9369 C.ar    1  UNL1        0.0990
     11 N          -2.8793  -20.3957   20.7417 N.ar    1  UNL1       -0.2423
     12 C         -10.2224  -17.7609   23.2212 C.3     1  UNL1        0.0782
     13 C         -10.7876  -18.6347   24.3014 C.3     1  UNL1        0.0093
     14 C         -12.2723  -18.7176   24.4989 C.3     1  UNL1        0.0005
     15 C         -13.1916  -17.9267   23.6161 C.3     1  UNL1        0.0000
     16 C         -12.6264  -17.0529   22.5359 C.3     1  UNL1        0.0005
     17 C         -11.1417  -16.9700   22.3384 C.3     1  UNL1        0.0093
@<TRIPOS>BOND
     1     6     7   ar
     2     7     8   ar
     3     8     1    1
     4     1     2   ar
     5     2     3   ar
     6     3     4   ar
     7     4    12    1
     8    12    13    1
     9    13    14    1
    10    14    15    1
    11    15    16    1
    12    16    17    1
    13     4     5   ar
    14     8     9   ar
    15     9    10   ar
    16    10    11   ar
    17    11     6   ar
    18     5     1   ar
    19    17    12    1
@<TRIPOS>MOLECULE
*****
 17 19 0 0 0
SMALL
GASTEIGER

@<TRIPOS>ATOM
      1 C          -6.5465  -18.9598   21.1589 C.ar    1  UNL1        0.2497
      2 N          -7.2175  -19.1040   19.8252 N.ar    1  UNL1       -0.1072
      3 N          -8.6943  -18.9379   20.0289 N.ar    1  UNL1       -0.1114
      4 C          -8.9360  -18.6910   21.4887 C.ar    1  UNL1        0.2260
      5 O          -7.6086  -18.7046   22.1870 O.2     1  UNL1       -0.4195
      6 C          -2.9887  -18.3959   22.8246 C.ar    1  UNL1        0.0990
      7 C          -4.4630  -18.3015   22.5645 C.ar    1  UNL1        0.0254
      8 C          -5.0722  -19.0543   21.4190 C.ar    1  UNL1        0.0582
      9 C          -4.2072  -19.9014   20.5335 C.ar    1  UNL1        0.0254
     10 C          -2.7329  -19.9958   20.7936 C.ar    1  UNL1        0.0990
     11 N          -2.1237  -19.2431   21.9392 N.ar    1  UNL1       -0.2423
     12 C         -10.2707  -18.4695   22.1363 C.3     1  UNL1        0.0782
     13 C         -10.4625  -18.7923   23.5885 C.3     1  UNL1        0.0093
     14 C         -11.7972  -18.5708   24.2361 C.3     1  UNL1        0.0005
     15 C         -12.9402  -18.0265   23.4315 C.3     1  UNL1        0.0000
     16 C         -12.7484  -17.7038   21.9792 C.3     1  UNL1        0.0005
     17 C         -11.4137  -17.9253   21.3316 C.3     1  UNL1        0.0093
@<TRIPOS>BOND
     1     6     7   ar
     2     7     8   ar
     3     8     1    1
     4     1     2   ar
     5     2     3   ar
     6     3     4   ar
     7     4    12    1
     8    12    13    1
     9    13    14    1
    10    14    15    1
    11    15    16    1
    12    16    17    1
    13     4     5   ar
    14     8     9   ar
    15     9    10   ar
    16    10    11   ar
    17    11     6   ar
    18     5     1   ar
    19    17    12    1
@<TRIPOS>MOLECULE
*****
 17 19 0 0 0
SMALL
GASTEIGER

@<TRIPOS>ATOM
      1 C          -4.4279  -19.1441   20.5651 C.ar    1  UNL1        0.2497
      2 N          -4.6091  -20.5823   20.1797 N.ar    1  UNL1       -0.1072
      3 N          -6.0427  -20.9504   20.4230 N.ar    1  UNL1       -0.1114
      4 C          -6.7476  -19.7396   20.9588 C.ar    1  UNL1        0.2260
      5 O          -5.7496  -18.6232   21.0467 O.2     1  UNL1       -0.4195
      6 C          -1.5592  -16.5443   21.4378 C.ar    1  UNL1        0.0990
      7 C          -2.8375  -17.3247   21.5195 C.ar    1  UNL1        0.0254
      8 C          -3.1495  -18.3636   20.4834 C.ar    1  UNL1        0.0582
      9 C          -2.1832  -18.6220   19.3657 C.ar    1  UNL1        0.0254
     10 C          -0.9048  -17.8416   19.2841 C.ar    1  UNL1        0.0990
     11 N          -0.5928  -16.8027   20.3201 N.ar    1  UNL1       -0.2423
     12 C          -8.1962  -19.6593   21.3399 C.3     1  UNL1        0.0782
     13 C          -8.6056  -19.8335   22.7723 C.3     1  UNL1        0.0093
     14 C         -10.0542  -19.7532   23.1534 C.3     1  UNL1        0.0005
     15 C         -11.0933  -19.4987   22.1020 C.3     1  UNL1        0.0000
     16 C         -10.6839  -19.3244   20.6695 C.3     1  UNL1        0.0005
     17 C          -9.2353  -19.4047   20.2885 C.3     1  UNL1        0.0093
@<TRIPOS>BOND
     1     6     7   ar
     2     7     8   ar
     3     8     1    1
     4     1     2   ar
     5     2     3   ar
     6     3     4   ar
     7     4    12    1
     8    12    13    1
     9    13    14    1
    10    14    15    1
    11    15    16    1
    12    16    17    1
    13     4     5   ar
    14     8     9   ar
    15     9    10   ar
    16    10    11   ar
    17    11     6   ar
    18     5     1   ar
    19    17    12    1
@<TRIPOS>MOLECULE
*****
 17 19 0 0 0
SMALL
GASTEIGER

@<TRIPOS>ATOM
      1 C         -15.9719   -7.3499   19.2086 C.ar    1  UNL1        0.2497
      2 N         -15.3733   -8.5628   18.5602 N.ar    1  UNL1       -0.1072
      3 N         -13.9083   -8.3078   18.3633 N.ar    1  UNL1       -0.1114
      4 C         -13.6015   -6.9372   18.8900 C.ar    1  UNL1        0.2260
      5 O         -14.8769   -6.3452   19.4124 O.2     1  UNL1       -0.4195
      6 C         -19.5675   -5.7217   19.6221 C.ar    1  UNL1        0.0990
      7 C         -18.1268   -5.8989   19.2440 C.ar    1  UNL1        0.0254
      8 C         -17.4126   -7.1727   19.5868 C.ar    1  UNL1        0.0582
      9 C         -18.1391   -8.2692   20.3078 C.ar    1  UNL1        0.0254
     10 C         -19.5797   -8.0919   20.6860 C.ar    1  UNL1        0.0990
     11 N         -20.2939   -6.8182   20.3431 N.ar    1  UNL1       -0.2423
     12 C         -12.2556   -6.2749   18.8936 C.3     1  UNL1        0.0782
     13 C         -12.1558   -4.7794   18.9538 C.3     1  UNL1        0.0093
     14 C         -10.8100   -4.1172   18.9574 C.3     1  UNL1        0.0005
     15 C          -9.5639   -4.9503   18.9008 C.3     1  UNL1        0.0000
     16 C          -9.6637   -6.4458   18.8406 C.3     1  UNL1        0.0005
     17 C         -11.0096   -7.1081   18.8370 C.3     1  UNL1        0.0093
@<TRIPOS>BOND
     1     6     7   ar
     2     7     8   ar
     3     8     1    1
     4     1     2   ar
     5     2     3   ar
     6     3     4   ar
     7     4    12    1
     8    12    13    1
     9    13    14    1
    10    14    15    1
    11    15    16    1
    12    16    17    1
    13     4     5   ar
    14     8     9   ar
    15     9    10   ar
    16    10    11   ar
    17    11     6   ar
    18     5     1   ar
    19    17    12    1
@<TRIPOS>MOLECULE
*****
 17 19 0 0 0
SMALL
GASTEIGER

@<TRIPOS>ATOM
      1 C         -15.9701   -7.3691   19.2031 C.ar    1  UNL1        0.2497
      2 N         -15.3647   -8.5778   18.5531 N.ar    1  UNL1       -0.1072
      3 N         -13.9012   -8.3143   18.3565 N.ar    1  UNL1       -0.1114
      4 C         -13.6021   -6.9427   18.8850 C.ar    1  UNL1        0.2260
      5 O         -14.8808   -6.3585   19.4082 O.2     1  UNL1       -0.4195
      6 C         -19.5678   -8.1249   20.6983 C.ar    1  UNL1        0.0990
      7 C         -18.1262   -8.2934   20.3199 C.ar    1  UNL1        0.0254
      8 C         -17.4118   -7.2005   19.5815 C.ar    1  UNL1        0.0582
      9 C         -18.1391   -5.9390   19.2216 C.ar    1  UNL1        0.0254
     10 C         -19.5807   -5.7704   19.6000 C.ar    1  UNL1        0.0990
     11 N         -20.2951   -6.8634   20.3384 N.ar    1  UNL1       -0.2423
     12 C         -12.2600   -6.2729   18.8895 C.3     1  UNL1        0.0782
     13 C         -11.0091   -7.0995   18.8443 C.3     1  UNL1        0.0093
     14 C          -9.6670   -6.4297   18.8488 C.3     1  UNL1        0.0005
     15 C          -9.5757   -4.9332   18.8985 C.3     1  UNL1        0.0000
     16 C         -10.8266   -4.1066   18.9437 C.3     1  UNL1        0.0005
     17 C         -12.1687   -4.7764   18.9392 C.3     1  UNL1        0.0093
@<TRIPOS>BOND
     1     6     7   ar
     2     7     8   ar
     3     8     1    1
     4     1     2   ar
     5     2     3   ar
     6     3     4   ar
     7     4    12    1
     8    12    13    1
     9    13    14    1
    10    14    15    1
    11    15    16    1
    12    16    17    1
    13     4     5   ar
    14     8     9   ar
    15     9    10   ar
    16    10    11   ar
    17    11     6   ar
    18     5     1   ar
    19    17    12    1
@<TRIPOS>MOLECULE
*****
 17 19 0 0 0
SMALL
GASTEIGER

@<TRIPOS>ATOM
      1 C          -5.3434  -17.5657   22.6327 C.ar    1  UNL1        0.2497
      2 N          -5.6580  -16.4539   23.5892 N.ar    1  UNL1       -0.1072
      3 N          -7.1496  -16.3610   23.7176 N.ar    1  UNL1       -0.1114
      4 C          -7.7569  -17.4154   22.8404 C.ar    1  UNL1        0.2260
      5 O          -6.6407  -18.1599   22.1699 O.2     1  UNL1       -0.4195
      6 C          -1.4692  -17.4624   21.7785 C.ar    1  UNL1        0.0990
      7 C          -2.8402  -17.0221   22.1985 C.ar    1  UNL1        0.0254
      8 C          -3.9724  -18.0060   22.2126 C.ar    1  UNL1        0.0582
      9 C          -3.7335  -19.4301   21.8067 C.ar    1  UNL1        0.0254
     10 C          -2.3625  -19.8704   21.3867 C.ar    1  UNL1        0.0990
     11 N          -1.2303  -18.8865   21.3726 N.ar    1  UNL1       -0.2423
     12 C          -9.2231  -17.6789   22.6646 C.3     1  UNL1        0.0782
     13 C         -10.1763  -17.3931   23.7870 C.3     1  UNL1        0.0093
     14 C         -11.6424  -17.6566   23.6112 C.3     1  UNL1        0.0005
     15 C         -12.1554  -18.2060   22.3130 C.3     1  UNL1        0.0000
     16 C         -11.2022  -18.4918   21.1907 C.3     1  UNL1        0.0005
     17 C          -9.7360  -18.2283   21.3665 C.3     1  UNL1        0.0093
@<TRIPOS>BOND
     1     6     7   ar
     2     7     8   ar
     3     8     1    1
     4     1     2   ar
     5     2     3   ar
     6     3     4   ar
     7     4    12    1
     8    12    13    1
     9    13    14    1
    10    14    15    1
    11    15    16    1
    12    16    17    1
    13     4     5   ar
    14     8     9   ar
    15     9    10   ar
    16    10    11   ar
    17    11     6   ar
    18     5     1   ar
    19    17    12    1
@<TRIPOS>MOLECULE
*****
 17 19 0 0 0
SMALL
GASTEIGER

@<TRIPOS>ATOM
      1 C         -13.4280   -6.9495   18.8546 C.ar    1  UNL1        0.2497
      2 N         -13.6539   -8.2907   18.2220 N.ar    1  UNL1       -0.1072
      3 N         -15.1050   -8.6377   18.3768 N.ar    1  UNL1       -0.1114
      4 C         -15.7759   -7.5110   19.1051 C.ar    1  UNL1        0.2260
      5 O         -14.7395   -6.4677   19.4004 O.2     1  UNL1       -0.4195
      6 C         -10.7910   -3.9877   19.0081 C.ar    1  UNL1        0.0990
      7 C         -12.0986   -4.7187   18.9342 C.ar    1  UNL1        0.0254
      8 C         -12.1202   -6.2185   18.9285 C.ar    1  UNL1        0.0582
      9 C         -10.8341   -6.9873   18.9968 C.ar    1  UNL1        0.0254
     10 C          -9.5264   -6.2563   19.0707 C.ar    1  UNL1        0.0990
     11 N          -9.5048   -4.7565   19.0763 N.ar    1  UNL1       -0.2423
     12 C         -17.2282   -7.4401   19.4735 C.3     1  UNL1        0.0782
     13 C         -17.9814   -6.1532   19.3104 C.3     1  UNL1        0.0093
     14 C         -19.4337   -6.0823   19.6787 C.3     1  UNL1        0.0005
     15 C         -20.1329   -7.2983   20.2101 C.3     1  UNL1        0.0000
     16 C         -19.3798   -8.5853   20.3732 C.3     1  UNL1        0.0005
     17 C         -17.9274   -8.6561   20.0049 C.3     1  UNL1        0.0093
@<TRIPOS>BOND
     1     6     7   ar
     2     7     8   ar
     3     8     1    1
     4     1     2   ar
     5     2     3   ar
     6     3     4   ar
     7     4    12    1
     8    12    13    1
     9    13    14    1
    10    14    15    1
    11    15    16    1
    12    16    17    1
    13     4     5   ar
    14     8     9   ar
    15     9    10   ar
    16    10    11   ar
    17    11     6   ar
    18     5     1   ar
    19    17    12    1
@<TRIPOS>MOLECULE
*****
 17 19 0 0 0
SMALL
GASTEIGER

@<TRIPOS>ATOM
      1 C         -16.1976   -6.9600   19.2479 C.ar    1  UNL1        0.2497
      2 N         -16.3020   -5.5368   19.7100 N.ar    1  UNL1       -0.1072
      3 N         -14.9234   -4.9457   19.7057 N.ar    1  UNL1       -0.1114
      4 C         -13.9669   -6.0036   19.2409 C.ar    1  UNL1        0.2260
      5 O         -14.7544   -7.2485   18.9580 O.2     1  UNL1       -0.4195
      6 C         -19.5556   -8.9391   19.9944 C.ar    1  UNL1        0.0990
      7 C         -18.4168   -7.9738   20.1408 C.ar    1  UNL1        0.0254
      8 C         -17.3364   -7.9253   19.1015 C.ar    1  UNL1        0.0582
      9 C         -17.3947   -8.8421   17.9157 C.ar    1  UNL1        0.0254
     10 C         -18.5334   -9.8073   17.7693 C.ar    1  UNL1        0.0990
     11 N         -19.6139   -9.8558   18.8086 N.ar    1  UNL1       -0.2423
     12 C         -12.4834   -5.8445   19.0862 C.3     1  UNL1        0.0782
     13 C         -11.6152   -7.0530   18.8974 C.3     1  UNL1        0.0093
     14 C         -10.1317   -6.8939   18.7428 C.3     1  UNL1        0.0005
     15 C          -9.5165   -5.5263   18.7769 C.3     1  UNL1        0.0000
     16 C         -10.3847   -4.3178   18.9656 C.3     1  UNL1        0.0005
     17 C         -11.8682   -4.4769   19.1203 C.3     1  UNL1        0.0093
@<TRIPOS>BOND
     1     6     7   ar
     2     7     8   ar
     3     8     1    1
     4     1     2   ar
     5     2     3   ar
     6     3     4   ar
     7     4    12    1
     8    12    13    1
     9    13    14    1
    10    14    15    1
    11    15    16    1
    12    16    17    1
    13     4     5   ar
    14     8     9   ar
    15     9    10   ar
    16    10    11   ar
    17    11     6   ar
    18     5     1   ar
    19    17    12    1
