@<TRIPOS>MOLECULE
*****
 27 30 0 0 0
SMALL
GASTEIGER

@<TRIPOS>ATOM
      1 C          -6.7590  -20.1873   20.7817 C.ar    1  UNL1        0.0207
      2 C          -7.2553  -20.3364   22.1893 C.ar    1  UNL1        0.0994
      3 N          -8.5824  -19.7579   22.5820 N.ar    1  UNL1       -0.2126
      4 C          -9.4132  -19.0303   21.5670 C.ar    1  UNL1        0.2172
      5 N          -8.9169  -18.8812   20.1593 N.ar    1  UNL1       -0.2126
      6 C          -7.5899  -19.4597   19.7666 C.ar    1  UNL1        0.0994
      7 N         -10.7403  -18.4518   21.9596 N.pl3   1  UNL1       -0.2990
      8 H         -11.3708  -18.1509   21.2659 H       1  UNL1        0.1500
      9 C         -11.1067  -18.3316   23.4092 C.3     1  UNL1        0.1180
     10 C         -10.1835  -17.6298   24.3605 C.ar    1  UNL1        0.0167
     11 C          -9.6583  -16.2650   24.0265 C.ar    1  UNL1        0.0014
     12 C          -8.7350  -15.5631   24.9778 C.ar    1  UNL1        0.0305
     13 C          -8.3369  -16.2261   26.2631 C.ar    1  UNL1        0.1383
     14 CL         -7.4136  -15.5242   27.2144 Cl      1  UNL1       -0.0613
     15 N          -8.8620  -17.5909   26.5970 N.ar    1  UNL1       -0.2327
     16 C          -9.7853  -18.2927   25.6458 C.ar    1  UNL1        0.0972
     17 C          -5.4319  -20.7658   20.3890 C.3     1  UNL1        0.0596
     18 C          -4.5685  -16.5011   24.3713 C.3     1  UNL1        0.0307
     19 C          -3.9124  -17.0426   23.1359 C.2     1  UNL1        0.0074
     20 C          -2.6450  -16.4227   22.6266 C.2     1  UNL1        0.2278
     21 N          -1.9888  -16.9642   21.3912 N.2     1  UNL1       -0.0314
     22 C          -2.6001  -18.1257   20.6651 C.2     1  UNL1        0.3716
     23 N          -2.1839  -18.8692   19.4307 N.2     1  UNL1       -0.0311
     24 C          -3.1940  -19.9487   19.1770 C.2     1  UNL1        0.2319
     25 C          -4.2346  -19.8724   20.2546 C.2     1  UNL1        0.0328
     26 C          -3.8675  -18.7456   21.1744 C.2     1  UNL1        0.0704
     27 C          -4.5236  -18.2041   22.4098 C.3     1  UNL1        0.0598
@<TRIPOS>BOND
     1    18    19    1
     2    19    20    2
     3    20    21    1
     4    21    22    2
     5    22    23    1
     6    23    24    2
     7    24    25    1
     8    25    17    1
     9    17     1    1
    10     1     2   ar
    11     2     3   ar
    12     3     4   ar
    13     4     7    1
    14     7     9    1
    15     9    10    1
    16    10    11   ar
    17    11    12   ar
    18    12    13   ar
    19    13    14    1
    20    13    15   ar
    21    15    16   ar
    22     4     5   ar
    23     5     6   ar
    24    25    26    2
    25    26    27    1
    26    27    19    1
    27    26    22    1
    28     6     1   ar
    29    16    10   ar
    30     7     8    1
@<TRIPOS>MOLECULE
*****
 27 30 0 0 0
SMALL
GASTEIGER

@<TRIPOS>ATOM
      1 C          -6.9038  -19.9141   20.9096 C.ar    1  UNL1        0.0207
      2 C          -7.5274  -20.1320   22.2563 C.ar    1  UNL1        0.0994
      3 N          -8.9676  -19.7790   22.4819 N.ar    1  UNL1       -0.2126
      4 C          -9.7845  -19.2080   21.3609 C.ar    1  UNL1        0.2172
      5 N          -9.1609  -18.9901   20.0141 N.ar    1  UNL1       -0.2126
      6 C          -7.7206  -19.3431   19.7884 C.ar    1  UNL1        0.0994
      7 N         -11.2248  -18.8550   21.5865 N.pl3   1  UNL1       -0.2990
      8 H         -11.8699  -18.9219   20.8459 H       1  UNL1        0.1500
      9 C         -11.6822  -18.4002   22.9408 C.3     1  UNL1        0.1180
     10 C         -10.6989  -17.8018   23.9026 C.ar    1  UNL1        0.0167
     11 C         -10.1396  -16.4333   23.6492 C.ar    1  UNL1        0.0014
     12 C          -9.1563  -15.8350   24.6110 C.ar    1  UNL1        0.0305
     13 C          -8.7323  -16.6051   25.8264 C.ar    1  UNL1        0.1383
     14 CL         -7.7491  -16.0068   26.7882 Cl      1  UNL1       -0.0613
     15 N          -9.2917  -17.9737   26.0798 N.ar    1  UNL1       -0.2327
     16 C         -10.2749  -18.5720   25.1180 C.ar    1  UNL1        0.0972
     17 C          -5.4635  -20.2671   20.6839 C.3     1  UNL1        0.0596
     18 C          -1.4434  -17.7569   17.1725 C.3     1  UNL1        0.0307
     19 C          -1.7728  -17.8399   18.6336 C.2     1  UNL1        0.0074
     20 C          -0.9185  -17.1234   19.6369 C.2     1  UNL1        0.2278
     21 N          -1.2479  -17.2064   21.0979 N.2     1  UNL1       -0.0314
     22 C          -2.4316  -18.0058   21.5556 C.2     1  UNL1        0.3716
     23 N          -2.9985  -18.2689   22.9192 N.2     1  UNL1       -0.0311
     24 C          -4.2033  -19.1480   22.7586 C.2     1  UNL1        0.2319
     25 C          -4.3810  -19.4282   21.2958 C.2     1  UNL1        0.0328
     26 C          -3.2860  -18.7222   20.5523 C.2     1  UNL1        0.0704
     27 C          -2.9566  -18.6393   19.0913 C.3     1  UNL1        0.0598
@<TRIPOS>BOND
     1    18    19    1
     2    19    20    2
     3    20    21    1
     4    21    22    2
     5    22    23    1
     6    23    24    2
     7    24    25    1
     8    25    17    1
     9    17     1    1
    10     1     2   ar
    11     2     3   ar
    12     3     4   ar
    13     4     7    1
    14     7     9    1
    15     9    10    1
    16    10    11   ar
    17    11    12   ar
    18    12    13   ar
    19    13    14    1
    20    13    15   ar
    21    15    16   ar
    22     4     5   ar
    23     5     6   ar
    24    25    26    2
    25    26    27    1
    26    27    19    1
    27    26    22    1
    28     6     1   ar
    29    16    10   ar
    30     7     8    1
@<TRIPOS>MOLECULE
*****
 27 30 0 0 0
SMALL
GASTEIGER

@<TRIPOS>ATOM
      1 C          -8.4123  -18.4284   23.3498 C.ar    1  UNL1        0.0207
      2 C          -8.4115  -19.9057   23.0898 C.ar    1  UNL1        0.0994
      3 N          -7.3087  -20.5247   22.2832 N.ar    1  UNL1       -0.2126
      4 C          -6.2066  -19.6664   21.7366 C.ar    1  UNL1        0.2172
      5 N          -6.2074  -18.1890   21.9967 N.ar    1  UNL1       -0.2126
      6 C          -7.3102  -17.5700   22.8033 C.ar    1  UNL1        0.0994
      7 N          -5.1038  -20.2854   20.9300 N.pl3   1  UNL1       -0.2990
      8 H          -4.7641  -21.1791   21.1648 H       1  UNL1        0.1500
      9 C          -4.5184  -19.5426   19.7656 C.3     1  UNL1        0.1180
     10 C          -3.1347  -18.9714   19.8595 C.ar    1  UNL1        0.0167
     11 C          -2.5854  -18.1474   18.7329 C.ar    1  UNL1        0.0014
     12 C          -1.2016  -17.5761   18.8268 C.ar    1  UNL1        0.0305
     13 C          -0.3671  -17.8288   20.0473 C.ar    1  UNL1        0.1383
     14 CL          1.0167  -17.2575   20.1411 Cl      1  UNL1       -0.0613
     15 N          -0.9164  -18.6528   21.1739 N.ar    1  UNL1       -0.2327
     16 C          -2.3001  -19.2241   21.0800 C.ar    1  UNL1        0.0972
     17 C          -9.5152  -17.8095   24.1564 C.3     1  UNL1        0.0596
     18 C         -10.5320  -15.0592   19.0384 C.3     1  UNL1        0.0307
     19 C         -11.2950  -15.8144   20.0860 C.2     1  UNL1        0.0074
     20 C         -12.7731  -16.0201   19.9350 C.2     1  UNL1        0.2278
     21 N         -13.5361  -16.7753   20.9826 N.2     1  UNL1       -0.0314
     22 C         -12.8211  -17.3249   22.1811 C.2     1  UNL1        0.3716
     23 N         -13.3041  -18.1049   23.3678 N.2     1  UNL1       -0.0311
     24 C         -12.1245  -18.3814   24.2522 C.2     1  UNL1        0.2319
     25 C         -10.9124  -17.7722   23.6121 C.2     1  UNL1        0.0328
     26 C         -11.3429  -17.1193   22.3321 C.2     1  UNL1        0.0704
     27 C         -10.5799  -16.3641   21.2845 C.3     1  UNL1        0.0598
@<TRIPOS>BOND
     1    18    19    1
     2    19    20    2
     3    20    21    1
     4    21    22    2
     5    22    23    1
     6    23    24    2
     7    24    25    1
     8    25    17    1
     9    17     1    1
    10     1     2   ar
    11     2     3   ar
    12     3     4   ar
    13     4     7    1
    14     7     9    1
    15     9    10    1
    16    10    11   ar
    17    11    12   ar
    18    12    13   ar
    19    13    14    1
    20    13    15   ar
    21    15    16   ar
    22     4     5   ar
    23     5     6   ar
    24    25    26    2
    25    26    27    1
    26    27    19    1
    27    26    22    1
    28     6     1   ar
    29    16    10   ar
    30     7     8    1
@<TRIPOS>MOLECULE
*****
 27 30 0 0 0
SMALL
GASTEIGER

@<TRIPOS>ATOM
      1 C          -7.2613  -19.2393   22.3562 C.ar    1  UNL1        0.0207
      2 C          -7.2054  -17.7963   22.7616 C.ar    1  UNL1        0.0994
      3 N          -5.8821  -17.1438   23.0319 N.ar    1  UNL1       -0.2126
      4 C          -4.6146  -17.9345   22.8969 C.ar    1  UNL1        0.2172
      5 N          -4.6705  -19.3776   22.4915 N.ar    1  UNL1       -0.2126
      6 C          -5.9938  -20.0301   22.2212 C.ar    1  UNL1        0.0994
      7 N          -3.2912  -17.2820   23.1672 N.pl3   1  UNL1       -0.2990
      8 H          -3.2437  -16.4861   23.7447 H       1  UNL1        0.1500
      9 C          -2.0404  -17.8423   22.5577 C.3     1  UNL1        0.1180
     10 C          -1.8584  -17.8242   21.0689 C.ar    1  UNL1        0.0167
     11 C          -2.9979  -17.4253   20.1788 C.ar    1  UNL1        0.0014
     12 C          -2.8159  -17.4071   18.6900 C.ar    1  UNL1        0.0305
     13 C          -1.4943  -17.7880   18.0913 C.ar    1  UNL1        0.1383
     14 CL         -1.3123  -17.7699   16.6025 Cl      1  UNL1       -0.0613
     15 N          -0.3548  -18.1869   18.9815 N.ar    1  UNL1       -0.2327
     16 C          -0.5368  -18.2050   20.4702 C.ar    1  UNL1        0.0972
     17 C          -8.5846  -19.8918   22.0859 C.3     1  UNL1        0.0596
     18 C         -11.7825  -15.7419   19.3759 C.3     1  UNL1        0.0307
     19 C         -11.8065  -16.5345   20.6492 C.2     1  UNL1        0.0074
     20 C         -12.9128  -16.3273   21.6408 C.2     1  UNL1        0.2278
     21 N         -12.9368  -17.1198   22.9141 N.2     1  UNL1       -0.0314
     22 C         -11.8547  -18.1196   23.1958 C.2     1  UNL1        0.3716
     23 N         -11.6155  -19.0397   24.3560 N.2     1  UNL1       -0.0311
     24 C         -10.3614  -19.8156   24.0815 C.2     1  UNL1        0.2319
     25 C          -9.8255  -19.3750   22.7516 C.2     1  UNL1        0.0328
     26 C         -10.7485  -18.3268   22.2042 C.2     1  UNL1        0.0704
     27 C         -10.7244  -17.5342   20.9309 C.3     1  UNL1        0.0598
@<TRIPOS>BOND
     1    18    19    1
     2    19    20    2
     3    20    21    1
     4    21    22    2
     5    22    23    1
     6    23    24    2
     7    24    25    1
     8    25    17    1
     9    17     1    1
    10     1     2   ar
    11     2     3   ar
    12     3     4   ar
    13     4     7    1
    14     7     9    1
    15     9    10    1
    16    10    11   ar
    17    11    12   ar
    18    12    13   ar
    19    13    14    1
    20    13    15   ar
    21    15    16   ar
    22     4     5   ar
    23     5     6   ar
    24    25    26    2
    25    26    27    1
    26    27    19    1
    27    26    22    1
    28     6     1   ar
    29    16    10   ar
    30     7     8    1
@<TRIPOS>MOLECULE
*****
 27 30 0 0 0
SMALL
GASTEIGER

@<TRIPOS>ATOM
      1 C          -7.7142  -19.3720   20.2594 C.ar    1  UNL1        0.0207
      2 C          -6.6272  -20.3531   19.9340 C.ar    1  UNL1        0.0994
      3 N          -5.2785  -20.2187   20.5765 N.ar    1  UNL1       -0.2126
      4 C          -5.0167  -19.1031   21.5445 C.ar    1  UNL1        0.2172
      5 N          -6.1037  -18.1220   21.8699 N.ar    1  UNL1       -0.2126
      6 C          -7.4524  -18.2564   21.2274 C.ar    1  UNL1        0.0994
      7 N          -3.6679  -18.9687   22.1870 N.pl3   1  UNL1       -0.2990
      8 H          -3.0844  -19.7566   22.2761 H       1  UNL1        0.1500
      9 C          -3.2083  -17.6338   22.6936 C.3     1  UNL1        0.1180
     10 C          -3.9690  -16.9441   23.7871 C.ar    1  UNL1        0.0167
     11 C          -3.9533  -17.5026   25.1791 C.ar    1  UNL1        0.0014
     12 C          -4.7141  -16.8129   26.2726 C.ar    1  UNL1        0.0305
     13 C          -5.4906  -15.5648   25.9740 C.ar    1  UNL1        0.1383
     14 CL         -6.2513  -14.8751   27.0674 Cl      1  UNL1       -0.0613
     15 N          -5.5063  -15.0063   24.5818 N.ar    1  UNL1       -0.2327
     16 C          -4.7455  -15.6960   23.4885 C.ar    1  UNL1        0.0972
     17 C          -9.0629  -19.5065   19.6169 C.3     1  UNL1        0.0596
     18 C         -10.2269  -20.3631   25.3356 C.3     1  UNL1        0.0307
     19 C         -10.7938  -19.6118   24.1676 C.2     1  UNL1        0.0074
     20 C         -12.0288  -18.7781   24.3402 C.2     1  UNL1        0.2278
     21 N         -12.5957  -18.0267   23.1723 N.2     1  UNL1       -0.0314
     22 C         -11.9277  -18.1090   21.8318 C.2     1  UNL1        0.3716
     23 N         -12.2537  -17.4840   20.5078 N.2     1  UNL1       -0.0311
     24 C         -11.2203  -17.9314   19.5169 C.2     1  UNL1        0.2319
     25 C         -10.2555  -18.8329   20.2285 C.2     1  UNL1        0.0328
     26 C         -10.6927  -18.9427   21.6593 C.2     1  UNL1        0.0704
     27 C         -10.1258  -19.6941   22.8272 C.3     1  UNL1        0.0598
@<TRIPOS>BOND
     1    18    19    1
     2    19    20    2
     3    20    21    1
     4    21    22    2
     5    22    23    1
     6    23    24    2
     7    24    25    1
     8    25    17    1
     9    17     1    1
    10     1     2   ar
    11     2     3   ar
    12     3     4   ar
    13     4     7    1
    14     7     9    1
    15     9    10    1
    16    10    11   ar
    17    11    12   ar
    18    12    13   ar
    19    13    14    1
    20    13    15   ar
    21    15    16   ar
    22     4     5   ar
    23     5     6   ar
    24    25    26    2
    25    26    27    1
    26    27    19    1
    27    26    22    1
    28     6     1   ar
    29    16    10   ar
    30     7     8    1
@<TRIPOS>MOLECULE
*****
 27 30 0 0 0
SMALL
GASTEIGER

@<TRIPOS>ATOM
      1 C          -7.8459  -19.7441   22.3535 C.ar    1  UNL1        0.0207
      2 C          -7.6673  -18.2562   22.4200 C.ar    1  UNL1        0.0994
      3 N          -6.3058  -17.6551   22.2329 N.ar    1  UNL1       -0.2126
      4 C          -5.1228  -18.5419   21.9793 C.ar    1  UNL1        0.2172
      5 N          -5.3015  -20.0298   21.9128 N.ar    1  UNL1       -0.2126
      6 C          -6.6629  -20.6309   22.0999 C.ar    1  UNL1        0.0994
      7 N          -3.7613  -17.9408   21.7922 N.pl3   1  UNL1       -0.2990
      8 H          -3.2452  -18.1353   20.9767 H       1  UNL1        0.1500
      9 C          -3.1863  -17.0433   22.8475 C.3     1  UNL1        0.1180
     10 C          -4.0568  -16.5419   23.9615 C.ar    1  UNL1        0.0167
     11 C          -4.0475  -17.2360   25.2911 C.ar    1  UNL1        0.0014
     12 C          -4.9180  -16.7347   26.4051 C.ar    1  UNL1        0.0305
     13 C          -5.7978  -15.5391   26.1893 C.ar    1  UNL1        0.1383
     14 CL         -6.6683  -15.0378   27.3033 Cl      1  UNL1       -0.0613
     15 N          -5.8071  -14.8450   24.8596 N.ar    1  UNL1       -0.2327
     16 C          -4.9366  -15.3464   23.7457 C.ar    1  UNL1        0.0972
     17 C          -9.2074  -20.3452   22.5406 C.3     1  UNL1        0.0596
     18 C         -11.5801  -15.9895   19.3484 C.3     1  UNL1        0.0307
     19 C         -11.7383  -16.6119   20.7040 C.2     1  UNL1        0.0074
     20 C         -12.7685  -16.0821   21.6569 C.2     1  UNL1        0.2278
     21 N         -12.9268  -16.7045   23.0125 N.2     1  UNL1       -0.0314
     22 C         -12.0549  -17.8567   23.4152 C.2     1  UNL1        0.3716
     23 N         -11.9813  -18.6674   24.6750 N.2     1  UNL1       -0.0311
     24 C         -10.9057  -19.6983   24.5008 C.2     1  UNL1        0.2319
     25 C         -10.3144  -19.5247   23.1332 C.2     1  UNL1        0.0328
     26 C         -11.0247  -18.3865   22.4623 C.2     1  UNL1        0.0704
     27 C         -10.8664  -17.7641   21.1067 C.3     1  UNL1        0.0598
@<TRIPOS>BOND
     1    18    19    1
     2    19    20    2
     3    20    21    1
     4    21    22    2
     5    22    23    1
     6    23    24    2
     7    24    25    1
     8    25    17    1
     9    17     1    1
    10     1     2   ar
    11     2     3   ar
    12     3     4   ar
    13     4     7    1
    14     7     9    1
    15     9    10    1
    16    10    11   ar
    17    11    12   ar
    18    12    13   ar
    19    13    14    1
    20    13    15   ar
    21    15    16   ar
    22     4     5   ar
    23     5     6   ar
    24    25    26    2
    25    26    27    1
    26    27    19    1
    27    26    22    1
    28     6     1   ar
    29    16    10   ar
    30     7     8    1
@<TRIPOS>MOLECULE
*****
 27 30 0 0 0
SMALL
GASTEIGER

@<TRIPOS>ATOM
      1 C           1.6266    0.8188   18.6919 C.ar    1  UNL1        0.0207
      2 C           1.2527    2.2504   18.4457 C.ar    1  UNL1        0.0994
      3 N           0.1480    2.8841   19.2381 N.ar    1  UNL1       -0.2126
      4 C          -0.5830    2.0861   20.2769 C.ar    1  UNL1        0.2172
      5 N          -0.2091    0.6544   20.5231 N.ar    1  UNL1       -0.2126
      6 C           0.8957    0.0207   19.7306 C.ar    1  UNL1        0.0994
      7 N          -1.6877    2.7197   21.0693 N.pl3   1  UNL1       -0.2990
      8 H          -1.6093    2.7984   22.0475 H       1  UNL1        0.1500
      9 C          -2.9120    3.2335   20.3713 C.3     1  UNL1        0.1180
     10 C          -4.1570    3.5230   21.1563 C.ar    1  UNL1        0.0167
     11 C          -4.1813    3.2879   22.6375 C.ar    1  UNL1        0.0014
     12 C          -5.4263    3.5773   23.4225 C.ar    1  UNL1        0.0305
     13 C          -6.6470    4.1018   22.7263 C.ar    1  UNL1        0.1383
     14 CL         -7.8920    4.3913   23.5113 Cl      1  UNL1       -0.0613
     15 N          -6.6226    4.3369   21.2450 N.ar    1  UNL1       -0.2327
     16 C          -5.3777    4.0475   20.4601 C.ar    1  UNL1        0.0972
     17 C           2.7313    0.1851   17.8994 C.3     1  UNL1        0.0596
     18 C           3.5352   -5.3632   19.7329 C.3     1  UNL1        0.0307
     19 C           4.2778   -4.0600   19.7171 C.2     1  UNL1        0.0074
     20 C           5.6541   -3.9738   20.3072 C.2     1  UNL1        0.2278
     21 N           6.3966   -2.6706   20.2914 N.2     1  UNL1       -0.0314
     22 C           5.7629   -1.4536   19.6855 C.2     1  UNL1        0.3716
     23 N           6.2479   -0.0431   19.5265 N.2     1  UNL1       -0.0311
     24 C           5.1713    0.7425   18.8381 C.2     1  UNL1        0.2319
     25 C           4.0209   -0.1825   18.5716 C.2     1  UNL1        0.0328
     26 C           4.3866   -1.5398   19.0954 C.2     1  UNL1        0.0704
     27 C           3.6440   -2.8430   19.1112 C.3     1  UNL1        0.0598
@<TRIPOS>BOND
     1    18    19    1
     2    19    20    2
     3    20    21    1
     4    21    22    2
     5    22    23    1
     6    23    24    2
     7    24    25    1
     8    25    17    1
     9    17     1    1
    10     1     2   ar
    11     2     3   ar
    12     3     4   ar
    13     4     7    1
    14     7     9    1
    15     9    10    1
    16    10    11   ar
    17    11    12   ar
    18    12    13   ar
    19    13    14    1
    20    13    15   ar
    21    15    16   ar
    22     4     5   ar
    23     5     6   ar
    24    25    26    2
    25    26    27    1
    26    27    19    1
    27    26    22    1
    28     6     1   ar
    29    16    10   ar
    30     7     8    1
@<TRIPOS>MOLECULE
*****
 27 30 0 0 0
SMALL
GASTEIGER

@<TRIPOS>ATOM
      1 C           4.9481   -3.4022   22.2587 C.ar    1  UNL1        0.0207
      2 C           4.2183   -2.3835   23.0831 C.ar    1  UNL1        0.0994
      3 N           4.8059   -1.9060   24.3780 N.ar    1  UNL1       -0.2126
      4 C           6.1234   -2.4473   24.8485 C.ar    1  UNL1        0.2172
      5 N           6.8532   -3.4660   24.0241 N.ar    1  UNL1       -0.2126
      6 C           6.2656   -3.9435   22.7292 C.ar    1  UNL1        0.0994
      7 N           6.7109   -1.9698   26.1434 N.pl3   1  UNL1       -0.2990
      8 H           7.6339   -1.6281   26.1689 H       1  UNL1        0.1500
      9 C           5.8923   -2.0130   27.3996 C.3     1  UNL1        0.1180
     10 C           6.2107   -3.0163   28.4682 C.ar    1  UNL1        0.0167
     11 C           6.3740   -2.5704   29.8910 C.ar    1  UNL1        0.0014
     12 C           6.6924   -3.5738   30.9596 C.ar    1  UNL1        0.0305
     13 C           6.8475   -5.0231   30.6054 C.ar    1  UNL1        0.1383
     14 CL          7.1659   -6.0264   31.6740 Cl      1  UNL1       -0.0613
     15 N           6.6842   -5.4690   29.1825 N.ar    1  UNL1       -0.2327
     16 C           6.3658   -4.4656   28.1140 C.ar    1  UNL1        0.0972
     17 C           4.3605   -3.8796   20.9638 C.3     1  UNL1        0.0596
     18 C           0.3288    0.3804   20.3403 C.3     1  UNL1        0.0307
     19 C           1.5131   -0.1707   19.6029 C.2     1  UNL1        0.0074
     20 C           1.9295    0.4334   18.2947 C.2     1  UNL1        0.2278
     21 N           3.1138   -0.1177   17.5573 N.2     1  UNL1       -0.0314
     22 C           3.8816   -1.2729   18.1281 C.2     1  UNL1        0.3716
     23 N           5.0821   -2.0232   17.6324 N.2     1  UNL1       -0.0311
     24 C           5.4077   -3.0910   18.6343 C.2     1  UNL1        0.2319
     25 C           4.4083   -3.0007   19.7493 C.2     1  UNL1        0.0328
     26 C           3.4651   -1.8770   19.4364 C.2     1  UNL1        0.0704
     27 C           2.2809   -1.3259   20.1738 C.3     1  UNL1        0.0598
@<TRIPOS>BOND
     1    18    19    1
     2    19    20    2
     3    20    21    1
     4    21    22    2
     5    22    23    1
     6    23    24    2
     7    24    25    1
     8    25    17    1
     9    17     1    1
    10     1     2   ar
    11     2     3   ar
    12     3     4   ar
    13     4     7    1
    14     7     9    1
    15     9    10    1
    16    10    11   ar
    17    11    12   ar
    18    12    13   ar
    19    13    14    1
    20    13    15   ar
    21    15    16   ar
    22     4     5   ar
    23     5     6   ar
    24    25    26    2
    25    26    27    1
    26    27    19    1
    27    26    22    1
    28     6     1   ar
    29    16    10   ar
    30     7     8    1
@<TRIPOS>MOLECULE
*****
 27 30 0 0 0
SMALL
GASTEIGER

@<TRIPOS>ATOM
      1 C           5.3063   -3.7563   21.6994 C.ar    1  UNL1        0.0207
      2 C           4.5819   -3.2164   22.8968 C.ar    1  UNL1        0.0994
      3 N           5.3269   -2.9666   24.1745 N.ar    1  UNL1       -0.2126
      4 C           6.7964   -3.2566   24.2549 C.ar    1  UNL1        0.2172
      5 N           7.5208   -3.7965   23.0574 N.ar    1  UNL1       -0.2126
      6 C           6.7758   -4.0464   21.7797 C.ar    1  UNL1        0.0994
      7 N           7.5414   -3.0068   25.5326 N.pl3   1  UNL1       -0.2990
      8 H           8.3099   -2.3916   25.5420 H       1  UNL1        0.1500
      9 C           7.1154   -3.6943   26.7958 C.3     1  UNL1        0.1180
     10 C           7.4408   -5.1432   27.0076 C.ar    1  UNL1        0.0167
     11 C           7.2229   -6.1305   25.8997 C.ar    1  UNL1        0.0014
     12 C           7.5484   -7.5794   26.1114 C.ar    1  UNL1        0.0305
     13 C           8.0917   -8.0410   27.4312 C.ar    1  UNL1        0.1383
     14 CL          8.4171   -9.4898   27.6429 Cl      1  UNL1       -0.0613
     15 N           8.3096   -7.0535   28.5391 N.ar    1  UNL1       -0.2327
     16 C           7.9842   -5.6047   28.3273 C.ar    1  UNL1        0.0972
     17 C           4.5613   -4.0061   20.4217 C.3     1  UNL1        0.0596
     18 C           0.3752    0.1481   20.5248 C.3     1  UNL1        0.0307
     19 C           1.5542   -0.2469   19.6858 C.2     1  UNL1        0.0074
     20 C           1.9111    0.5546   18.4691 C.2     1  UNL1        0.2278
     21 N           3.0901    0.1596   17.6301 N.2     1  UNL1       -0.0314
     22 C           3.9121   -1.0369   18.0077 C.2     1  UNL1        0.3716
     23 N           5.1212   -1.6631   17.3784 N.2     1  UNL1       -0.0311
     24 C           5.5115   -2.8516   18.2061 C.2     1  UNL1        0.2319
     25 C           4.5437   -2.9600   19.3469 C.2     1  UNL1        0.0328
     26 C           3.5552   -1.8383   19.2243 C.2     1  UNL1        0.0704
     27 C           2.3763   -1.4433   20.0633 C.3     1  UNL1        0.0598
@<TRIPOS>BOND
     1    18    19    1
     2    19    20    2
     3    20    21    1
     4    21    22    2
     5    22    23    1
     6    23    24    2
     7    24    25    1
     8    25    17    1
     9    17     1    1
    10     1     2   ar
    11     2     3   ar
    12     3     4   ar
    13     4     7    1
    14     7     9    1
    15     9    10    1
    16    10    11   ar
    17    11    12   ar
    18    12    13   ar
    19    13    14    1
    20    13    15   ar
    21    15    16   ar
    22     4     5   ar
    23     5     6   ar
    24    25    26    2
    25    26    27    1
    26    27    19    1
    27    26    22    1
    28     6     1   ar
    29    16    10   ar
    30     7     8    1
