@<TRIPOS>MOLECULE
*****
 27 29 0 0 0
SMALL
GASTEIGER

@<TRIPOS>ATOM
      1 C          -8.0921  -19.4192   20.2133 C.ar    1  UNL1        0.0527
      2 C          -9.3390  -19.6430   19.4100 C.ar    1  UNL1        0.1091
      3 N         -10.5075  -19.1818   20.2297 N.ar    1  UNL1       -0.2035
      4 C          -9.9828  -18.6729   21.5396 C.ar    1  UNL1        0.2628
      5 S          -8.4900  -18.8196   21.5294 S.2     1  UNL1       -0.0283
      6 C          -5.5350  -18.9836   20.3589 C.2     1  UNL1       -0.0064
      7 C          -6.6930  -19.7388   19.7770 C.2     1  UNL1        0.0052
      8 C          -4.1359  -19.3032   19.9227 C.3     1  UNL1        0.0939
      9 C          -3.7360  -20.7265   19.6689 C.3     1  UNL1        0.0262
     10 C          -1.2617  -16.6801   20.7025 C.3     1  UNL1        0.0946
     11 C          -2.2610  -17.7838   20.8849 C.2     1  UNL1        0.2232
     12 O          -2.3847  -18.4717   22.2121 O.2     1  UNL1       -0.2751
     13 N          -3.1366  -18.1996   19.7402 N.am    1  UNL1       -0.3022
     14 H          -3.0554  -17.7481   18.8691 H       1  UNL1        0.1497
     15 O         -10.8063  -18.1152   22.6624 O.3     1  UNL1       -0.4305
     16 C         -10.1325  -17.5422   23.8739 C.ar    1  UNL1        0.1583
     17 C          -9.7324  -16.0967   23.8963 C.ar    1  UNL1        0.0416
     18 C          -9.0586  -15.5238   25.1077 C.ar    1  UNL1        0.0401
     19 C          -8.7850  -16.3962   26.2968 C.ar    1  UNL1        0.1396
     20 C          -9.1852  -17.8416   26.2745 C.ar    1  UNL1        0.0514
     21 C          -9.8590  -18.4146   25.0630 C.ar    1  UNL1        0.0952
     22 CL        -10.2592  -19.8601   25.0406 Cl      1  UNL1       -0.0790
     23 O          -8.1112  -15.8232   27.5083 O.3     1  UNL1       -0.4754
     24 C          -6.7836  -15.1381   27.3745 C.3     1  UNL1        0.2053
     25 C          -5.8502  -15.5215   26.2646 C.3     1  UNL1        0.0438
     26 C          -5.4034  -15.3886   24.8389 C.3     1  UNL1        0.0038
     27 C          -4.6805  -16.3183   25.7678 C.3     1  UNL1        0.0038
@<TRIPOS>BOND
     1    10    11    1
     2    11    12    2
     3    11    13   am
     4    13     8    1
     5     8     9    1
     6     8     6    1
     7     6     7    2
     8     7     1    1
     9     1     2   ar
    10     2     3   ar
    11     3     4   ar
    12     4    15    1
    13    15    16    1
    14    16    17   ar
    15    17    18   ar
    16    18    19   ar
    17    19    23    1
    18    23    24    1
    19    24    25    1
    20    25    26    1
    21    26    27    1
    22    19    20   ar
    23    20    21   ar
    24    21    22    1
    25     4     5   ar
    26     5     1   ar
    27    21    16   ar
    28    27    25    1
    29    13    14    1
@<TRIPOS>MOLECULE
*****
 27 29 0 0 0
SMALL
GASTEIGER

@<TRIPOS>ATOM
      1 C          -5.3601  -15.8612   24.4675 C.ar    1  UNL1        0.0527
      2 C          -5.3593  -15.3528   25.8788 C.ar    1  UNL1        0.1091
      3 N          -6.7841  -15.2573   26.3379 N.ar    1  UNL1       -0.2035
      4 C          -7.6655  -15.7067   25.2105 C.ar    1  UNL1        0.2628
      5 S          -6.7854  -16.0800   24.0545 S.2     1  UNL1       -0.0283
      6 C          -4.0199  -17.3884   22.8484 C.2     1  UNL1       -0.0064
      7 C          -4.1483  -16.1076   23.6185 C.2     1  UNL1        0.0052
      8 C          -2.8082  -17.6348   21.9993 C.3     1  UNL1        0.0939
      9 C          -1.7793  -16.5565   21.8297 C.3     1  UNL1        0.0262
     10 C          -3.4465  -20.7535   19.6295 C.3     1  UNL1        0.0946
     11 C          -3.6293  -19.4288   20.3090 C.2     1  UNL1        0.2232
     12 O          -4.8162  -18.5735   19.9778 O.2     1  UNL1       -0.2751
     13 N          -2.6253  -18.9595   21.3198 N.am    1  UNL1       -0.3022
     14 H          -1.8464  -19.5209   21.5372 H       1  UNL1        0.1497
     15 O          -9.1638  -15.7715   25.2347 O.3     1  UNL1       -0.4305
     16 C          -9.9017  -16.4811   24.1382 C.ar    1  UNL1        0.1583
     17 C         -10.3227  -15.7305   22.9097 C.ar    1  UNL1        0.0416
     18 C         -11.0605  -16.4400   21.8133 C.ar    1  UNL1        0.0401
     19 C         -11.3774  -17.9002   21.9455 C.ar    1  UNL1        0.1396
     20 C         -10.9564  -18.6508   23.1740 C.ar    1  UNL1        0.0514
     21 C         -10.2186  -17.9413   24.2703 C.ar    1  UNL1        0.0952
     22 CL         -9.7976  -18.6919   25.4990 Cl      1  UNL1       -0.0790
     23 O         -12.1152  -18.6097   20.8490 O.3     1  UNL1       -0.4754
     24 C         -11.4109  -18.9500   19.5691 C.3     1  UNL1        0.2053
     25 C          -9.9572  -19.3197   19.5884 C.3     1  UNL1        0.0438
     26 C          -8.7676  -19.9473   18.9246 C.3     1  UNL1        0.0038
     27 C          -8.6292  -19.3323   20.2856 C.3     1  UNL1        0.0038
@<TRIPOS>BOND
     1    10    11    1
     2    11    12    2
     3    11    13   am
     4    13     8    1
     5     8     9    1
     6     8     6    1
     7     6     7    2
     8     7     1    1
     9     1     2   ar
    10     2     3   ar
    11     3     4   ar
    12     4    15    1
    13    15    16    1
    14    16    17   ar
    15    17    18   ar
    16    18    19   ar
    17    19    23    1
    18    23    24    1
    19    24    25    1
    20    25    26    1
    21    26    27    1
    22    19    20   ar
    23    20    21   ar
    24    21    22    1
    25     4     5   ar
    26     5     1   ar
    27    21    16   ar
    28    27    25    1
    29    13    14    1
@<TRIPOS>MOLECULE
*****
 27 29 0 0 0
SMALL
GASTEIGER

@<TRIPOS>ATOM
      1 C          -8.0573  -15.7600   24.6632 C.ar    1  UNL1        0.0527
      2 C          -7.5447  -15.4018   26.0267 C.ar    1  UNL1        0.1091
      3 N          -6.0465  -15.3660   25.9640 N.ar    1  UNL1       -0.2035
      4 C          -5.6330  -15.7020   24.5618 C.ar    1  UNL1        0.2628
      5 S          -6.8757  -15.9455   23.7579 S.2     1  UNL1       -0.0283
      6 C          -9.9090  -16.9807   23.3101 C.2     1  UNL1       -0.0064
      7 C          -9.4983  -15.9068   24.2734 C.2     1  UNL1        0.0052
      8 C         -11.3500  -17.1276   22.9204 C.3     1  UNL1        0.0939
      9 C         -12.2280  -18.1027   23.6473 C.3     1  UNL1        0.0262
     10 C         -12.0102  -15.6947   19.2789 C.3     1  UNL1        0.0946
     11 C         -11.4472  -16.5229   20.3956 C.2     1  UNL1        0.2232
     12 O         -10.4182  -17.5747   20.1041 O.2     1  UNL1       -0.2751
     13 N         -11.9131  -16.2993   21.8037 N.am    1  UNL1       -0.3022
     14 H         -12.5884  -15.6090   21.9951 H       1  UNL1        0.1497
     15 O          -4.2242  -15.7807   24.0530 O.3     1  UNL1       -0.4305
     16 C          -3.7911  -16.9522   23.2222 C.ar    1  UNL1        0.1583
     17 C          -4.4059  -18.3013   23.4499 C.ar    1  UNL1        0.0416
     18 C          -3.9729  -19.4727   22.6192 C.ar    1  UNL1        0.0401
     19 C          -2.9250  -19.2950   21.5607 C.ar    1  UNL1        0.1396
     20 C          -2.3102  -17.9459   21.3329 C.ar    1  UNL1        0.0514
     21 C          -2.7433  -16.7745   22.1637 C.ar    1  UNL1        0.0952
     22 CL         -2.1285  -15.4253   21.9359 Cl      1  UNL1       -0.0790
     23 O          -2.4920  -20.4665   20.7299 O.3     1  UNL1       -0.4754
     24 C          -3.4423  -21.0792   19.7443 C.3     1  UNL1        0.2053
     25 C          -4.9191  -20.8605   19.8909 C.3     1  UNL1        0.0438
     26 C          -6.1033  -19.9399   19.8809 C.3     1  UNL1        0.0038
     27 C          -6.2927  -21.4024   20.1547 C.3     1  UNL1        0.0038
@<TRIPOS>BOND
     1    10    11    1
     2    11    12    2
     3    11    13   am
     4    13     8    1
     5     8     9    1
     6     8     6    1
     7     6     7    2
     8     7     1    1
     9     1     2   ar
    10     2     3   ar
    11     3     4   ar
    12     4    15    1
    13    15    16    1
    14    16    17   ar
    15    17    18   ar
    16    18    19   ar
    17    19    23    1
    18    23    24    1
    19    24    25    1
    20    25    26    1
    21    26    27    1
    22    19    20   ar
    23    20    21   ar
    24    21    22    1
    25     4     5   ar
    26     5     1   ar
    27    21    16   ar
    28    27    25    1
    29    13    14    1
@<TRIPOS>MOLECULE
*****
 27 29 0 0 0
SMALL
GASTEIGER

@<TRIPOS>ATOM
      1 C          -4.7642  -16.4701   24.1649 C.ar    1  UNL1        0.0527
      2 C          -4.6873  -15.5222   25.3250 C.ar    1  UNL1        0.1091
      3 N          -6.0696  -15.0056   25.5938 N.ar    1  UNL1       -0.2035
      4 C          -7.0009  -15.6341   24.6000 C.ar    1  UNL1        0.2628
      5 S          -6.1940  -16.5392   23.7169 S.2     1  UNL1       -0.0283
      6 C          -3.8076  -17.9938   22.2905 C.2     1  UNL1       -0.0064
      7 C          -3.6133  -17.2175   23.5593 C.2     1  UNL1        0.0052
      8 C          -2.6567  -18.7412   21.6849 C.3     1  UNL1        0.0939
      9 C          -2.8345  -20.1645   21.2459 C.3     1  UNL1        0.0262
     10 C           0.5836  -17.2091   19.9813 C.3     1  UNL1        0.0946
     11 C          -0.7450  -17.8850   20.1480 C.2     1  UNL1        0.2232
     12 O          -1.4907  -18.3804   18.9445 O.2     1  UNL1       -0.2751
     13 N          -1.3280  -18.0654   21.5183 N.am    1  UNL1       -0.3022
     14 H          -0.8386  -17.7402   22.3082 H       1  UNL1        0.1497
     15 O          -8.4793  -15.3989   24.5058 O.3     1  UNL1       -0.4305
     16 C          -9.3149  -16.2372   23.5844 C.ar    1  UNL1        0.1583
     17 C         -10.1150  -17.3823   24.1308 C.ar    1  UNL1        0.0416
     18 C         -10.9506  -18.2205   23.2094 C.ar    1  UNL1        0.0401
     19 C         -10.9861  -17.9137   21.7415 C.ar    1  UNL1        0.1396
     20 C         -10.1860  -16.7687   21.1951 C.ar    1  UNL1        0.0514
     21 C          -9.3504  -15.9304   22.1165 C.ar    1  UNL1        0.0952
     22 CL         -8.5502  -14.7853   21.5701 Cl      1  UNL1       -0.0790
     23 O         -11.8218  -18.7521   20.8201 O.3     1  UNL1       -0.4754
     24 C         -11.3294  -19.0663   19.4386 C.3     1  UNL1        0.2053
     25 C          -9.9447  -19.6082   19.2410 C.3     1  UNL1        0.0438
     26 C          -8.4932  -19.6324   19.6184 C.3     1  UNL1        0.0038
     27 C          -8.9978  -20.5223   18.5214 C.3     1  UNL1        0.0038
@<TRIPOS>BOND
     1    10    11    1
     2    11    12    2
     3    11    13   am
     4    13     8    1
     5     8     9    1
     6     8     6    1
     7     6     7    2
     8     7     1    1
     9     1     2   ar
    10     2     3   ar
    11     3     4   ar
    12     4    15    1
    13    15    16    1
    14    16    17   ar
    15    17    18   ar
    16    18    19   ar
    17    19    23    1
    18    23    24    1
    19    24    25    1
    20    25    26    1
    21    26    27    1
    22    19    20   ar
    23    20    21   ar
    24    21    22    1
    25     4     5   ar
    26     5     1   ar
    27    21    16   ar
    28    27    25    1
    29    13    14    1
@<TRIPOS>MOLECULE
*****
 27 29 0 0 0
SMALL
GASTEIGER

@<TRIPOS>ATOM
      1 C          -8.5969  -15.9872   24.2727 C.ar    1  UNL1        0.0527
      2 C          -8.4080  -15.5341   25.6902 C.ar    1  UNL1        0.1091
      3 N          -6.9849  -15.0869   25.8481 N.ar    1  UNL1       -0.2035
      4 C          -6.2943  -15.2636   24.5283 C.ar    1  UNL1        0.2628
      5 S          -7.2906  -15.8200   23.5547 S.2     1  UNL1       -0.0283
      6 C         -10.2095  -16.2139   22.2483 C.2     1  UNL1       -0.0064
      7 C          -9.8688  -16.5148   23.6778 C.2     1  UNL1        0.0052
      8 C         -11.4814  -16.7415   21.6535 C.3     1  UNL1        0.0939
      9 C         -11.5128  -17.1814   20.2197 C.3     1  UNL1        0.0262
     10 C         -14.1939  -18.1145   24.2042 C.3     1  UNL1        0.0946
     11 C         -12.9536  -18.0267   23.3654 C.2     1  UNL1        0.2232
     12 O         -11.9449  -19.1365   23.3996 O.2     1  UNL1       -0.2751
     13 N         -12.7218  -16.8293   22.4923 N.am    1  UNL1       -0.3022
     14 H         -13.3838  -16.1009   22.4698 H       1  UNL1        0.1497
     15 O          -4.8594  -14.9406   24.2339 O.3     1  UNL1       -0.4305
     16 C          -3.9904  -15.9487   23.5420 C.ar    1  UNL1        0.1583
     17 C          -3.4060  -15.6371   22.1961 C.ar    1  UNL1        0.0416
     18 C          -2.5371  -16.6452   21.5043 C.ar    1  UNL1        0.0401
     19 C          -2.2525  -17.9648   22.1583 C.ar    1  UNL1        0.1396
     20 C          -2.8370  -18.2763   23.5041 C.ar    1  UNL1        0.0514
     21 C          -3.7059  -17.2683   24.1960 C.ar    1  UNL1        0.0952
     22 CL         -4.2904  -17.5798   25.5419 Cl      1  UNL1       -0.0790
     23 O          -1.3835  -18.9729   21.4664 O.3     1  UNL1       -0.4754
     24 C          -1.9926  -19.9639   20.5194 C.3     1  UNL1        0.2053
     25 C          -3.4678  -19.9342   20.2491 C.3     1  UNL1        0.0438
     26 C          -4.7931  -20.6346   20.1965 C.3     1  UNL1        0.0038
     27 C          -4.6974  -19.1824   19.8334 C.3     1  UNL1        0.0038
@<TRIPOS>BOND
     1    10    11    1
     2    11    12    2
     3    11    13   am
     4    13     8    1
     5     8     9    1
     6     8     6    1
     7     6     7    2
     8     7     1    1
     9     1     2   ar
    10     2     3   ar
    11     3     4   ar
    12     4    15    1
    13    15    16    1
    14    16    17   ar
    15    17    18   ar
    16    18    19   ar
    17    19    23    1
    18    23    24    1
    19    24    25    1
    20    25    26    1
    21    26    27    1
    22    19    20   ar
    23    20    21   ar
    24    21    22    1
    25     4     5   ar
    26     5     1   ar
    27    21    16   ar
    28    27    25    1
    29    13    14    1
@<TRIPOS>MOLECULE
*****
 27 29 0 0 0
SMALL
GASTEIGER

@<TRIPOS>ATOM
      1 C          -8.6765  -16.0344   23.8978 C.ar    1  UNL1        0.0527
      2 C          -8.7696  -15.5714   25.3216 C.ar    1  UNL1        0.1091
      3 N          -7.3956  -15.1690   25.7689 N.ar    1  UNL1       -0.2035
      4 C          -6.4533  -15.3831   24.6217 C.ar    1  UNL1        0.2628
      5 S          -7.2450  -15.9180   23.4653 S.2     1  UNL1       -0.0283
      6 C         -10.3872  -17.8934   23.2916 C.2     1  UNL1       -0.0064
      7 C          -9.8150  -16.5272   23.0547 C.2     1  UNL1        0.0052
      8 C         -11.5258  -18.3862   22.4484 C.3     1  UNL1        0.0939
      9 C         -12.9182  -17.8907   22.7048 C.3     1  UNL1        0.0262
     10 C         -10.3768  -19.9130   18.9702 C.3     1  UNL1        0.0946
     11 C         -10.6307  -18.9248   20.0697 C.2     1  UNL1        0.2232
     12 O         -10.2434  -17.4868   19.8898 O.2     1  UNL1       -0.2751
     13 N         -11.2719  -19.3745   21.3490 N.am    1  UNL1       -0.3022
     14 H         -11.5261  -20.3182   21.4670 H       1  UNL1        0.1497
     15 O          -4.9784  -15.1103   24.6295 O.3     1  UNL1       -0.4305
     16 C          -4.0567  -15.9457   23.7911 C.ar    1  UNL1        0.1583
     17 C          -3.5988  -15.4448   22.4535 C.ar    1  UNL1        0.0416
     18 C          -2.6771  -16.2801   21.6152 C.ar    1  UNL1        0.0401
     19 C          -2.2134  -17.6164   22.1146 C.ar    1  UNL1        0.1396
     20 C          -2.6713  -18.1173   23.4523 C.ar    1  UNL1        0.0514
     21 C          -3.5930  -17.2819   24.2905 C.ar    1  UNL1        0.0952
     22 CL         -4.0509  -17.7828   25.6283 Cl      1  UNL1       -0.0790
     23 O          -1.2917  -18.4517   21.2763 O.3     1  UNL1       -0.4754
     24 C          -1.8280  -19.2049   20.0952 C.3     1  UNL1        0.2053
     25 C          -3.2871  -19.5451   20.0222 C.3     1  UNL1        0.0438
     26 C          -4.7116  -19.1203   19.8214 C.3     1  UNL1        0.0038
     27 C          -4.3899  -20.5593   20.0965 C.3     1  UNL1        0.0038
@<TRIPOS>BOND
     1    10    11    1
     2    11    12    2
     3    11    13   am
     4    13     8    1
     5     8     9    1
     6     8     6    1
     7     6     7    2
     8     7     1    1
     9     1     2   ar
    10     2     3   ar
    11     3     4   ar
    12     4    15    1
    13    15    16    1
    14    16    17   ar
    15    17    18   ar
    16    18    19   ar
    17    19    23    1
    18    23    24    1
    19    24    25    1
    20    25    26    1
    21    26    27    1
    22    19    20   ar
    23    20    21   ar
    24    21    22    1
    25     4     5   ar
    26     5     1   ar
    27    21    16   ar
    28    27    25    1
    29    13    14    1
@<TRIPOS>MOLECULE
*****
 27 29 0 0 0
SMALL
GASTEIGER

@<TRIPOS>ATOM
      1 C           5.3847   -0.8142   34.0476 C.ar    1  UNL1        0.0527
      2 C           4.5106   -1.9527   33.6117 C.ar    1  UNL1        0.1091
      3 N           5.2515   -2.7319   32.5658 N.ar    1  UNL1       -0.2035
      4 C           6.5835   -2.0750   32.3553 C.ar    1  UNL1        0.2628
      5 S           6.6658   -0.8898   33.2711 S.2     1  UNL1       -0.0283
      6 C           4.6825   -0.2041   36.4734 C.2     1  UNL1       -0.0064
      7 C           5.0384    0.2185   35.0788 C.2     1  UNL1        0.0052
      8 C           4.3362    0.8286   37.5047 C.3     1  UNL1        0.0939
      9 C           5.0261    2.1605   37.4935 C.3     1  UNL1        0.0262
     10 C           0.9529    0.9589   39.5747 C.3     1  UNL1        0.0946
     11 C           1.9890    1.2580   38.5323 C.2     1  UNL1        0.2232
     12 O           1.7141    2.2858   37.4749 O.2     1  UNL1       -0.2751
     13 N           3.3001    0.5294   38.5472 N.am    1  UNL1       -0.3022
     14 H           3.4805   -0.1452   39.2412 H       1  UNL1        0.1497
     15 O           7.6466   -2.5244   31.3972 O.3     1  UNL1       -0.4305
     16 C           7.2912   -3.4238   30.2505 C.ar    1  UNL1        0.1583
     17 C           7.0184   -2.8399   28.8960 C.ar    1  UNL1        0.0416
     18 C           6.6630   -3.7393   27.7494 C.ar    1  UNL1        0.0401
     19 C           6.5805   -5.2225   27.9572 C.ar    1  UNL1        0.1396
     20 C           6.8533   -5.8064   29.3117 C.ar    1  UNL1        0.0514
     21 C           7.2086   -4.9070   30.4583 C.ar    1  UNL1        0.0952
     22 CL          7.4815   -5.4909   31.8129 Cl      1  UNL1       -0.0790
     23 O           6.2251   -6.1219   26.8105 O.3     1  UNL1       -0.4754
     24 C           7.1911   -7.1758   26.3566 C.3     1  UNL1        0.2053
     25 C           7.9137   -7.0188   25.0514 C.3     1  UNL1        0.0438
     26 C           8.8360   -7.5669   24.0031 C.3     1  UNL1        0.0038
     27 C           8.2429   -6.1989   23.8392 C.3     1  UNL1        0.0038
@<TRIPOS>BOND
     1    10    11    1
     2    11    12    2
     3    11    13   am
     4    13     8    1
     5     8     9    1
     6     8     6    1
     7     6     7    2
     8     7     1    1
     9     1     2   ar
    10     2     3   ar
    11     3     4   ar
    12     4    15    1
    13    15    16    1
    14    16    17   ar
    15    17    18   ar
    16    18    19   ar
    17    19    23    1
    18    23    24    1
    19    24    25    1
    20    25    26    1
    21    26    27    1
    22    19    20   ar
    23    20    21   ar
    24    21    22    1
    25     4     5   ar
    26     5     1   ar
    27    21    16   ar
    28    27    25    1
    29    13    14    1
@<TRIPOS>MOLECULE
*****
 27 29 0 0 0
SMALL
GASTEIGER

@<TRIPOS>ATOM
      1 C           5.4781   -2.2444   25.1986 C.ar    1  UNL1        0.0527
      2 C           6.5211   -3.2372   25.6190 C.ar    1  UNL1        0.1091
      3 N           6.7633   -4.1698   24.4694 N.ar    1  UNL1       -0.2035
      4 C           5.8701   -3.7534   23.3385 C.ar    1  UNL1        0.2628
      5 S           5.0759   -2.5634   23.7892 S.2     1  UNL1       -0.0283
      6 C           3.5686   -1.2475   26.6512 C.2     1  UNL1       -0.0064
      7 C           4.9332   -1.1284   26.0399 C.2     1  UNL1        0.0052
      8 C           3.0237   -0.1316   27.4925 C.3     1  UNL1        0.0939
      9 C           3.9607    0.7737   28.2358 C.3     1  UNL1        0.0262
     10 C          -0.6478    0.0466   28.9883 C.3     1  UNL1        0.0946
     11 C           0.8340   -0.1641   28.8903 C.2     1  UNL1        0.2232
     12 O           1.6081   -0.6178   30.0924 O.2     1  UNL1       -0.2751
     13 N           1.5418    0.0791   27.5904 N.am    1  UNL1       -0.3022
     14 H           1.0338    0.3769   26.8014 H       1  UNL1        0.1497
     15 O           5.7860   -4.4114   21.9932 O.3     1  UNL1       -0.4305
     16 C           5.9857   -3.5999   20.7475 C.ar    1  UNL1        0.1583
     17 C           7.0811   -2.5770   20.6864 C.ar    1  UNL1        0.0416
     18 C           7.2807   -1.7656   19.4407 C.ar    1  UNL1        0.0401
     19 C           6.3850   -1.9771   18.2563 C.ar    1  UNL1        0.1396
     20 C           5.2897   -3.0000   18.3174 C.ar    1  UNL1        0.0514
     21 C           5.0900   -3.8114   19.5631 C.ar    1  UNL1        0.0952
     22 CL          3.9946   -4.8344   19.6243 Cl      1  UNL1       -0.0790
     23 O           6.5847   -1.1656   17.0106 O.3     1  UNL1       -0.4754
     24 C           5.9177    0.1706   16.8709 C.3     1  UNL1        0.2053
     25 C           4.7733    0.5352   17.7697 C.3     1  UNL1        0.0438
     26 C           4.2608    1.1765   19.0250 C.3     1  UNL1        0.0038
     27 C           3.3039    0.5253   18.0709 C.3     1  UNL1        0.0038
@<TRIPOS>BOND
     1    10    11    1
     2    11    12    2
     3    11    13   am
     4    13     8    1
     5     8     9    1
     6     8     6    1
     7     6     7    2
     8     7     1    1
     9     1     2   ar
    10     2     3   ar
    11     3     4   ar
    12     4    15    1
    13    15    16    1
    14    16    17   ar
    15    17    18   ar
    16    18    19   ar
    17    19    23    1
    18    23    24    1
    19    24    25    1
    20    25    26    1
    21    26    27    1
    22    19    20   ar
    23    20    21   ar
    24    21    22    1
    25     4     5   ar
    26     5     1   ar
    27    21    16   ar
    28    27    25    1
    29    13    14    1
@<TRIPOS>MOLECULE
*****
 27 29 0 0 0
SMALL
GASTEIGER

@<TRIPOS>ATOM
      1 C           7.3191   -4.5385   25.0905 C.ar    1  UNL1        0.0527
      2 C           6.2524   -3.5321   24.7751 C.ar    1  UNL1        0.1091
      3 N           6.1072   -3.4625   23.2837 N.ar    1  UNL1       -0.2035
      4 C           7.0841   -4.4258   22.6774 C.ar    1  UNL1        0.2628
      5 S           7.8331   -5.0908   23.7941 S.2     1  UNL1       -0.0283
      6 C           6.9982   -5.9037   27.2775 C.2     1  UNL1       -0.0064
      7 C           7.7892   -4.9246   26.4615 C.2     1  UNL1        0.0052
      8 C           7.4684   -6.2898   28.6486 C.3     1  UNL1        0.0939
      9 C           8.6462   -7.2050   28.8075 C.3     1  UNL1        0.0262
     10 C           6.5498   -3.9880   31.7481 C.3     1  UNL1        0.0946
     11 C           7.2574   -4.5170   30.5360 C.2     1  UNL1        0.2232
     12 O           8.4618   -3.8021   29.9991 O.2     1  UNL1       -0.2751
     13 N           6.7606   -5.7609   29.8608 N.am    1  UNL1       -0.3022
     14 H           5.9701   -6.2301   30.2131 H       1  UNL1        0.1497
     15 O           7.2779   -4.6796   21.2119 O.3     1  UNL1       -0.4305
     16 C           6.5305   -3.8585   20.2032 C.ar    1  UNL1        0.1583
     17 C           5.2386   -4.3645   19.6332 C.ar    1  UNL1        0.0416
     18 C           4.4913   -3.5434   18.6246 C.ar    1  UNL1        0.0401
     19 C           5.0360   -2.2164   18.1860 C.ar    1  UNL1        0.1396
     20 C           6.3279   -1.7105   18.7559 C.ar    1  UNL1        0.0514
     21 C           7.0752   -2.5315   19.7645 C.ar    1  UNL1        0.0952
     22 CL          8.3671   -2.0256   20.3346 Cl      1  UNL1       -0.0790
     23 O           4.2886   -1.3953   17.1773 O.3     1  UNL1       -0.4754
     24 C           3.3202   -0.3450   17.6344 C.3     1  UNL1        0.2053
     25 C           2.6343   -0.4838   18.9613 C.3     1  UNL1        0.0438
     26 C           2.6876   -0.8193   20.4223 C.3     1  UNL1        0.0038
     27 C           1.3933   -0.3885   19.7984 C.3     1  UNL1        0.0038
@<TRIPOS>BOND
     1    10    11    1
     2    11    12    2
     3    11    13   am
     4    13     8    1
     5     8     9    1
     6     8     6    1
     7     6     7    2
     8     7     1    1
     9     1     2   ar
    10     2     3   ar
    11     3     4   ar
    12     4    15    1
    13    15    16    1
    14    16    17   ar
    15    17    18   ar
    16    18    19   ar
    17    19    23    1
    18    23    24    1
    19    24    25    1
    20    25    26    1
    21    26    27    1
    22    19    20   ar
    23    20    21   ar
    24    21    22    1
    25     4     5   ar
    26     5     1   ar
    27    21    16   ar
    28    27    25    1
    29    13    14    1
