@<TRIPOS>MOLECULE
*****
 25 28 0 0 0
SMALL
GASTEIGER

@<TRIPOS>ATOM
      1 N          -4.7979  -19.5900   21.2889 N.3     1  UNL1       -0.2665
      2 C          -5.8558  -18.6263   21.7385 C.3     1  UNL1        0.0899
      3 C          -7.2211  -18.6684   21.1186 C.3     1  UNL1        0.0900
      4 N          -7.5284  -19.6742   20.0491 N.3     1  UNL1       -0.2624
      5 C          -6.4706  -20.6379   19.5995 C.3     1  UNL1        0.0900
      6 C          -5.1053  -20.5958   20.2194 C.3     1  UNL1        0.0899
      7 C          -3.4326  -19.5479   21.9088 C.3     1  UNL1        0.0992
      8 C          -0.3465  -16.6622   20.3603 C.ar    1  UNL1       -0.0000
      9 C          -1.3316  -16.2196   21.4012 C.ar    1  UNL1       -0.0003
     10 C          -2.3603  -17.1815   21.9174 C.ar    1  UNL1       -0.0029
     11 C          -2.4039  -18.5860   21.3926 C.ar    1  UNL1       -0.0061
     12 C          -1.4188  -19.0286   20.3517 C.ar    1  UNL1       -0.0029
     13 C          -0.3900  -18.0667   19.8355 C.ar    1  UNL1       -0.0003
     14 C          -8.8938  -19.7163   19.4292 C.3     1  UNL1        0.1604
     15 C         -10.0497  -19.0504   20.1150 C.ar    1  UNL1        0.2426
     16 N         -10.8856  -17.9382   19.5545 N.ar    1  UNL1       -0.1099
     17 N         -11.9251  -17.5801   20.5748 N.ar    1  UNL1       -0.1072
     18 C         -11.7317  -18.4710   21.7660 C.ar    1  UNL1        0.2496
     19 O         -10.5726  -19.3797   21.4818 O.2     1  UNL1       -0.4181
     20 C         -12.5532  -18.4559   23.0210 C.ar    1  UNL1        0.0551
     21 C         -11.9010  -18.7114   24.3473 C.ar    1  UNL1        0.0047
     22 C         -12.7224  -18.6962   25.6023 C.ar    1  UNL1        0.0002
     23 C         -14.1961  -18.4256   25.5309 C.ar    1  UNL1        0.0000
     24 C         -14.8483  -18.1701   24.2045 C.ar    1  UNL1        0.0002
     25 C         -14.0269  -18.1852   22.9495 C.ar    1  UNL1        0.0047
@<TRIPOS>BOND
     1     8     9   ar
     2     9    10   ar
     3    10    11   ar
     4    11     7    1
     5     7     1    1
     6     1     2    1
     7     2     3    1
     8     3     4    1
     9     4    14    1
    10    14    15    1
    11    15    16   ar
    12    16    17   ar
    13    17    18   ar
    14    18    20    1
    15    20    21   ar
    16    21    22   ar
    17    22    23   ar
    18    23    24   ar
    19    24    25   ar
    20    18    19   ar
    21     4     5    1
    22     5     6    1
    23    11    12   ar
    24    12    13   ar
    25    13     8   ar
    26     6     1    1
    27    19    15   ar
    28    25    20   ar
@<TRIPOS>MOLECULE
*****
 25 28 0 0 0
SMALL
GASTEIGER

@<TRIPOS>ATOM
      1 N           7.1750   -4.0211   23.3913 N.3     1  UNL1       -0.2665
      2 C           5.6918   -3.8074   23.3222 C.3     1  UNL1        0.0899
      3 C           4.9955   -3.8051   21.9937 C.3     1  UNL1        0.0900
      4 N           5.7822   -4.0164   20.7341 N.3     1  UNL1       -0.2624
      5 C           7.2653   -4.2301   20.8031 C.3     1  UNL1        0.0900
      6 C           7.9617   -4.2324   22.1317 C.3     1  UNL1        0.0899
      7 C           7.8713   -4.0234   24.7198 C.3     1  UNL1        0.0992
      8 C           7.9603   -7.7726   27.2069 C.ar    1  UNL1       -0.0000
      9 C           7.9969   -7.8644   25.7102 C.ar    1  UNL1       -0.0003
     10 C           7.9672   -6.6147   24.8812 C.ar    1  UNL1       -0.0029
     11 C           7.9010   -5.2731   25.5488 C.ar    1  UNL1       -0.0061
     12 C           7.8644   -5.1813   27.0455 C.ar    1  UNL1       -0.0029
     13 C           7.8941   -6.4310   27.8746 C.ar    1  UNL1       -0.0003
     14 C           5.0858   -4.0140   19.4055 C.3     1  UNL1        0.1604
     15 C           4.7769   -2.7146   18.7230 C.ar    1  UNL1        0.2426
     16 N           5.3819   -2.2269   17.4400 N.ar    1  UNL1       -0.1099
     17 N           4.7876   -0.8856   17.1277 N.ar    1  UNL1       -0.1072
     18 C           3.8152   -0.5442   18.2177 C.ar    1  UNL1        0.2496
     19 O           3.8086   -1.6746   19.2036 O.2     1  UNL1       -0.4181
     20 C           2.9937    0.7077   18.3061 C.ar    1  UNL1        0.0551
     21 C           3.6691    2.0464   18.3500 C.ar    1  UNL1        0.0047
     22 C           2.8476    3.2983   18.4384 C.ar    1  UNL1        0.0002
     23 C           1.3508    3.2116   18.4830 C.ar    1  UNL1        0.0000
     24 C           0.6754    1.8729   18.4392 C.ar    1  UNL1        0.0002
     25 C           1.4969    0.6210   18.3507 C.ar    1  UNL1        0.0047
@<TRIPOS>BOND
     1     8     9   ar
     2     9    10   ar
     3    10    11   ar
     4    11     7    1
     5     7     1    1
     6     1     2    1
     7     2     3    1
     8     3     4    1
     9     4    14    1
    10    14    15    1
    11    15    16   ar
    12    16    17   ar
    13    17    18   ar
    14    18    20    1
    15    20    21   ar
    16    21    22   ar
    17    22    23   ar
    18    23    24   ar
    19    24    25   ar
    20    18    19   ar
    21     4     5    1
    22     5     6    1
    23    11    12   ar
    24    12    13   ar
    25    13     8   ar
    26     6     1    1
    27    19    15   ar
    28    25    20   ar
@<TRIPOS>MOLECULE
*****
 25 28 0 0 0
SMALL
GASTEIGER

@<TRIPOS>ATOM
      1 N           5.0696   -3.7077   20.7282 N.3     1  UNL1       -0.2665
      2 C           6.5283   -3.8746   20.4207 C.3     1  UNL1        0.0899
      3 C           7.5242   -3.9703   21.5382 C.3     1  UNL1        0.0900
      4 N           7.0615   -3.8991   22.9633 N.3     1  UNL1       -0.2624
      5 C           5.6029   -3.7322   23.2708 C.3     1  UNL1        0.0900
      6 C           4.6069   -3.6365   22.1533 C.3     1  UNL1        0.0899
      7 C           4.0737   -3.6120   19.6106 C.3     1  UNL1        0.0992
      8 C           2.6669    0.4193   18.1896 C.ar    1  UNL1       -0.0000
      9 C           3.6869   -0.3418   17.3957 C.ar    1  UNL1       -0.0003
     10 C           4.1558   -1.6855   17.8694 C.ar    1  UNL1       -0.0029
     11 C           3.6047   -2.2682   19.1369 C.ar    1  UNL1       -0.0061
     12 C           2.5847   -1.5071   19.9308 C.ar    1  UNL1       -0.0029
     13 C           2.1158   -0.1634   19.4571 C.ar    1  UNL1       -0.0003
     14 C           8.0575   -3.9949   24.0809 C.3     1  UNL1        0.1604
     15 C           7.6620   -4.6182   25.3866 C.ar    1  UNL1        0.2426
     16 N           7.2604   -6.0483   25.5951 N.ar    1  UNL1       -0.1099
     17 N           6.9489   -6.2349   27.0504 N.ar    1  UNL1       -0.1072
     18 C           7.1579   -4.9200   27.7415 C.ar    1  UNL1        0.2496
     19 O           7.5986   -3.9209   26.7132 O.2     1  UNL1       -0.4181
     20 C           6.9608   -4.6515   29.2041 C.ar    1  UNL1        0.0551
     21 C           6.5934   -3.2742   29.6708 C.ar    1  UNL1        0.0047
     22 C           6.3963   -3.0057   31.1334 C.ar    1  UNL1        0.0002
     23 C           6.5667   -4.1145   32.1291 C.ar    1  UNL1        0.0000
     24 C           6.9341   -5.4919   31.6623 C.ar    1  UNL1        0.0002
     25 C           7.1311   -5.7604   30.1998 C.ar    1  UNL1        0.0047
@<TRIPOS>BOND
     1     8     9   ar
     2     9    10   ar
     3    10    11   ar
     4    11     7    1
     5     7     1    1
     6     1     2    1
     7     2     3    1
     8     3     4    1
     9     4    14    1
    10    14    15    1
    11    15    16   ar
    12    16    17   ar
    13    17    18   ar
    14    18    20    1
    15    20    21   ar
    16    21    22   ar
    17    22    23   ar
    18    23    24   ar
    19    24    25   ar
    20    18    19   ar
    21     4     5    1
    22     5     6    1
    23    11    12   ar
    24    12    13   ar
    25    13     8   ar
    26     6     1    1
    27    19    15   ar
    28    25    20   ar
@<TRIPOS>MOLECULE
*****
 25 28 0 0 0
SMALL
GASTEIGER

@<TRIPOS>ATOM
      1 N           7.9360   -4.5088   24.9107 N.3     1  UNL1       -0.2665
      2 C           6.5576   -4.1081   24.4753 C.3     1  UNL1        0.0899
      3 C           6.2431   -3.9686   23.0153 C.3     1  UNL1        0.0900
      4 N           7.3070   -4.2299   21.9907 N.3     1  UNL1       -0.2624
      5 C           8.6853   -4.6305   22.4260 C.3     1  UNL1        0.0900
      6 C           8.9999   -4.7700   23.8860 C.3     1  UNL1        0.0899
      7 C           8.2505   -4.6482   26.3707 C.3     1  UNL1        0.0992
      8 C           8.8772   -8.7305   28.1574 C.ar    1  UNL1       -0.0000
      9 C           9.5338   -7.5321   28.7762 C.ar    1  UNL1       -0.0003
     10 C           9.3248   -6.1714   28.1806 C.ar    1  UNL1       -0.0029
     11 C           8.4594   -6.0090   26.9663 C.ar    1  UNL1       -0.0061
     12 C           7.8029   -7.2073   26.3475 C.ar    1  UNL1       -0.0029
     13 C           8.0118   -8.5681   26.9431 C.ar    1  UNL1       -0.0003
     14 C           6.9924   -4.0904   20.5306 C.3     1  UNL1        0.1604
     15 C           5.6189   -3.6727   20.0959 C.ar    1  UNL1        0.2426
     16 N           4.5463   -4.5803   19.5709 N.ar    1  UNL1       -0.1099
     17 N           3.3413   -3.7427   19.2604 N.ar    1  UNL1       -0.1072
     18 C           3.6693   -2.3173   19.5933 C.ar    1  UNL1        0.2496
     19 O           5.0769   -2.2741   20.1097 O.2     1  UNL1       -0.4181
     20 C           2.7509   -1.1417   19.4373 C.ar    1  UNL1        0.0551
     21 C           1.5403   -1.0143   20.3137 C.ar    1  UNL1        0.0047
     22 C           0.6219    0.1614   20.1577 C.ar    1  UNL1        0.0002
     23 C           0.9141    1.2096   19.1253 C.ar    1  UNL1        0.0000
     24 C           2.1248    1.0822   18.2489 C.ar    1  UNL1        0.0002
     25 C           3.0432   -0.0935   18.4049 C.ar    1  UNL1        0.0047
@<TRIPOS>BOND
     1     8     9   ar
     2     9    10   ar
     3    10    11   ar
     4    11     7    1
     5     7     1    1
     6     1     2    1
     7     2     3    1
     8     3     4    1
     9     4    14    1
    10    14    15    1
    11    15    16   ar
    12    16    17   ar
    13    17    18   ar
    14    18    20    1
    15    20    21   ar
    16    21    22   ar
    17    22    23   ar
    18    23    24   ar
    19    24    25   ar
    20    18    19   ar
    21     4     5    1
    22     5     6    1
    23    11    12   ar
    24    12    13   ar
    25    13     8   ar
    26     6     1    1
    27    19    15   ar
    28    25    20   ar
@<TRIPOS>MOLECULE
*****
 25 28 0 0 0
SMALL
GASTEIGER

@<TRIPOS>ATOM
      1 N           2.3644   -0.0534   19.2533 N.3     1  UNL1       -0.2665
      2 C           2.7189    1.2591   18.6193 C.3     1  UNL1        0.0899
      3 C           1.7501    2.4030   18.6712 C.3     1  UNL1        0.0900
      4 N           0.4268    2.2347   19.3571 N.3     1  UNL1       -0.2624
      5 C           0.0723    0.9223   19.9911 C.3     1  UNL1        0.0900
      6 C           1.0411   -0.2217   19.9392 C.3     1  UNL1        0.0899
      7 C           3.3332   -1.1973   19.2014 C.3     1  UNL1        0.0992
      8 C           4.6227   -3.2281   23.0044 C.ar    1  UNL1       -0.0000
      9 C           4.1730   -1.7974   23.0334 C.ar    1  UNL1       -0.0003
     10 C           3.7432   -1.1205   21.7657 C.ar    1  UNL1       -0.0029
     11 C           3.7630   -1.8743   20.4691 C.ar    1  UNL1       -0.0061
     12 C           4.2127   -3.3049   20.4401 C.ar    1  UNL1       -0.0029
     13 C           4.6425   -3.9819   21.7078 C.ar    1  UNL1       -0.0003
     14 C          -0.5420    3.3787   19.4090 C.3     1  UNL1        0.1604
     15 C          -1.6733    3.3594   20.3937 C.ar    1  UNL1        0.2426
     16 N          -3.1134    3.0847   20.0767 N.ar    1  UNL1       -0.1099
     17 N          -3.8933    3.1669   21.3554 N.ar    1  UNL1       -0.1072
     18 C          -2.9352    3.4925   22.4627 C.ar    1  UNL1        0.2496
     19 O          -1.5631    3.6115   21.8683 O.2     1  UNL1       -0.4181
     20 C          -3.2873    3.6683   23.9101 C.ar    1  UNL1        0.0551
     21 C          -4.7083    3.9354   24.3092 C.ar    1  UNL1        0.0047
     22 C          -5.0604    4.1112   25.7566 C.ar    1  UNL1        0.0002
     23 C          -3.9915    4.0198   26.8050 C.ar    1  UNL1        0.0000
     24 C          -2.5704    3.7527   26.4059 C.ar    1  UNL1        0.0002
     25 C          -2.2183    3.5769   24.9585 C.ar    1  UNL1        0.0047
@<TRIPOS>BOND
     1     8     9   ar
     2     9    10   ar
     3    10    11   ar
     4    11     7    1
     5     7     1    1
     6     1     2    1
     7     2     3    1
     8     3     4    1
     9     4    14    1
    10    14    15    1
    11    15    16   ar
    12    16    17   ar
    13    17    18   ar
    14    18    20    1
    15    20    21   ar
    16    21    22   ar
    17    22    23   ar
    18    23    24   ar
    19    24    25   ar
    20    18    19   ar
    21     4     5    1
    22     5     6    1
    23    11    12   ar
    24    12    13   ar
    25    13     8   ar
    26     6     1    1
    27    19    15   ar
    28    25    20   ar
@<TRIPOS>MOLECULE
*****
 25 28 0 0 0
SMALL
GASTEIGER

@<TRIPOS>ATOM
      1 N           3.4179    1.8206   33.7507 N.3     1  UNL1       -0.2665
      2 C           2.2764    2.3196   32.9151 C.3     1  UNL1        0.0899
      3 C           1.8260    1.5376   31.7169 C.3     1  UNL1        0.0900
      4 N           2.5171    0.2567   31.3542 N.3     1  UNL1       -0.2624
      5 C           3.6586   -0.2423   32.1897 C.3     1  UNL1        0.0900
      6 C           4.1090    0.5397   33.3880 C.3     1  UNL1        0.0899
      7 C           3.8683    2.6026   34.9488 C.3     1  UNL1        0.0992
      8 C           1.8028    2.0426   38.9074 C.ar    1  UNL1       -0.0000
      9 C           2.7799    1.0145   38.4192 C.ar    1  UNL1       -0.0003
     10 C           3.4684    1.2012   37.0997 C.ar    1  UNL1       -0.0029
     11 C           3.1798    2.4159   36.2684 C.ar    1  UNL1       -0.0061
     12 C           2.2027    3.4439   36.7566 C.ar    1  UNL1       -0.0029
     13 C           1.5142    3.2573   38.0761 C.ar    1  UNL1       -0.0003
     14 C           2.0667   -0.5253   30.1560 C.3     1  UNL1        0.1604
     15 C           0.9164   -0.0335   29.3285 C.ar    1  UNL1        0.2426
     16 N          -0.5266   -0.3949   29.5215 N.ar    1  UNL1       -0.1099
     17 N          -1.3278    0.3213   28.4751 N.ar    1  UNL1       -0.1072
     18 C          -0.3800    1.1255   27.6353 C.ar    1  UNL1        0.2496
     19 O           1.0069    0.9062   28.1628 O.2     1  UNL1       -0.4181
     20 C          -0.7537    1.9960   26.4724 C.ar    1  UNL1        0.0551
     21 C          -1.7463    3.1057   26.6546 C.ar    1  UNL1        0.0047
     22 C          -2.1199    3.9763   25.4917 C.ar    1  UNL1        0.0002
     23 C          -1.5009    3.7371   24.1464 C.ar    1  UNL1        0.0000
     24 C          -0.5083    2.6274   23.9642 C.ar    1  UNL1        0.0002
     25 C          -0.1346    1.7569   25.1271 C.ar    1  UNL1        0.0047
@<TRIPOS>BOND
     1     8     9   ar
     2     9    10   ar
     3    10    11   ar
     4    11     7    1
     5     7     1    1
     6     1     2    1
     7     2     3    1
     8     3     4    1
     9     4    14    1
    10    14    15    1
    11    15    16   ar
    12    16    17   ar
    13    17    18   ar
    14    18    20    1
    15    20    21   ar
    16    21    22   ar
    17    22    23   ar
    18    23    24   ar
    19    24    25   ar
    20    18    19   ar
    21     4     5    1
    22     5     6    1
    23    11    12   ar
    24    12    13   ar
    25    13     8   ar
    26     6     1    1
    27    19    15   ar
    28    25    20   ar
@<TRIPOS>MOLECULE
*****
 25 28 0 0 0
SMALL
GASTEIGER

@<TRIPOS>ATOM
      1 N           4.2806   -1.3705   18.7261 N.3     1  UNL1       -0.2665
      2 C           4.1186   -2.8618   18.7216 C.3     1  UNL1        0.0899
      3 C           5.1039   -3.7254   19.4518 C.3     1  UNL1        0.0900
      4 N           6.2513   -3.0978   20.1865 N.3     1  UNL1       -0.2624
      5 C           6.4132   -1.6066   20.1910 C.3     1  UNL1        0.0900
      6 C           5.4279   -0.7429   19.4608 C.3     1  UNL1        0.0899
      7 C           3.2952   -0.5069   17.9959 C.3     1  UNL1        0.0992
      8 C           0.1339    1.7312   20.2866 C.ar    1  UNL1       -0.0000
      9 C           0.3237    0.2604   20.5121 C.ar    1  UNL1       -0.0003
     10 C           1.3775   -0.4856   19.7485 C.ar    1  UNL1       -0.0029
     11 C           2.2415    0.2391   18.7594 C.ar    1  UNL1       -0.0061
     12 C           2.0517    1.7099   18.5340 C.ar    1  UNL1       -0.0029
     13 C           0.9979    2.4559   19.2976 C.ar    1  UNL1       -0.0003
     14 C           7.2366   -3.9615   20.9167 C.3     1  UNL1        0.1604
     15 C           7.0818   -4.1948   22.3903 C.ar    1  UNL1        0.2426
     16 N           6.3076   -3.3327   23.3429 N.ar    1  UNL1       -0.1099
     17 N           6.4213   -3.9363   24.7114 N.ar    1  UNL1       -0.1072
     18 C           7.2657   -5.1715   24.6046 C.ar    1  UNL1        0.2496
     19 O           7.6739   -5.3313   23.1701 O.2     1  UNL1       -0.4181
     20 C           7.6367   -6.0863   25.7340 C.ar    1  UNL1        0.0551
     21 C           7.5923   -5.5881   27.1481 C.ar    1  UNL1        0.0047
     22 C           7.9634   -6.5029   28.2775 C.ar    1  UNL1        0.0002
     23 C           8.3788   -7.9158   27.9927 C.ar    1  UNL1        0.0000
     24 C           8.4232   -8.4140   26.5785 C.ar    1  UNL1        0.0002
     25 C           8.0521   -7.4992   25.4492 C.ar    1  UNL1        0.0047
@<TRIPOS>BOND
     1     8     9   ar
     2     9    10   ar
     3    10    11   ar
     4    11     7    1
     5     7     1    1
     6     1     2    1
     7     2     3    1
     8     3     4    1
     9     4    14    1
    10    14    15    1
    11    15    16   ar
    12    16    17   ar
    13    17    18   ar
    14    18    20    1
    15    20    21   ar
    16    21    22   ar
    17    22    23   ar
    18    23    24   ar
    19    24    25   ar
    20    18    19   ar
    21     4     5    1
    22     5     6    1
    23    11    12   ar
    24    12    13   ar
    25    13     8   ar
    26     6     1    1
    27    19    15   ar
    28    25    20   ar
@<TRIPOS>MOLECULE
*****
 25 28 0 0 0
SMALL
GASTEIGER

@<TRIPOS>ATOM
      1 N           7.3842   -5.8752   25.7858 N.3     1  UNL1       -0.2665
      2 C           6.5969   -4.6027   25.6810 C.3     1  UNL1        0.0899
      3 C           6.5715   -3.8406   24.3893 C.3     1  UNL1        0.0900
      4 N           7.3333   -4.3511   23.2023 N.3     1  UNL1       -0.2624
      5 C           8.1205   -5.6237   23.3070 C.3     1  UNL1        0.0900
      6 C           8.1459   -6.3857   24.5987 C.3     1  UNL1        0.0899
      7 C           7.4096   -6.6373   27.0775 C.3     1  UNL1        0.0992
      8 C           8.4380   -4.5254   30.9158 C.ar    1  UNL1       -0.0000
      9 C           7.0028   -4.7766   30.5593 C.ar    1  UNL1       -0.0003
     10 C           6.6600   -5.4806   29.2798 C.ar    1  UNL1       -0.0029
     11 C           7.7524   -5.9333   28.3570 C.ar    1  UNL1       -0.0061
     12 C           9.1875   -5.6821   28.7135 C.ar    1  UNL1       -0.0029
     13 C           9.5303   -4.9782   29.9930 C.ar    1  UNL1       -0.0003
     14 C           7.3079   -3.5890   21.9105 C.3     1  UNL1        0.1604
     15 C           6.0076   -3.3662   21.1966 C.ar    1  UNL1        0.2426
     16 N           5.1147   -4.4338   20.6373 N.ar    1  UNL1       -0.1099
     17 N           3.9272   -3.7641   20.0118 N.ar    1  UNL1       -0.1072
     18 C           4.0862   -2.2825   20.1844 C.ar    1  UNL1        0.2496
     19 O           5.3720   -2.0367   20.9167 O.2     1  UNL1       -0.4181
     20 C           3.1278   -1.2315   19.7084 C.ar    1  UNL1        0.0551
     21 C           3.5096   -0.3264   18.5748 C.ar    1  UNL1        0.0047
     22 C           2.5511    0.7246   18.0988 C.ar    1  UNL1        0.0002
     23 C           1.2109    0.8707   18.7564 C.ar    1  UNL1        0.0000
     24 C           0.8291   -0.0344   19.8901 C.ar    1  UNL1        0.0002
     25 C           1.7875   -1.0854   20.3661 C.ar    1  UNL1        0.0047
@<TRIPOS>BOND
     1     8     9   ar
     2     9    10   ar
     3    10    11   ar
     4    11     7    1
     5     7     1    1
     6     1     2    1
     7     2     3    1
     8     3     4    1
     9     4    14    1
    10    14    15    1
    11    15    16   ar
    12    16    17   ar
    13    17    18   ar
    14    18    20    1
    15    20    21   ar
    16    21    22   ar
    17    22    23   ar
    18    23    24   ar
    19    24    25   ar
    20    18    19   ar
    21     4     5    1
    22     5     6    1
    23    11    12   ar
    24    12    13   ar
    25    13     8   ar
    26     6     1    1
    27    19    15   ar
    28    25    20   ar
@<TRIPOS>MOLECULE
*****
 25 28 0 0 0
SMALL
GASTEIGER

@<TRIPOS>ATOM
      1 N           8.6045   -5.9329   29.0689 N.3     1  UNL1       -0.2665
      2 C           9.5359   -4.7727   29.2601 C.3     1  UNL1        0.0899
      3 C           9.1623   -3.6563   30.1896 C.3     1  UNL1        0.0900
      4 N           7.8573   -3.7000   30.9278 N.3     1  UNL1       -0.2624
      5 C           6.9259   -4.8601   30.7367 C.3     1  UNL1        0.0900
      6 C           7.2995   -5.9766   29.8072 C.3     1  UNL1        0.0899
      7 C           8.9782   -7.0494   28.1395 C.3     1  UNL1        0.0992
      8 C           8.3551   -6.5905   23.7065 C.ar    1  UNL1       -0.0000
      9 C           9.2021   -7.7110   24.2328 C.ar    1  UNL1       -0.0003
     10 C           9.4098   -7.8639   25.7105 C.ar    1  UNL1       -0.0029
     11 C           8.7705   -6.8964   26.6618 C.ar    1  UNL1       -0.0061
     12 C           7.9235   -5.7759   26.1356 C.ar    1  UNL1       -0.0029
     13 C           7.7158   -5.6230   24.6579 C.ar    1  UNL1       -0.0003
     14 C           7.4836   -2.5834   31.8573 C.3     1  UNL1        0.1604
     15 C           6.0446   -2.1928   32.0200 C.ar    1  UNL1        0.2426
     16 N           5.0785   -2.7776   33.0073 N.ar    1  UNL1       -0.1099
     17 N           3.7558   -2.0950   32.8215 N.ar    1  UNL1       -0.1072
     18 C           3.9044   -1.0884   31.7193 C.ar    1  UNL1        0.2496
     19 O           5.3190   -1.1488   31.2241 O.2     1  UNL1       -0.4181
     20 C           2.8275   -0.1807   31.2032 C.ar    1  UNL1        0.0551
     21 C           2.1426   -0.4919   29.9055 C.ar    1  UNL1        0.0047
     22 C           1.0657    0.4158   29.3894 C.ar    1  UNL1        0.0002
     23 C           0.6738    1.6347   30.1709 C.ar    1  UNL1        0.0000
     24 C           1.3587    1.9459   31.4686 C.ar    1  UNL1        0.0002
     25 C           2.4356    1.0382   31.9847 C.ar    1  UNL1        0.0047
@<TRIPOS>BOND
     1     8     9   ar
     2     9    10   ar
     3    10    11   ar
     4    11     7    1
     5     7     1    1
     6     1     2    1
     7     2     3    1
     8     3     4    1
     9     4    14    1
    10    14    15    1
    11    15    16   ar
    12    16    17   ar
    13    17    18   ar
    14    18    20    1
    15    20    21   ar
    16    21    22   ar
    17    22    23   ar
    18    23    24   ar
    19    24    25   ar
    20    18    19   ar
    21     4     5    1
    22     5     6    1
    23    11    12   ar
    24    12    13   ar
    25    13     8   ar
    26     6     1    1
    27    19    15   ar
    28    25    20   ar
