@<TRIPOS>MOLECULE
*****
 33 38 0 0 0
SMALL
GASTEIGER

@<TRIPOS>ATOM
      1 N          -5.4257  -16.6894   24.0974 N.ar    1  UNL1       -0.2103
      2 N          -5.1248  -16.3150   25.5184 N.ar    1  UNL1       -0.0595
      3 N          -6.3583  -15.6958   26.1058 N.ar    1  UNL1       -0.1269
      4 C          -7.4216  -15.6876   25.0477 C.ar    1  UNL1        0.1412
      5 C          -8.8402  -15.2003   25.0542 C.ar    1  UNL1        0.1213
      6 N          -9.6824  -15.3270   23.8195 N.ar    1  UNL1       -0.2406
      7 C          -9.1060  -15.9411   22.5782 C.ar    1  UNL1        0.1002
      8 C          -7.6874  -16.4284   22.5717 C.ar    1  UNL1        0.0415
      9 C          -6.8452  -16.3017   23.8065 C.ar    1  UNL1        0.1068
     10 O           0.6354  -17.7350   19.2196 O.2     1  UNL1       -0.2484
     11 C          -0.5858  -17.8087   20.0875 C.2     1  UNL1        0.3478
     12 N          -1.4752  -19.0045   20.2583 N.am    1  UNL1       -0.1594
     13 C          -2.5711  -18.6345   21.2134 C.ar    1  UNL1        0.0904
     14 C          -3.7346  -19.4106   21.7553 C.ar    1  UNL1        0.0195
     15 C          -4.6862  -18.7622   22.7166 C.ar    1  UNL1        0.0206
     16 C          -4.4741  -17.3378   23.1360 C.ar    1  UNL1        0.0858
     17 C          -3.3105  -16.5617   22.5941 C.ar    1  UNL1        0.0372
     18 C          -2.3590  -17.2100   21.6328 C.ar    1  UNL1        0.0918
     19 N          -1.1321  -16.6997   20.9369 N.am    1  UNL1       -0.1593
     20 C          -9.9483  -16.0677   21.3435 C.ar    1  UNL1        0.0974
     21 C         -10.0710  -15.0470   20.2512 C.ar    1  UNL1        0.0427
     22 C         -11.0143  -15.5859   19.2169 C.ar    1  UNL1        0.1217
     23 N         -11.4746  -16.9398   19.6700 N.ar    1  UNL1       -0.1673
     24 N         -10.8158  -17.2376   20.9842 N.ar    1  UNL1       -0.2449
     25 C         -10.9933  -18.4860   21.7966 C.3     1  UNL1        0.1547
     26 C         -11.9223  -18.4887   22.9743 C.ar    1  UNL1        0.0127
     27 C         -13.3447  -18.0423   22.8086 C.ar    1  UNL1       -0.0006
     28 C         -14.2737  -18.0450   23.9862 C.ar    1  UNL1        0.0112
     29 C         -13.7803  -18.4941   25.3298 C.ar    1  UNL1        0.0585
     30 CL        -14.7092  -18.4968   26.5074 Cl      1  UNL1       -0.0822
     31 C         -12.3578  -18.9404   25.4955 C.ar    1  UNL1        0.0225
     32 C         -11.4288  -18.9377   24.3177 C.ar    1  UNL1        0.0564
     33 CL        -10.0064  -19.3841   24.4835 Cl      1  UNL1       -0.0825
@<TRIPOS>BOND
     1    10    11    2
     2    11    12    1
     3    12    13    2
     4    13    14   ar
     5    14    15   ar
     6    15    16   ar
     7    16     1    1
     8     1     2   ar
     9     2     3   ar
    10     3     4   ar
    11     4     5   ar
    12     5     6   ar
    13     6     7   ar
    14     7    20    1
    15    20    21   ar
    16    21    22   ar
    17    22    23   ar
    18    23    24   ar
    19    24    25    1
    20    25    26    1
    21    26    27   ar
    22    27    28   ar
    23    28    29   ar
    24    29    30    1
    25    29    31   ar
    26    31    32   ar
    27    32    33    1
    28     7     8   ar
    29     8     9   ar
    30    16    17   ar
    31    17    18   ar
    32    18    19    2
    33    19    11    1
    34    18    13   ar
    35     9     1   ar
    36     9     4   ar
    37    24    20   ar
    38    32    26   ar
@<TRIPOS>MOLECULE
*****
 33 38 0 0 0
SMALL
GASTEIGER

@<TRIPOS>ATOM
      1 N          -5.1629  -16.3559   24.4819 N.ar    1  UNL1       -0.2103
      2 N          -4.8851  -15.7991   25.8468 N.ar    1  UNL1       -0.0595
      3 N          -6.1776  -15.2881   26.4108 N.ar    1  UNL1       -0.1269
      4 C          -7.2543  -15.5290   25.3946 C.ar    1  UNL1        0.1412
      5 C          -8.7247  -15.2328   25.4007 C.ar    1  UNL1        0.1213
      6 N          -9.5680  -15.5964   24.2148 N.ar    1  UNL1       -0.2406
      7 C          -8.9409  -16.2564   23.0226 C.ar    1  UNL1        0.1002
      8 C          -7.4705  -16.5527   23.0165 C.ar    1  UNL1        0.0415
      9 C          -6.6272  -16.1890   24.2025 C.ar    1  UNL1        0.1068
     10 O          -1.0388  -17.9562   17.9970 O.2     1  UNL1       -0.2484
     11 C          -1.6572  -17.8479   19.3593 C.2     1  UNL1        0.3478
     12 N          -1.2543  -18.6285   20.5751 N.am    1  UNL1       -0.1594
     13 C          -2.1352  -18.2029   21.7122 C.ar    1  UNL1        0.0904
     14 C          -2.1970  -18.6309   23.1485 C.ar    1  UNL1        0.0195
     15 C          -3.2062  -18.0152   24.0717 C.ar    1  UNL1        0.0206
     16 C          -4.1536  -16.9716   23.5586 C.ar    1  UNL1        0.0858
     17 C          -4.0918  -16.5436   22.1223 C.ar    1  UNL1        0.0372
     18 C          -3.0826  -17.1593   21.1991 C.ar    1  UNL1        0.0918
     19 N          -2.7872  -16.9399   19.7450 N.am    1  UNL1       -0.1593
     20 C          -9.7843  -16.6201   21.8367 C.ar    1  UNL1        0.0974
     21 C         -10.5986  -15.6702   21.0092 C.ar    1  UNL1        0.0427
     22 C         -11.2790  -16.4607   19.9311 C.ar    1  UNL1        0.1217
     23 N         -10.8852  -17.8991   20.0923 N.ar    1  UNL1       -0.1673
     24 N          -9.9615  -17.9976   21.2700 N.ar    1  UNL1       -0.2449
     25 C          -9.3264  -19.2532   21.7897 C.3     1  UNL1        0.1547
     26 C          -7.9494  -19.6399   21.3376 C.ar    1  UNL1        0.0127
     27 C          -6.8115  -19.6398   22.3148 C.ar    1  UNL1       -0.0006
     28 C          -5.4345  -20.0265   21.8627 C.ar    1  UNL1        0.0112
     29 C          -5.1955  -20.4134   20.4332 C.ar    1  UNL1        0.0585
     30 CL         -3.8186  -20.8001   19.9810 Cl      1  UNL1       -0.0822
     31 C          -6.3335  -20.4135   19.4559 C.ar    1  UNL1        0.0225
     32 C          -7.7105  -20.0268   19.9082 C.ar    1  UNL1        0.0564
     33 CL         -8.8485  -20.0269   18.9309 Cl      1  UNL1       -0.0825
@<TRIPOS>BOND
     1    10    11    2
     2    11    12    1
     3    12    13    2
     4    13    14   ar
     5    14    15   ar
     6    15    16   ar
     7    16     1    1
     8     1     2   ar
     9     2     3   ar
    10     3     4   ar
    11     4     5   ar
    12     5     6   ar
    13     6     7   ar
    14     7    20    1
    15    20    21   ar
    16    21    22   ar
    17    22    23   ar
    18    23    24   ar
    19    24    25    1
    20    25    26    1
    21    26    27   ar
    22    27    28   ar
    23    28    29   ar
    24    29    30    1
    25    29    31   ar
    26    31    32   ar
    27    32    33    1
    28     7     8   ar
    29     8     9   ar
    30    16    17   ar
    31    17    18   ar
    32    18    19    2
    33    19    11    1
    34    18    13   ar
    35     9     1   ar
    36     9     4   ar
    37    24    20   ar
    38    32    26   ar
@<TRIPOS>MOLECULE
*****
 33 38 0 0 0
SMALL
GASTEIGER

@<TRIPOS>ATOM
      1 N           5.5212   -1.9738   25.8554 N.ar    1  UNL1       -0.2103
      2 N           6.7321   -2.2265   26.7039 N.ar    1  UNL1       -0.0595
      3 N           7.6717   -3.0970   25.9232 N.ar    1  UNL1       -0.1269
      4 C           7.0413   -3.3824   24.5923 C.ar    1  UNL1        0.1412
      5 C           7.5059   -4.1846   23.4130 C.ar    1  UNL1        0.1213
      6 N           6.6415   -4.2927   22.1920 N.ar    1  UNL1       -0.2406
      7 C           5.3124   -3.5985   22.1501 C.ar    1  UNL1        0.1002
      8 C           4.8478   -2.7963   23.3293 C.ar    1  UNL1        0.0415
      9 C           5.7123   -2.6882   24.5504 C.ar    1  UNL1        0.1068
     10 O          -0.4418    0.9355   30.0509 O.2     1  UNL1       -0.2484
     11 C           0.6089    0.5642   29.0468 C.2     1  UNL1        0.3478
     12 N           0.7692    1.1569   27.6782 N.am    1  UNL1       -0.1594
     13 C           1.9433    0.4941   27.0207 C.ar    1  UNL1        0.0904
     14 C           2.5706    0.6738   25.6701 C.ar    1  UNL1        0.0195
     15 C           3.7632   -0.1489   25.2817 C.ar    1  UNL1        0.0206
     16 C           4.3285   -1.1512   26.2439 C.ar    1  UNL1        0.0858
     17 C           3.7012   -1.3308   27.5945 C.ar    1  UNL1        0.0372
     18 C           2.5086   -0.5082   27.9829 C.ar    1  UNL1        0.0918
     19 N           1.6839   -0.4648   29.2351 N.am    1  UNL1       -0.1593
     20 C           4.4480   -3.7066   20.9290 C.ar    1  UNL1        0.0974
     21 C           4.0234   -4.9798   20.2591 C.ar    1  UNL1        0.0427
     22 C           3.1694   -4.6205   19.0795 C.ar    1  UNL1        0.1217
     23 N           3.0662   -3.1253   19.0203 N.ar    1  UNL1       -0.1673
     24 N           3.8564   -2.5604   20.1633 N.ar    1  UNL1       -0.2449
     25 C           4.0253   -1.1049   20.4843 C.3     1  UNL1        0.1547
     26 C           2.8248   -0.2086   20.5569 C.ar    1  UNL1        0.0127
     27 C           2.1452    0.0297   21.8727 C.ar    1  UNL1       -0.0006
     28 C           0.9447    0.9260   21.9453 C.ar    1  UNL1        0.0112
     29 C           0.4237    1.5840   20.7021 C.ar    1  UNL1        0.0585
     30 CL         -0.7769    2.4803   20.7747 Cl      1  UNL1       -0.0822
     31 C           1.1032    1.3457   19.3863 C.ar    1  UNL1        0.0225
     32 C           2.3038    0.4493   19.3137 C.ar    1  UNL1        0.0564
     33 CL          2.9834    0.2110   17.9979 Cl      1  UNL1       -0.0825
@<TRIPOS>BOND
     1    10    11    2
     2    11    12    1
     3    12    13    2
     4    13    14   ar
     5    14    15   ar
     6    15    16   ar
     7    16     1    1
     8     1     2   ar
     9     2     3   ar
    10     3     4   ar
    11     4     5   ar
    12     5     6   ar
    13     6     7   ar
    14     7    20    1
    15    20    21   ar
    16    21    22   ar
    17    22    23   ar
    18    23    24   ar
    19    24    25    1
    20    25    26    1
    21    26    27   ar
    22    27    28   ar
    23    28    29   ar
    24    29    30    1
    25    29    31   ar
    26    31    32   ar
    27    32    33    1
    28     7     8   ar
    29     8     9   ar
    30    16    17   ar
    31    17    18   ar
    32    18    19    2
    33    19    11    1
    34    18    13   ar
    35     9     1   ar
    36     9     4   ar
    37    24    20   ar
    38    32    26   ar
@<TRIPOS>MOLECULE
*****
 33 38 0 0 0
SMALL
GASTEIGER

@<TRIPOS>ATOM
      1 N          -4.7458    4.1826   19.0240 N.ar    1  UNL1       -0.2103
      2 N          -5.5826    4.3239   17.7872 N.ar    1  UNL1       -0.0595
      3 N          -4.6675    4.2720   16.5999 N.ar    1  UNL1       -0.1269
      4 C          -3.2650    4.0986   17.1029 C.ar    1  UNL1        0.1412
      5 C          -1.9501    3.9839   16.3904 C.ar    1  UNL1        0.1213
      6 N          -0.6837    3.8139   17.1759 N.ar    1  UNL1       -0.2406
      7 C          -0.7320    3.7586   18.6741 C.ar    1  UNL1        0.1002
      8 C          -2.0470    3.8733   19.3867 C.ar    1  UNL1        0.0415
      9 C          -3.3134    4.0433   18.6011 C.ar    1  UNL1        0.1068
     10 O          -9.0357    5.8872   25.3734 O.2     1  UNL1       -0.2484
     11 C          -8.0734    5.3855   24.3379 C.2     1  UNL1        0.3478
     12 N          -6.9790    4.3846   24.5627 N.am    1  UNL1       -0.1594
     13 C          -6.2657    4.1771   23.2596 C.ar    1  UNL1        0.0904
     14 C          -5.1055    3.3063   22.8780 C.ar    1  UNL1        0.0195
     15 C          -4.5989    3.3082   21.4662 C.ar    1  UNL1        0.0206
     16 C          -5.2525    4.1808   20.4359 C.ar    1  UNL1        0.0858
     17 C          -6.4127    5.0515   20.8175 C.ar    1  UNL1        0.0372
     18 C          -6.9193    5.0497   22.2294 C.ar    1  UNL1        0.0918
     19 N          -8.0365    5.7965   22.8958 N.am    1  UNL1       -0.1593
     20 C           0.5344    3.5886   19.4596 C.ar    1  UNL1        0.0974
     21 C           1.0693    4.5413   20.4874 C.ar    1  UNL1        0.0427
     22 C           2.3539    3.9774   21.0182 C.ar    1  UNL1        0.1217
     23 N           2.6131    2.6762   20.3184 N.ar    1  UNL1       -0.1673
     24 N           1.4887    2.4358   19.3552 N.ar    1  UNL1       -0.2449
     25 C           1.3438    1.2509   18.4470 C.3     1  UNL1        0.1547
     26 C           2.3038    0.1032   18.5525 C.ar    1  UNL1        0.0127
     27 C           3.3945   -0.0581   17.5355 C.ar    1  UNL1       -0.0006
     28 C           4.3546   -1.2057   17.6410 C.ar    1  UNL1        0.0112
     29 C           4.2240   -2.1921   18.7635 C.ar    1  UNL1        0.0585
     30 CL          5.1840   -3.3398   18.8690 Cl      1  UNL1       -0.0822
     31 C           3.1332   -2.0308   19.7805 C.ar    1  UNL1        0.0225
     32 C           2.1732   -0.8831   19.6750 C.ar    1  UNL1        0.0564
     33 CL          1.0824   -0.7217   20.6920 Cl      1  UNL1       -0.0825
@<TRIPOS>BOND
     1    10    11    2
     2    11    12    1
     3    12    13    2
     4    13    14   ar
     5    14    15   ar
     6    15    16   ar
     7    16     1    1
     8     1     2   ar
     9     2     3   ar
    10     3     4   ar
    11     4     5   ar
    12     5     6   ar
    13     6     7   ar
    14     7    20    1
    15    20    21   ar
    16    21    22   ar
    17    22    23   ar
    18    23    24   ar
    19    24    25    1
    20    25    26    1
    21    26    27   ar
    22    27    28   ar
    23    28    29   ar
    24    29    30    1
    25    29    31   ar
    26    31    32   ar
    27    32    33    1
    28     7     8   ar
    29     8     9   ar
    30    16    17   ar
    31    17    18   ar
    32    18    19    2
    33    19    11    1
    34    18    13   ar
    35     9     1   ar
    36     9     4   ar
    37    24    20   ar
    38    32    26   ar
@<TRIPOS>MOLECULE
*****
 33 38 0 0 0
SMALL
GASTEIGER

@<TRIPOS>ATOM
      1 N           7.9684   -4.7125   22.1297 N.ar    1  UNL1       -0.2103
      2 N           8.3885   -6.1524   22.1189 N.ar    1  UNL1       -0.0595
      3 N           8.5679   -6.5936   23.5413 N.ar    1  UNL1       -0.1269
      4 C           8.2587   -5.4263   24.4312 C.ar    1  UNL1        0.1412
      5 C           8.2666   -5.2718   25.9232 C.ar    1  UNL1        0.1213
      6 N           7.9041   -3.9548   26.5427 N.ar    1  UNL1       -0.2406
      7 C           7.5336   -2.7922   25.6703 C.ar    1  UNL1        0.1002
      8 C           7.5256   -2.9467   24.1784 C.ar    1  UNL1        0.0415
      9 C           7.8882   -4.2637   23.5588 C.ar    1  UNL1        0.1068
     10 O           4.0454   -1.0355   16.4102 O.2     1  UNL1       -0.2484
     11 C           5.0278   -1.6202   17.3813 C.2     1  UNL1        0.3478
     12 N           6.5141   -1.4188   17.3609 N.am    1  UNL1       -0.1594
     13 C           7.1012   -2.1830   18.5104 C.ar    1  UNL1        0.0904
     14 C           8.5137   -2.3525   18.9859 C.ar    1  UNL1        0.0195
     15 C           8.8027   -3.1956   20.1924 C.ar    1  UNL1        0.0206
     16 C           7.6793   -3.8693   20.9232 C.ar    1  UNL1        0.0858
     17 C           6.2669   -3.6998   20.4477 C.ar    1  UNL1        0.0372
     18 C           5.9778   -2.8567   19.2412 C.ar    1  UNL1        0.0918
     19 N           4.6964   -2.5088   18.5435 N.am    1  UNL1       -0.1593
     20 C           7.1710   -1.4752   26.2900 C.ar    1  UNL1        0.0974
     21 C           8.1317   -0.4772   26.8656 C.ar    1  UNL1        0.0427
     22 C           7.3384    0.6898   27.3742 C.ar    1  UNL1        0.1217
     23 N           5.8874    0.4132   27.1130 N.ar    1  UNL1       -0.1673
     24 N           5.7839   -0.9248   26.4429 N.ar    1  UNL1       -0.2449
     25 C           4.5161   -1.5949   26.0029 C.3     1  UNL1        0.1547
     26 C           3.9025   -1.2440   24.6799 C.ar    1  UNL1        0.0127
     27 C           4.2516   -2.0391   23.4568 C.ar    1  UNL1       -0.0006
     28 C           3.6379   -1.6882   22.1338 C.ar    1  UNL1        0.0112
     29 C           2.6751   -0.5423   22.0339 C.ar    1  UNL1        0.0585
     30 CL          2.0615   -0.1915   20.7110 Cl      1  UNL1       -0.0822
     31 C           2.3260    0.2527   23.2571 C.ar    1  UNL1        0.0225
     32 C           2.9397   -0.0982   24.5801 C.ar    1  UNL1        0.0564
     33 CL          2.5906    0.6969   25.8032 Cl      1  UNL1       -0.0825
@<TRIPOS>BOND
     1    10    11    2
     2    11    12    1
     3    12    13    2
     4    13    14   ar
     5    14    15   ar
     6    15    16   ar
     7    16     1    1
     8     1     2   ar
     9     2     3   ar
    10     3     4   ar
    11     4     5   ar
    12     5     6   ar
    13     6     7   ar
    14     7    20    1
    15    20    21   ar
    16    21    22   ar
    17    22    23   ar
    18    23    24   ar
    19    24    25    1
    20    25    26    1
    21    26    27   ar
    22    27    28   ar
    23    28    29   ar
    24    29    30    1
    25    29    31   ar
    26    31    32   ar
    27    32    33    1
    28     7     8   ar
    29     8     9   ar
    30    16    17   ar
    31    17    18   ar
    32    18    19    2
    33    19    11    1
    34    18    13   ar
    35     9     1   ar
    36     9     4   ar
    37    24    20   ar
    38    32    26   ar
@<TRIPOS>MOLECULE
*****
 33 38 0 0 0
SMALL
GASTEIGER

@<TRIPOS>ATOM
      1 N           5.5416   -2.6964   23.3000 N.ar    1  UNL1       -0.2103
      2 N           5.9052   -3.9962   23.9546 N.ar    1  UNL1       -0.0595
      3 N           6.9507   -4.6635   23.1111 N.ar    1  UNL1       -0.1269
      4 C           7.2332   -3.7762   21.9351 C.ar    1  UNL1        0.1412
      5 C           8.1709   -3.9182   20.7730 C.ar    1  UNL1        0.1213
      6 N           8.2378   -2.8445   19.7277 N.ar    1  UNL1       -0.2406
      7 C           7.3670   -1.6287   19.8445 C.ar    1  UNL1        0.1002
      8 C           6.4292   -1.4867   21.0066 C.ar    1  UNL1        0.0415
      9 C           6.3624   -2.5605   22.0519 C.ar    1  UNL1        0.1068
     10 O           1.4995    1.9591   28.1591 O.2     1  UNL1       -0.2484
     11 C           2.0949    1.1733   27.0286 C.2     1  UNL1        0.3478
     12 N           1.6490    1.2121   25.5969 N.am    1  UNL1       -0.1594
     13 C           2.5192    0.2735   24.8148 C.ar    1  UNL1        0.0904
     14 C           2.5430   -0.0975   23.3616 C.ar    1  UNL1        0.0195
     15 C           3.5504   -1.0875   22.8567 C.ar    1  UNL1        0.0206
     16 C           4.5341   -1.7064   23.8050 C.ar    1  UNL1        0.0858
     17 C           4.5104   -1.3354   25.2582 C.ar    1  UNL1        0.0372
     18 C           3.5029   -0.3454   25.7630 C.ar    1  UNL1        0.0918
     19 N           3.2406    0.2107   27.1312 N.am    1  UNL1       -0.1593
     20 C           7.4339   -0.5551   18.7992 C.ar    1  UNL1        0.0974
     21 C           8.5176    0.4725   18.6587 C.ar    1  UNL1        0.0427
     22 C           8.1823    1.3422   17.4834 C.ar    1  UNL1        0.1217
     23 N           6.8914    0.8521   16.8975 N.ar    1  UNL1       -0.1673
     24 N           6.4288   -0.3205   17.7107 N.ar    1  UNL1       -0.2449
     25 C           5.1804   -1.1183   17.4765 C.3     1  UNL1        0.1547
     26 C           3.9256   -0.7854   18.2278 C.ar    1  UNL1        0.0127
     27 C           3.3178    0.5804   18.1049 C.ar    1  UNL1       -0.0006
     28 C           2.0629    0.9132   18.8563 C.ar    1  UNL1        0.0112
     29 C           1.4159   -0.1197   19.7306 C.ar    1  UNL1        0.0585
     30 CL          0.1611    0.2131   20.4819 Cl      1  UNL1       -0.0822
     31 C           2.0237   -1.4856   19.8535 C.ar    1  UNL1        0.0225
     32 C           3.2786   -1.8184   19.1021 C.ar    1  UNL1        0.0564
     33 CL          3.8864   -3.1842   19.2250 Cl      1  UNL1       -0.0825
@<TRIPOS>BOND
     1    10    11    2
     2    11    12    1
     3    12    13    2
     4    13    14   ar
     5    14    15   ar
     6    15    16   ar
     7    16     1    1
     8     1     2   ar
     9     2     3   ar
    10     3     4   ar
    11     4     5   ar
    12     5     6   ar
    13     6     7   ar
    14     7    20    1
    15    20    21   ar
    16    21    22   ar
    17    22    23   ar
    18    23    24   ar
    19    24    25    1
    20    25    26    1
    21    26    27   ar
    22    27    28   ar
    23    28    29   ar
    24    29    30    1
    25    29    31   ar
    26    31    32   ar
    27    32    33    1
    28     7     8   ar
    29     8     9   ar
    30    16    17   ar
    31    17    18   ar
    32    18    19    2
    33    19    11    1
    34    18    13   ar
    35     9     1   ar
    36     9     4   ar
    37    24    20   ar
    38    32    26   ar
@<TRIPOS>MOLECULE
*****
 33 38 0 0 0
SMALL
GASTEIGER

@<TRIPOS>ATOM
      1 N           4.7265   -2.8322   21.5656 N.ar    1  UNL1       -0.2103
      2 N           4.4421   -4.2654   21.2262 N.ar    1  UNL1       -0.0595
      3 N           4.9837   -4.5328   19.8532 N.ar    1  UNL1       -0.1269
      4 C           5.6028   -3.2649   19.3440 C.ar    1  UNL1        0.1412
      5 C           6.2908   -2.9317   18.0535 C.ar    1  UNL1        0.1213
      6 N           6.8198   -1.5475   17.8213 N.ar    1  UNL1       -0.2406
      7 C           6.6609   -0.4964   18.8796 C.ar    1  UNL1        0.1002
      8 C           5.9730   -0.8297   20.1702 C.ar    1  UNL1        0.0415
      9 C           5.4439   -2.2139   20.4024 C.ar    1  UNL1        0.1068
     10 O           1.1350    1.9545   26.6461 O.2     1  UNL1       -0.2484
     11 C           1.9735    0.9558   25.9048 C.2     1  UNL1        0.3478
     12 N           3.0454    0.0907   26.4987 N.am    1  UNL1       -0.1594
     13 C           3.6217   -0.7529   25.4004 C.ar    1  UNL1        0.0904
     14 C           4.7057   -1.7896   25.3948 C.ar    1  UNL1        0.0195
     15 C           5.0740   -2.4827   24.1165 C.ar    1  UNL1        0.0206
     16 C           4.3582   -2.1391   22.8439 C.ar    1  UNL1        0.0858
     17 C           3.2742   -1.1024   22.8495 C.ar    1  UNL1        0.0372
     18 C           2.9060   -0.4093   24.1278 C.ar    1  UNL1        0.0918
     19 N           1.8873    0.6467   24.4395 N.am    1  UNL1       -0.1593
     20 C           7.1900    0.8878   18.6473 C.ar    1  UNL1        0.0974
     21 C           8.5541    1.3852   19.0240 C.ar    1  UNL1        0.0427
     22 C           8.6550    2.8225   18.6070 C.ar    1  UNL1        0.1217
     23 N           7.3532    3.2135   17.9725 N.ar    1  UNL1       -0.1673
     24 N           6.4478    2.0178   17.9975 N.ar    1  UNL1       -0.2449
     25 C           5.0462    1.9619   17.4659 C.3     1  UNL1        0.1547
     26 C           3.9103    1.6128   18.3812 C.ar    1  UNL1        0.0127
     27 C           3.5430    2.5347   19.5061 C.ar    1  UNL1       -0.0006
     28 C           2.4071    2.1856   20.4214 C.ar    1  UNL1        0.0112
     29 C           1.6384    0.9146   20.2118 C.ar    1  UNL1        0.0585
     30 CL          0.5025    0.5655   21.1271 Cl      1  UNL1       -0.0822
     31 C           2.0058   -0.0072   19.0870 C.ar    1  UNL1        0.0225
     32 C           3.1417    0.3419   18.1717 C.ar    1  UNL1        0.0564
     33 CL          3.5090   -0.5799   17.0468 Cl      1  UNL1       -0.0825
@<TRIPOS>BOND
     1    10    11    2
     2    11    12    1
     3    12    13    2
     4    13    14   ar
     5    14    15   ar
     6    15    16   ar
     7    16     1    1
     8     1     2   ar
     9     2     3   ar
    10     3     4   ar
    11     4     5   ar
    12     5     6   ar
    13     6     7   ar
    14     7    20    1
    15    20    21   ar
    16    21    22   ar
    17    22    23   ar
    18    23    24   ar
    19    24    25    1
    20    25    26    1
    21    26    27   ar
    22    27    28   ar
    23    28    29   ar
    24    29    30    1
    25    29    31   ar
    26    31    32   ar
    27    32    33    1
    28     7     8   ar
    29     8     9   ar
    30    16    17   ar
    31    17    18   ar
    32    18    19    2
    33    19    11    1
    34    18    13   ar
    35     9     1   ar
    36     9     4   ar
    37    24    20   ar
    38    32    26   ar
@<TRIPOS>MOLECULE
*****
 33 38 0 0 0
SMALL
GASTEIGER

@<TRIPOS>ATOM
      1 N           4.6426   -2.7941   21.7693 N.ar    1  UNL1       -0.2103
      2 N           4.7806   -4.2707   21.5443 N.ar    1  UNL1       -0.0595
      3 N           5.0922   -4.4915   20.0937 N.ar    1  UNL1       -0.1269
      4 C           5.1468   -3.1512   19.4222 C.ar    1  UNL1        0.1412
      5 C           5.4136   -2.7505   18.0016 C.ar    1  UNL1        0.1213
      6 N           5.4026   -1.3009   17.6165 N.ar    1  UNL1       -0.2406
      7 C           5.1248   -0.2518   18.6521 C.ar    1  UNL1        0.1002
      8 C           4.8580   -0.6525   20.0727 C.ar    1  UNL1        0.0415
      9 C           4.8690   -2.1022   20.4578 C.ar    1  UNL1        0.1068
     10 O           4.9173   -0.8865   29.3791 O.2     1  UNL1       -0.2484
     11 C           4.6546   -1.0547   27.9119 C.2     1  UNL1        0.3478
     12 N           3.6307   -0.3090   27.1083 N.am    1  UNL1       -0.1594
     13 C           3.7130   -0.7915   25.6904 C.ar    1  UNL1        0.0904
     14 C           2.9481   -0.4152   24.4562 C.ar    1  UNL1        0.0195
     15 C           3.2580   -1.0827   23.1492 C.ar    1  UNL1        0.0206
     16 C           4.3328   -2.1265   23.0764 C.ar    1  UNL1        0.0858
     17 C           5.0976   -2.5029   24.3106 C.ar    1  UNL1        0.0372
     18 C           4.7877   -1.8353   25.6176 C.ar    1  UNL1        0.0918
     19 N           5.3697   -1.9980   26.9906 N.am    1  UNL1       -0.1593
     20 C           5.1139    1.1978   18.2669 C.ar    1  UNL1        0.0974
     21 C           6.3126    2.0222   17.9017 C.ar    1  UNL1        0.0427
     22 C           5.8417    3.4115   17.5884 C.ar    1  UNL1        0.1217
     23 N           4.3520    3.4457   17.7600 N.ar    1  UNL1       -0.1673
     24 N           3.9021    2.0776   18.1793 N.ar    1  UNL1       -0.2449
     25 C           2.4887    1.6622   18.4615 C.3     1  UNL1        0.1547
     26 C           1.9011    1.8790   19.8245 C.ar    1  UNL1        0.0127
     27 C           2.0045    3.2240   20.4805 C.ar    1  UNL1       -0.0006
     28 C           1.4170    3.4409   21.8434 C.ar    1  UNL1        0.0112
     29 C           0.7260    2.3127   22.5505 C.ar    1  UNL1        0.0585
     30 CL          0.1384    2.5296   23.9135 Cl      1  UNL1       -0.0822
     31 C           0.6226    0.9677   21.8945 C.ar    1  UNL1        0.0225
     32 C           1.2102    0.7509   20.5315 C.ar    1  UNL1        0.0564
     33 CL          1.1068   -0.5941   19.8755 Cl      1  UNL1       -0.0825
@<TRIPOS>BOND
     1    10    11    2
     2    11    12    1
     3    12    13    2
     4    13    14   ar
     5    14    15   ar
     6    15    16   ar
     7    16     1    1
     8     1     2   ar
     9     2     3   ar
    10     3     4   ar
    11     4     5   ar
    12     5     6   ar
    13     6     7   ar
    14     7    20    1
    15    20    21   ar
    16    21    22   ar
    17    22    23   ar
    18    23    24   ar
    19    24    25    1
    20    25    26    1
    21    26    27   ar
    22    27    28   ar
    23    28    29   ar
    24    29    30    1
    25    29    31   ar
    26    31    32   ar
    27    32    33    1
    28     7     8   ar
    29     8     9   ar
    30    16    17   ar
    31    17    18   ar
    32    18    19    2
    33    19    11    1
    34    18    13   ar
    35     9     1   ar
    36     9     4   ar
    37    24    20   ar
    38    32    26   ar
@<TRIPOS>MOLECULE
*****
 33 38 0 0 0
SMALL
GASTEIGER

@<TRIPOS>ATOM
      1 N           0.6245    1.9015   19.4111 N.ar    1  UNL1       -0.2103
      2 N           0.0216    2.6395   18.2527 N.ar    1  UNL1       -0.0595
      3 N          -0.9134    3.6768   18.7999 N.ar    1  UNL1       -0.1269
      4 C          -0.8884    3.5800   20.2967 C.ar    1  UNL1        0.1412
      5 C          -1.6084    4.3491   21.3644 C.ar    1  UNL1        0.1213
      6 N          -1.3778    4.0210   22.8097 N.ar    1  UNL1       -0.2406
      7 C          -0.4273    2.9238   23.1875 C.ar    1  UNL1        0.1002
      8 C           0.2927    2.1547   22.1197 C.ar    1  UNL1        0.0415
      9 C           0.0621    2.4828   20.6743 C.ar    1  UNL1        0.1068
     10 O           6.9694   -2.2551   17.3890 O.2     1  UNL1       -0.2484
     11 C           5.6882   -1.6935   17.9305 C.2     1  UNL1        0.3478
     12 N           4.7438   -2.3922   18.8632 N.am    1  UNL1       -0.1594
     13 C           3.5984   -1.4651   19.1435 C.ar    1  UNL1        0.0904
     14 C           2.3707   -1.6146   19.9922 C.ar    1  UNL1        0.0195
     15 C           1.3795   -0.4924   20.0814 C.ar    1  UNL1        0.0206
     16 C           1.6159    0.7793   19.3219 C.ar    1  UNL1        0.0858
     17 C           2.8436    0.9288   18.4732 C.ar    1  UNL1        0.0372
     18 C           3.8349   -0.1934   18.3840 C.ar    1  UNL1        0.0918
     19 N           5.1264   -0.3346   17.6343 N.am    1  UNL1       -0.1593
     20 C          -0.1968    2.5958   24.6329 C.ar    1  UNL1        0.0974
     21 C          -1.2599    2.3955   25.6720 C.ar    1  UNL1        0.0427
     22 C          -0.5827    2.0864   26.9743 C.ar    1  UNL1        0.1217
     23 N           0.8988    2.0957   26.7401 N.ar    1  UNL1       -0.1673
     24 N           1.1374    2.4105   25.2930 N.ar    1  UNL1       -0.2449
     25 C           2.4752    2.5207   24.6236 C.3     1  UNL1        0.1547
     26 C           3.1403    1.2953   24.0705 C.ar    1  UNL1        0.0127
     27 C           3.0595   -0.0034   24.8168 C.ar    1  UNL1       -0.0006
     28 C           3.7246   -1.2288   24.2637 C.ar    1  UNL1        0.0112
     29 C           4.4706   -1.1556   22.9644 C.ar    1  UNL1        0.0585
     30 CL          5.1357   -2.3810   22.4113 Cl      1  UNL1       -0.0822
     31 C           4.5514    0.1431   22.2181 C.ar    1  UNL1        0.0225
     32 C           3.8862    1.3686   22.7712 C.ar    1  UNL1        0.0564
     33 CL          3.9671    2.6672   22.0250 Cl      1  UNL1       -0.0825
@<TRIPOS>BOND
     1    10    11    2
     2    11    12    1
     3    12    13    2
     4    13    14   ar
     5    14    15   ar
     6    15    16   ar
     7    16     1    1
     8     1     2   ar
     9     2     3   ar
    10     3     4   ar
    11     4     5   ar
    12     5     6   ar
    13     6     7   ar
    14     7    20    1
    15    20    21   ar
    16    21    22   ar
    17    22    23   ar
    18    23    24   ar
    19    24    25    1
    20    25    26    1
    21    26    27   ar
    22    27    28   ar
    23    28    29   ar
    24    29    30    1
    25    29    31   ar
    26    31    32   ar
    27    32    33    1
    28     7     8   ar
    29     8     9   ar
    30    16    17   ar
    31    17    18   ar
    32    18    19    2
    33    19    11    1
    34    18    13   ar
    35     9     1   ar
    36     9     4   ar
    37    24    20   ar
    38    32    26   ar
