@<TRIPOS>MOLECULE
*****
 36 39 0 0 0
SMALL
GASTEIGER

@<TRIPOS>ATOM
      1 N          -4.9346  -16.4539   23.6101 N.am    1  UNL1       -0.2781
      2 C          -4.8033  -15.8022   24.9548 C.3     1  UNL1        0.0957
      3 C          -6.1830  -15.5009   25.4605 C.3     1  UNL1        0.0504
      4 C          -7.1670  -15.9662   24.4284 C.3     1  UNL1        0.1495
      5 C          -6.3954  -16.5552   23.2848 C.2     1  UNL1        0.2435
      6 O          -6.9817  -17.1424   22.0352 O.2     1  UNL1       -0.2731
      7 C          -1.5418  -17.8582   21.0088 C.3     1  UNL1        0.0558
      8 C          -1.6287  -16.4168   21.4148 C.3     1  UNL1        0.0175
      9 C          -2.7596  -15.9487   22.2819 C.3     1  UNL1        0.0229
     10 C          -3.8037  -16.9220   22.7430 C.3     1  UNL1        0.0933
     11 C          -3.7168  -18.3634   22.3370 C.3     1  UNL1        0.0910
     12 C          -2.5858  -18.8315   21.4699 C.3     1  UNL1        0.0370
     13 N          -4.7608  -19.3367   22.7981 N.am    1  UNL1       -0.3043
     14 C          -5.7170  -19.9352   21.8094 C.2     1  UNL1        0.2230
     15 C          -6.7611  -20.9085   22.2705 C.3     1  UNL1        0.0946
     16 O          -5.6292  -19.5604   20.3597 O.2     1  UNL1       -0.2751
     17 H          -4.8185  -19.5827   23.7496 H       1  UNL1        0.1494
     18 C           0.8423  -17.5084   20.0374 C.3     1  UNL1        0.0858
     19 N          -0.4108  -18.3262   20.1417 N.3     1  UNL1       -0.2973
     20 H          -0.1348  -19.2450   20.4882 H       1  UNL1        0.1232
     21 N          -8.6603  -15.8611   24.5232 N.pl3   1  UNL1       -0.3122
     22 H          -9.0835  -14.9851   24.6741 H       1  UNL1        0.1486
     23 C          -9.5088  -17.0906   24.3880 C.ar    1  UNL1        0.1319
     24 N          -9.5747  -18.0835   25.5104 N.ar    1  UNL1       -0.2092
     25 C         -10.4232  -19.3130   25.3752 C.ar    1  UNL1        0.2000
     26 N         -11.2058  -19.5496   24.1176 N.ar    1  UNL1       -0.2239
     27 C         -11.1399  -18.5568   22.9952 C.ar    1  UNL1        0.0857
     28 C         -11.9226  -18.7934   21.7376 C.ar    1  UNL1        0.0192
     29 C         -11.8567  -17.8005   20.6153 C.ar    1  UNL1        0.0054
     30 C         -11.0081  -16.5709   20.7504 C.ar    1  UNL1        0.0716
     31 C         -10.2255  -16.3343   22.0080 C.ar    1  UNL1        0.0081
     32 C         -10.2914  -17.3273   23.1304 C.ar    1  UNL1        0.0491
     33 C         -10.9423  -15.5780   19.6280 C.3     1  UNL1        0.4186
     34 F         -10.8764  -14.5851   18.5055 F       1  UNL1       -0.1659
     35 F          -9.8668  -14.8270   20.3555 F       1  UNL1       -0.1659
     36 F         -12.0177  -16.3291   18.9005 F       1  UNL1       -0.1659
@<TRIPOS>BOND
     1    18    19    1
     2     7    19    1
     3     7     8    1
     4     8     9    1
     5     9    10    1
     6    10     1    1
     7     1     2    1
     8     2     3    1
     9     3     4    1
    10     4    21    1
    11    21    23    1
    12    23    24   ar
    13    24    25   ar
    14    25    26   ar
    15    26    27   ar
    16    27    28   ar
    17    28    29   ar
    18    29    30   ar
    19    30    33    1
    20    33    34    1
    21    33    35    1
    22    33    36    1
    23    30    31   ar
    24    31    32   ar
    25     4     5    1
    26     5     6    2
    27    10    11    1
    28    11    13    1
    29    13    14   am
    30    14    15    1
    31    14    16    2
    32    11    12    1
    33    12     7    1
    34     5     1   am
    35    32    23   ar
    36    32    27   ar
    37    19    20    1
    38    21    22    1
    39    13    17    1
@<TRIPOS>MOLECULE
*****
 36 39 0 0 0
SMALL
GASTEIGER

@<TRIPOS>ATOM
      1 N          -6.1328  -16.5407   23.5775 N.am    1  UNL1       -0.2781
      2 C          -6.3988  -16.1194   24.9924 C.3     1  UNL1        0.0957
      3 C          -7.8306  -15.6817   25.0842 C.3     1  UNL1        0.0504
      4 C          -8.4495  -15.8324   23.7262 C.3     1  UNL1        0.1495
      5 C          -7.4002  -16.3633   22.7950 C.2     1  UNL1        0.2435
      6 O          -7.5856  -16.6640   21.3372 O.2     1  UNL1       -0.2731
      7 C          -2.2197  -18.0684   21.9639 C.3     1  UNL1        0.0558
      8 C          -2.2664  -16.7693   22.7123 C.3     1  UNL1        0.0175
      9 C          -3.5708  -16.2600   23.2502 C.3     1  UNL1        0.0229
     10 C          -4.8284  -17.0499   23.0397 C.3     1  UNL1        0.0933
     11 C          -4.7817  -18.3490   22.2912 C.3     1  UNL1        0.0910
     12 C          -3.4774  -18.8583   21.7533 C.3     1  UNL1        0.0370
     13 N          -6.0394  -19.1389   22.0807 N.am    1  UNL1       -0.3043
     14 C          -6.5528  -19.3754   20.6913 C.2     1  UNL1        0.2230
     15 C          -7.8105  -20.1653   20.4808 C.3     1  UNL1        0.0946
     16 O          -5.8086  -18.8220   19.5124 O.2     1  UNL1       -0.2751
     17 H          -6.5279  -19.5021   22.8545 H       1  UNL1        0.1494
     18 C          -0.5138  -18.2675   20.0144 C.3     1  UNL1        0.0858
     19 N          -0.9153  -18.5775   21.4260 N.3     1  UNL1       -0.2973
     20 H          -0.1824  -18.2044   22.0293 H       1  UNL1        0.1232
     21 N          -9.8685  -15.5090   23.3631 N.pl3   1  UNL1       -0.3122
     22 H         -10.3867  -14.8799   23.9152 H       1  UNL1        0.1486
     23 C         -10.4979  -16.1442   22.1587 C.ar    1  UNL1        0.1319
     24 N         -10.9654  -15.2895   21.0182 N.ar    1  UNL1       -0.2092
     25 C         -11.5947  -15.9247   19.8139 C.ar    1  UNL1        0.2000
     26 N         -11.7565  -17.4146   19.7501 N.ar    1  UNL1       -0.2239
     27 C         -11.2890  -18.2693   20.8907 C.ar    1  UNL1        0.0857
     28 C         -11.4508  -19.7592   20.8269 C.ar    1  UNL1        0.0192
     29 C         -10.9833  -20.6138   21.9675 C.ar    1  UNL1        0.0054
     30 C         -10.3539  -19.9786   23.1718 C.ar    1  UNL1        0.0716
     31 C         -10.1921  -18.4888   23.2356 C.ar    1  UNL1        0.0081
     32 C         -10.6597  -17.6341   22.0950 C.ar    1  UNL1        0.0491
     33 C          -9.8863  -20.8333   24.3124 C.3     1  UNL1        0.4186
     34 F          -9.4187  -21.6880   25.4530 F       1  UNL1       -0.1659
     35 F         -11.1193  -20.4738   25.0872 F       1  UNL1       -0.1659
     36 F          -8.6533  -21.1928   23.5376 F       1  UNL1       -0.1659
@<TRIPOS>BOND
     1    18    19    1
     2     7    19    1
     3     7     8    1
     4     8     9    1
     5     9    10    1
     6    10     1    1
     7     1     2    1
     8     2     3    1
     9     3     4    1
    10     4    21    1
    11    21    23    1
    12    23    24   ar
    13    24    25   ar
    14    25    26   ar
    15    26    27   ar
    16    27    28   ar
    17    28    29   ar
    18    29    30   ar
    19    30    33    1
    20    33    34    1
    21    33    35    1
    22    33    36    1
    23    30    31   ar
    24    31    32   ar
    25     4     5    1
    26     5     6    2
    27    10    11    1
    28    11    13    1
    29    13    14   am
    30    14    15    1
    31    14    16    2
    32    11    12    1
    33    12     7    1
    34     5     1   am
    35    32    23   ar
    36    32    27   ar
    37    19    20    1
    38    21    22    1
    39    13    17    1
@<TRIPOS>MOLECULE
*****
 36 39 0 0 0
SMALL
GASTEIGER

@<TRIPOS>ATOM
      1 N          -5.0122  -19.6221   20.3267 N.am    1  UNL1       -0.2781
      2 C          -5.1701  -21.1031   20.1483 C.3     1  UNL1        0.0957
      3 C          -6.6294  -21.4308   20.2630 C.3     1  UNL1        0.0504
      4 C          -7.3734  -20.1524   20.5123 C.3     1  UNL1        0.1495
      5 C          -6.3739  -19.0346   20.5516 C.2     1  UNL1        0.2435
      6 O          -6.6820  -17.5839   20.7765 O.2     1  UNL1       -0.2731
      7 C          -1.1345  -17.3421   20.2078 C.3     1  UNL1        0.0558
      8 C          -1.5641  -18.1535   19.0216 C.3     1  UNL1        0.0175
      9 C          -2.8567  -18.9135   19.0612 C.3     1  UNL1        0.0229
     10 C          -3.7197  -18.8621   20.2870 C.3     1  UNL1        0.0933
     11 C          -3.2900  -18.0508   21.4733 C.3     1  UNL1        0.0910
     12 C          -1.9974  -17.2908   21.4336 C.3     1  UNL1        0.0370
     13 N          -4.1529  -17.9994   22.6991 N.am    1  UNL1       -0.3043
     14 C          -4.4806  -16.6790   23.3308 C.2     1  UNL1        0.2230
     15 C          -5.3435  -16.6276   24.5567 C.3     1  UNL1        0.0946
     16 O          -3.9454  -15.4099   22.7367 O.2     1  UNL1       -0.2751
     17 H          -4.5042  -18.8324   23.0891 H       1  UNL1        0.1494
     18 C           1.4559  -17.2968   20.4028 C.3     1  UNL1        0.0858
     19 N           0.1582  -16.5822   20.1680 N.3     1  UNL1       -0.2973
     20 H           0.2203  -16.1550   19.2439 H       1  UNL1        0.1232
     21 N          -8.8565  -20.0158   20.6909 N.pl3   1  UNL1       -0.3122
     22 H          -9.4632  -20.2200   19.9430 H       1  UNL1        0.1486
     23 C          -9.4151  -19.5682   22.0091 C.ar    1  UNL1        0.1319
     24 N          -9.0848  -20.3270   23.2602 N.ar    1  UNL1       -0.2092
     25 C          -9.6434  -19.8794   24.5783 C.ar    1  UNL1        0.2000
     26 N         -10.5322  -18.6729   24.6454 N.ar    1  UNL1       -0.2239
     27 C         -10.8624  -17.9141   23.3944 C.ar    1  UNL1        0.0857
     28 C         -11.7512  -16.7076   23.4615 C.ar    1  UNL1        0.0192
     29 C         -12.0814  -15.9488   22.2105 C.ar    1  UNL1        0.0054
     30 C         -11.5228  -16.3965   20.8922 C.ar    1  UNL1        0.0716
     31 C         -10.6340  -17.6029   20.8251 C.ar    1  UNL1        0.0081
     32 C         -10.3038  -18.3617   22.0763 C.ar    1  UNL1        0.0491
     33 C         -11.8531  -15.6376   19.6412 C.3     1  UNL1        0.4186
     34 F         -12.1832  -14.8788   18.3901 F       1  UNL1       -0.1659
     35 F         -13.3079  -15.9447   19.8390 F       1  UNL1       -0.1659
     36 F         -10.3982  -15.3305   19.4435 F       1  UNL1       -0.1659
@<TRIPOS>BOND
     1    18    19    1
     2     7    19    1
     3     7     8    1
     4     8     9    1
     5     9    10    1
     6    10     1    1
     7     1     2    1
     8     2     3    1
     9     3     4    1
    10     4    21    1
    11    21    23    1
    12    23    24   ar
    13    24    25   ar
    14    25    26   ar
    15    26    27   ar
    16    27    28   ar
    17    28    29   ar
    18    29    30   ar
    19    30    33    1
    20    33    34    1
    21    33    35    1
    22    33    36    1
    23    30    31   ar
    24    31    32   ar
    25     4     5    1
    26     5     6    2
    27    10    11    1
    28    11    13    1
    29    13    14   am
    30    14    15    1
    31    14    16    2
    32    11    12    1
    33    12     7    1
    34     5     1   am
    35    32    23   ar
    36    32    27   ar
    37    19    20    1
    38    21    22    1
    39    13    17    1
@<TRIPOS>MOLECULE
*****
 36 39 0 0 0
SMALL
GASTEIGER

@<TRIPOS>ATOM
      1 N          -5.0707  -16.3802   23.4337 N.am    1  UNL1       -0.2781
      2 C          -5.0618  -15.7093   24.7753 C.3     1  UNL1        0.0957
      3 C          -6.4757  -15.3477   25.1220 C.3     1  UNL1        0.0504
      4 C          -7.3584  -15.7951   23.9948 C.3     1  UNL1        0.1495
      5 C          -6.4900  -16.4332   22.9514 C.2     1  UNL1        0.2435
      6 O          -6.9587  -17.0211   21.6534 O.2     1  UNL1       -0.2731
      7 C          -1.4713  -17.9571   21.2411 C.3     1  UNL1        0.0558
      8 C          -1.5934  -16.4891   21.5243 C.3     1  UNL1        0.0175
      9 C          -2.7931  -15.9635   22.2552 C.3     1  UNL1        0.0229
     10 C          -3.8709  -16.9058   22.7028 C.3     1  UNL1        0.0933
     11 C          -3.7489  -18.3738   22.4196 C.3     1  UNL1        0.0910
     12 C          -2.5491  -18.8994   21.6887 C.3     1  UNL1        0.0370
     13 N          -4.8266  -19.3161   22.8672 N.am    1  UNL1       -0.3043
     14 C          -5.7276  -19.9602   21.8555 C.2     1  UNL1        0.2230
     15 C          -6.8053  -20.9025   22.3031 C.3     1  UNL1        0.0946
     16 O          -5.5507  -19.6619   20.3961 O.2     1  UNL1       -0.2751
     17 H          -4.9427  -19.5119   23.8250 H       1  UNL1        0.1494
     18 C           0.7703  -17.5326   19.9980 C.3     1  UNL1        0.0858
     19 N          -0.2715  -18.4826   20.5102 N.3     1  UNL1       -0.2973
     20 H           0.2024  -19.1246   21.1454 H       1  UNL1        0.1232
     21 N          -8.8479  -15.6328   23.9235 N.pl3   1  UNL1       -0.3122
     22 H          -9.3717  -15.5276   24.7503 H       1  UNL1        0.1486
     23 C          -9.5392  -15.6308   22.5922 C.ar    1  UNL1        0.1319
     24 N          -8.9131  -14.9303   21.4230 N.ar    1  UNL1       -0.2092
     25 C          -9.6045  -14.9283   20.0919 C.ar    1  UNL1        0.2000
     26 N         -10.9219  -15.6270   19.9299 N.ar    1  UNL1       -0.2239
     27 C         -11.5480  -16.3276   21.0992 C.ar    1  UNL1        0.0857
     28 C         -12.8655  -17.0263   20.9372 C.ar    1  UNL1        0.0192
     29 C         -13.4915  -17.7269   22.1065 C.ar    1  UNL1        0.0054
     30 C         -12.8002  -17.7288   23.4377 C.ar    1  UNL1        0.0716
     31 C         -11.4828  -17.0301   23.5996 C.ar    1  UNL1        0.0081
     32 C         -10.8567  -16.3295   22.4303 C.ar    1  UNL1        0.0491
     33 C         -13.4263  -18.4294   24.6069 C.3     1  UNL1        0.4186
     34 F         -14.0524  -19.1300   25.7762 F       1  UNL1       -0.1659
     35 F         -14.7836  -17.9911   24.1427 F       1  UNL1       -0.1659
     36 F         -12.0690  -18.8677   25.0711 F       1  UNL1       -0.1659
@<TRIPOS>BOND
     1    18    19    1
     2     7    19    1
     3     7     8    1
     4     8     9    1
     5     9    10    1
     6    10     1    1
     7     1     2    1
     8     2     3    1
     9     3     4    1
    10     4    21    1
    11    21    23    1
    12    23    24   ar
    13    24    25   ar
    14    25    26   ar
    15    26    27   ar
    16    27    28   ar
    17    28    29   ar
    18    29    30   ar
    19    30    33    1
    20    33    34    1
    21    33    35    1
    22    33    36    1
    23    30    31   ar
    24    31    32   ar
    25     4     5    1
    26     5     6    2
    27    10    11    1
    28    11    13    1
    29    13    14   am
    30    14    15    1
    31    14    16    2
    32    11    12    1
    33    12     7    1
    34     5     1   am
    35    32    23   ar
    36    32    27   ar
    37    19    20    1
    38    21    22    1
    39    13    17    1
@<TRIPOS>MOLECULE
*****
 36 39 0 0 0
SMALL
GASTEIGER

@<TRIPOS>ATOM
      1 N           7.2709   -3.6992   24.3355 N.am    1  UNL1       -0.2781
      2 C           8.1981   -2.5469   24.5855 C.3     1  UNL1        0.0957
      3 C           7.7844   -1.4164   23.6905 C.3     1  UNL1        0.0504
      4 C           6.6015   -1.8700   22.8874 C.3     1  UNL1        0.1495
      5 C           6.2841   -3.2808   23.2861 C.2     1  UNL1        0.2435
      6 O           5.1748   -4.1252   22.7324 O.2     1  UNL1       -0.2731
      7 C           7.4228   -7.7073   26.3756 C.3     1  UNL1        0.0558
      8 C           8.0398   -7.5320   25.0196 C.3     1  UNL1        0.0175
      9 C           7.9891   -6.1960   24.3395 C.3     1  UNL1        0.0229
     10 C           7.3216   -5.0352   25.0155 C.3     1  UNL1        0.0933
     11 C           6.7046   -5.2105   26.3715 C.3     1  UNL1        0.0910
     12 C           6.7553   -6.5465   27.0515 C.3     1  UNL1        0.0370
     13 N           6.0371   -4.0497   27.0475 N.am    1  UNL1       -0.3043
     14 C           6.8108   -3.1937   28.0060 C.2     1  UNL1        0.2230
     15 C           6.1432   -2.0330   28.6819 C.3     1  UNL1        0.0946
     16 O           8.2521   -3.4985   28.2885 O.2     1  UNL1       -0.2751
     17 H           5.0911   -3.8497   26.8621 H       1  UNL1        0.1494
     18 C           8.7409   -9.5025   27.7136 C.3     1  UNL1        0.0858
     19 N           7.4736   -9.0434   27.0555 N.3     1  UNL1       -0.2973
     20 H           6.7535   -9.0336   27.7779 H       1  UNL1        0.1232
     21 N           5.8652   -1.0558   21.8652 N.pl3   1  UNL1       -0.3122
     22 H           5.2184   -0.3719   22.1535 H       1  UNL1        0.1486
     23 C           6.1144   -1.2837   20.4037 C.ar    1  UNL1        0.1319
     24 N           7.4400   -1.8129   19.9425 N.ar    1  UNL1       -0.2092
     25 C           7.6891   -2.0407   18.4810 C.ar    1  UNL1        0.2000
     26 N           6.6127   -1.7393   17.4807 N.ar    1  UNL1       -0.2239
     27 C           5.2872   -1.2101   17.9419 C.ar    1  UNL1        0.0857
     28 C           4.2108   -0.9087   16.9417 C.ar    1  UNL1        0.0192
     29 C           2.8852   -0.3795   17.4029 C.ar    1  UNL1        0.0054
     30 C           2.6360   -0.1516   18.8644 C.ar    1  UNL1        0.0716
     31 C           3.7124   -0.4530   19.8647 C.ar    1  UNL1        0.0081
     32 C           5.0380   -0.9823   19.4034 C.ar    1  UNL1        0.0491
     33 C           1.3104    0.3776   19.3257 C.3     1  UNL1        0.4186
     34 F          -0.0152    0.9067   19.7869 F       1  UNL1       -0.1659
     35 F           1.5858    1.6761   18.6272 F       1  UNL1       -0.1659
     36 F           1.0350   -0.9210   20.0242 F       1  UNL1       -0.1659
@<TRIPOS>BOND
     1    18    19    1
     2     7    19    1
     3     7     8    1
     4     8     9    1
     5     9    10    1
     6    10     1    1
     7     1     2    1
     8     2     3    1
     9     3     4    1
    10     4    21    1
    11    21    23    1
    12    23    24   ar
    13    24    25   ar
    14    25    26   ar
    15    26    27   ar
    16    27    28   ar
    17    28    29   ar
    18    29    30   ar
    19    30    33    1
    20    33    34    1
    21    33    35    1
    22    33    36    1
    23    30    31   ar
    24    31    32   ar
    25     4     5    1
    26     5     6    2
    27    10    11    1
    28    11    13    1
    29    13    14   am
    30    14    15    1
    31    14    16    2
    32    11    12    1
    33    12     7    1
    34     5     1   am
    35    32    23   ar
    36    32    27   ar
    37    19    20    1
    38    21    22    1
    39    13    17    1
@<TRIPOS>MOLECULE
*****
 36 39 0 0 0
SMALL
GASTEIGER

@<TRIPOS>ATOM
      1 N          -9.5069  -19.0102   22.1386 N.am    1  UNL1       -0.2781
      2 C          -9.0741  -18.3132   20.8828 C.3     1  UNL1        0.0957
      3 C          -7.7117  -18.8225   20.5161 C.3     1  UNL1        0.0504
      4 C          -7.3024  -19.8342   21.5451 C.3     1  UNL1        0.1495
      5 C          -8.4119  -19.9502   22.5478 C.2     1  UNL1        0.2435
      6 O          -8.4243  -20.8486   23.7490 O.2     1  UNL1       -0.2731
      7 C         -13.4055  -18.3902   24.2987 C.3     1  UNL1        0.0558
      8 C         -12.2527  -19.0413   25.0037 C.3     1  UNL1        0.0175
      9 C         -10.9531  -19.2480   24.2837 C.3     1  UNL1        0.0229
     10 C         -10.8064  -18.8035   22.8586 C.3     1  UNL1        0.0933
     11 C         -11.9592  -18.1524   22.1536 C.3     1  UNL1        0.0910
     12 C         -13.2587  -17.9457   22.8736 C.3     1  UNL1        0.0370
     13 N         -11.8125  -17.7079   20.7285 N.am    1  UNL1       -0.3043
     14 C         -11.4760  -16.2791   20.4194 C.2     1  UNL1        0.2230
     15 C         -11.3293  -15.8347   18.9943 C.3     1  UNL1        0.0946
     16 O         -11.2863  -15.2949   21.5353 O.2     1  UNL1       -0.2751
     17 H         -11.9370  -18.3538   19.9961 H       1  UNL1        0.1494
     18 C         -14.7951  -18.4441   26.4933 C.3     1  UNL1        0.0858
     19 N         -14.7050  -18.1835   25.0189 N.3     1  UNL1       -0.2973
     20 H         -14.9694  -17.2089   24.8754 H       1  UNL1        0.1232
     21 N          -6.0105  -20.5961   21.5674 N.pl3   1  UNL1       -0.3122
     22 H          -5.9680  -21.4806   21.9977 H       1  UNL1        0.1486
     23 C          -4.7833  -20.0103   20.9343 C.ar    1  UNL1        0.1319
     24 N          -4.2089  -20.6317   19.6958 N.ar    1  UNL1       -0.2092
     25 C          -2.9818  -20.0460   19.0627 C.ar    1  UNL1        0.2000
     26 N          -2.3289  -18.8388   19.6681 N.ar    1  UNL1       -0.2239
     27 C          -2.9033  -18.2173   20.9065 C.ar    1  UNL1        0.0857
     28 C          -2.2505  -17.0101   21.5119 C.ar    1  UNL1        0.0192
     29 C          -2.8248  -16.3887   22.7504 C.ar    1  UNL1        0.0054
     30 C          -4.0521  -16.9745   23.3836 C.ar    1  UNL1        0.0716
     31 C          -4.7049  -18.1817   22.7782 C.ar    1  UNL1        0.0081
     32 C          -4.1305  -18.8031   21.5397 C.ar    1  UNL1        0.0491
     33 C          -4.6264  -16.3531   24.6221 C.3     1  UNL1        0.4186
     34 F          -5.2008  -15.7317   25.8607 F       1  UNL1       -0.1659
     35 F          -5.2451  -15.2685   23.7910 F       1  UNL1       -0.1659
     36 F          -4.0077  -17.4377   25.4532 F       1  UNL1       -0.1659
@<TRIPOS>BOND
     1    18    19    1
     2     7    19    1
     3     7     8    1
     4     8     9    1
     5     9    10    1
     6    10     1    1
     7     1     2    1
     8     2     3    1
     9     3     4    1
    10     4    21    1
    11    21    23    1
    12    23    24   ar
    13    24    25   ar
    14    25    26   ar
    15    26    27   ar
    16    27    28   ar
    17    28    29   ar
    18    29    30   ar
    19    30    33    1
    20    33    34    1
    21    33    35    1
    22    33    36    1
    23    30    31   ar
    24    31    32   ar
    25     4     5    1
    26     5     6    2
    27    10    11    1
    28    11    13    1
    29    13    14   am
    30    14    15    1
    31    14    16    2
    32    11    12    1
    33    12     7    1
    34     5     1   am
    35    32    23   ar
    36    32    27   ar
    37    19    20    1
    38    21    22    1
    39    13    17    1
@<TRIPOS>MOLECULE
*****
 36 39 0 0 0
SMALL
GASTEIGER

@<TRIPOS>ATOM
      1 N          -4.8393  -19.6158   20.7286 N.am    1  UNL1       -0.2781
      2 C          -5.0634  -21.0360   20.3010 C.3     1  UNL1        0.0957
      3 C          -6.4618  -21.4202   20.6840 C.3     1  UNL1        0.0504
      4 C          -7.1020  -20.2376   21.3485 C.3     1  UNL1        0.1495
      5 C          -6.0992  -19.1224   21.3760 C.2     1  UNL1        0.2435
      6 O          -6.3180  -17.7540   21.9501 O.2     1  UNL1       -0.2731
      7 C          -1.0522  -17.2508   20.1679 C.3     1  UNL1        0.0558
      8 C          -1.6207  -18.0385   19.0249 C.3     1  UNL1        0.0175
      9 C          -2.8831  -18.8268   19.2118 C.3     1  UNL1        0.0229
     10 C          -3.5769  -18.8275   20.5417 C.3     1  UNL1        0.0933
     11 C          -3.0084  -18.0398   21.6847 C.3     1  UNL1        0.0910
     12 C          -1.7460  -17.2514   21.4978 C.3     1  UNL1        0.0370
     13 N          -3.7022  -18.0404   23.0145 N.am    1  UNL1       -0.3043
     14 C          -4.2106  -16.7545   23.5959 C.2     1  UNL1        0.2230
     15 C          -4.9045  -16.7551   24.9257 C.3     1  UNL1        0.0946
     16 O          -4.0252  -15.4679   22.8474 O.2     1  UNL1       -0.2751
     17 H          -3.8240  -18.8848   23.5058 H       1  UNL1        0.1494
     18 C           1.5411  -17.1066   20.2332 C.3     1  UNL1        0.0858
     19 N           0.2102  -16.4625   19.9809 N.3     1  UNL1       -0.2973
     20 H           0.2168  -16.1426   19.0124 H       1  UNL1        0.1232
     21 N          -8.4996  -20.1802   21.8902 N.pl3   1  UNL1       -0.3122
     22 H          -8.7965  -20.8406   22.5573 H       1  UNL1        0.1486
     23 C          -9.4449  -19.1165   21.4156 C.ar    1  UNL1        0.1319
     24 N         -10.0993  -19.2402   20.0715 N.ar    1  UNL1       -0.2092
     25 C         -11.0445  -18.1766   19.5970 C.ar    1  UNL1        0.2000
     26 N         -11.3353  -16.9894   20.4664 N.ar    1  UNL1       -0.2239
     27 C         -10.6809  -16.8657   21.8104 C.ar    1  UNL1        0.0857
     28 C         -10.9717  -15.6785   22.6799 C.ar    1  UNL1        0.0192
     29 C         -10.3173  -15.5549   24.0239 C.ar    1  UNL1        0.0054
     30 C          -9.3721  -16.6185   24.4985 C.ar    1  UNL1        0.0716
     31 C          -9.0812  -17.8057   23.6291 C.ar    1  UNL1        0.0081
     32 C          -9.7357  -17.9293   22.2850 C.ar    1  UNL1        0.0491
     33 C          -8.7177  -16.4949   25.8425 C.3     1  UNL1        0.4186
     34 F          -8.0632  -16.3712   27.1866 F       1  UNL1       -0.1659
     35 F          -9.2807  -17.8273   26.2393 F       1  UNL1       -0.1659
     36 F          -8.1546  -15.1624   25.4458 F       1  UNL1       -0.1659
@<TRIPOS>BOND
     1    18    19    1
     2     7    19    1
     3     7     8    1
     4     8     9    1
     5     9    10    1
     6    10     1    1
     7     1     2    1
     8     2     3    1
     9     3     4    1
    10     4    21    1
    11    21    23    1
    12    23    24   ar
    13    24    25   ar
    14    25    26   ar
    15    26    27   ar
    16    27    28   ar
    17    28    29   ar
    18    29    30   ar
    19    30    33    1
    20    33    34    1
    21    33    35    1
    22    33    36    1
    23    30    31   ar
    24    31    32   ar
    25     4     5    1
    26     5     6    2
    27    10    11    1
    28    11    13    1
    29    13    14   am
    30    14    15    1
    31    14    16    2
    32    11    12    1
    33    12     7    1
    34     5     1   am
    35    32    23   ar
    36    32    27   ar
    37    19    20    1
    38    21    22    1
    39    13    17    1
@<TRIPOS>MOLECULE
*****
 36 39 0 0 0
SMALL
GASTEIGER

@<TRIPOS>ATOM
      1 N           2.9073    2.5026   18.7455 N.am    1  UNL1       -0.2781
      2 C           3.9690    3.5610   18.7948 C.3     1  UNL1        0.0957
      3 C           5.2325    2.9765   18.2363 C.3     1  UNL1        0.0504
      4 C           4.9516    1.5568   17.8418 C.3     1  UNL1        0.1495
      5 C           3.5146    1.2639   18.1565 C.2     1  UNL1        0.2435
      6 O           2.8087   -0.0389   17.9233 O.2     1  UNL1       -0.2731
      7 C          -1.3520    2.9624   20.1228 C.3     1  UNL1        0.0558
      8 C          -0.9223    3.5418   18.8076 C.3     1  UNL1        0.0175
      9 C           0.4974    3.3886   18.3485 C.3     1  UNL1        0.0229
     10 C           1.4875    2.6559   19.2046 C.3     1  UNL1        0.0933
     11 C           1.0578    2.0765   20.5198 C.3     1  UNL1        0.0910
     12 C          -0.3620    2.2297   20.9789 C.3     1  UNL1        0.0370
     13 N           2.0479    1.3438   21.3759 N.am    1  UNL1       -0.3043
     14 C           2.0696   -0.1561   21.3812 C.2     1  UNL1        0.2230
     15 C           3.0597   -0.8888   22.2373 C.3     1  UNL1        0.0946
     16 O           1.1013   -0.9232   20.5304 O.2     1  UNL1       -0.2751
     17 H           2.6834    1.8472   21.9343 H       1  UNL1        0.1494
     18 C          -3.8078    3.6634   19.6454 C.3     1  UNL1        0.0858
     19 N          -2.7718    3.1158   20.5818 N.3     1  UNL1       -0.2973
     20 H          -3.0913    2.1895   20.8652 H       1  UNL1        0.1232
     21 N           5.9352    0.5983   17.2385 N.pl3   1  UNL1       -0.3122
     22 H           5.8772    0.3702   16.2826 H       1  UNL1        0.1486
     23 C           7.0070   -0.0126   18.0918 C.ar    1  UNL1        0.1319
     24 N           8.3135    0.7001   18.2794 N.ar    1  UNL1       -0.2092
     25 C           9.3852    0.0892   19.1327 C.ar    1  UNL1        0.2000
     26 N           9.1505   -1.2344   19.7983 N.ar    1  UNL1       -0.2239
     27 C           7.8441   -1.9471   19.6106 C.ar    1  UNL1        0.0857
     28 C           7.6094   -3.2707   20.2762 C.ar    1  UNL1        0.0192
     29 C           6.3030   -3.9834   20.0885 C.ar    1  UNL1        0.0054
     30 C           5.2312   -3.3725   19.2352 C.ar    1  UNL1        0.0716
     31 C           5.4658   -2.0489   18.5697 C.ar    1  UNL1        0.0081
     32 C           6.7723   -1.3362   18.7574 C.ar    1  UNL1        0.0491
     33 C           3.9247   -4.0852   19.0476 C.3     1  UNL1        0.4186
     34 F           2.6182   -4.7979   18.8599 F       1  UNL1       -0.1659
     35 F           4.6326   -5.1923   18.3242 F       1  UNL1       -0.1659
     36 F           3.2169   -2.9781   19.7709 F       1  UNL1       -0.1659
@<TRIPOS>BOND
     1    18    19    1
     2     7    19    1
     3     7     8    1
     4     8     9    1
     5     9    10    1
     6    10     1    1
     7     1     2    1
     8     2     3    1
     9     3     4    1
    10     4    21    1
    11    21    23    1
    12    23    24   ar
    13    24    25   ar
    14    25    26   ar
    15    26    27   ar
    16    27    28   ar
    17    28    29   ar
    18    29    30   ar
    19    30    33    1
    20    33    34    1
    21    33    35    1
    22    33    36    1
    23    30    31   ar
    24    31    32   ar
    25     4     5    1
    26     5     6    2
    27    10    11    1
    28    11    13    1
    29    13    14   am
    30    14    15    1
    31    14    16    2
    32    11    12    1
    33    12     7    1
    34     5     1   am
    35    32    23   ar
    36    32    27   ar
    37    19    20    1
    38    21    22    1
    39    13    17    1
@<TRIPOS>MOLECULE
*****
 36 39 0 0 0
SMALL
GASTEIGER

@<TRIPOS>ATOM
      1 N           2.1290    1.4505   19.5754 N.am    1  UNL1       -0.2781
      2 C           2.7026    2.8280   19.4225 C.3     1  UNL1        0.0957
      3 C           1.6782    3.8126   19.9033 C.3     1  UNL1        0.0504
      4 C           0.4715    3.0437   20.3533 C.3     1  UNL1        0.1495
      5 C           0.7501    1.5838   20.1506 C.2     1  UNL1        0.2435
      6 O          -0.1858    0.4553   20.4675 O.2     1  UNL1       -0.2731
      7 C           4.1840   -2.4050   18.4974 C.3     1  UNL1        0.0558
      8 C           4.0777   -1.3032   17.4850 C.3     1  UNL1        0.0175
      9 C           3.3927   -0.0180   17.8444 C.3     1  UNL1        0.0229
     10 C           2.8140    0.1653   19.2160 C.3     1  UNL1        0.0933
     11 C           2.9203   -0.9365   20.2283 C.3     1  UNL1        0.0910
     12 C           3.6053   -2.2216   19.8690 C.3     1  UNL1        0.0370
     13 N           2.3416   -0.7531   21.6000 N.am    1  UNL1       -0.3043
     14 C           3.1697   -0.1340   22.6868 C.2     1  UNL1        0.2230
     15 C           2.5910    0.0493   24.0584 C.3     1  UNL1        0.0946
     16 O           4.5765    0.3017   22.4019 O.2     1  UNL1       -0.2751
     17 H           1.4183   -1.0390   21.7870 H       1  UNL1        0.1494
     18 C           4.5059   -4.9587   18.8512 C.3     1  UNL1        0.0858
     19 N           4.8690   -3.6902   18.1379 N.3     1  UNL1       -0.2973
     20 H           4.6937   -3.8497   17.1458 H       1  UNL1        0.1232
     21 N          -0.7919    3.6314   20.9085 N.pl3   1  UNL1       -0.3122
     22 H          -0.8267    3.9264   21.8472 H       1  UNL1        0.1486
     23 C          -2.0025    3.7696   20.0336 C.ar    1  UNL1        0.1319
     24 N          -1.8445    3.8742   18.5457 N.ar    1  UNL1       -0.2092
     25 C          -3.0551    4.0124   17.6708 C.ar    1  UNL1        0.2000
     26 N          -4.4237    4.0460   18.2839 N.ar    1  UNL1       -0.2239
     27 C          -4.5817    3.9413   19.7719 C.ar    1  UNL1        0.0857
     28 C          -5.9502    3.9749   20.3850 C.ar    1  UNL1        0.0192
     29 C          -6.1083    3.8702   21.8729 C.ar    1  UNL1        0.0054
     30 C          -4.8977    3.7320   22.7478 C.ar    1  UNL1        0.0716
     31 C          -3.5291    3.6985   22.1347 C.ar    1  UNL1        0.0081
     32 C          -3.3711    3.8031   20.6467 C.ar    1  UNL1        0.0491
     33 C          -5.0557    3.6274   24.2358 C.3     1  UNL1        0.4186
     34 F          -5.2137    3.5228   25.7238 F       1  UNL1       -0.1659
     35 F          -3.6457    3.1288   24.3505 F       1  UNL1       -0.1659
     36 F          -6.4657    4.1260   24.1211 F       1  UNL1       -0.1659
@<TRIPOS>BOND
     1    18    19    1
     2     7    19    1
     3     7     8    1
     4     8     9    1
     5     9    10    1
     6    10     1    1
     7     1     2    1
     8     2     3    1
     9     3     4    1
    10     4    21    1
    11    21    23    1
    12    23    24   ar
    13    24    25   ar
    14    25    26   ar
    15    26    27   ar
    16    27    28   ar
    17    28    29   ar
    18    29    30   ar
    19    30    33    1
    20    33    34    1
    21    33    35    1
    22    33    36    1
    23    30    31   ar
    24    31    32   ar
    25     4     5    1
    26     5     6    2
    27    10    11    1
    28    11    13    1
    29    13    14   am
    30    14    15    1
    31    14    16    2
    32    11    12    1
    33    12     7    1
    34     5     1   am
    35    32    23   ar
    36    32    27   ar
    37    19    20    1
    38    21    22    1
    39    13    17    1
