@<TRIPOS>MOLECULE
*****
 23 25 0 0 0
SMALL
GASTEIGER

@<TRIPOS>ATOM
      1 C          -8.8823  -17.1769   21.9776 C.ar    1  UNL1        0.0685
      2 C          -8.2679  -18.3739   21.3145 C.ar    1  UNL1        0.0885
      3 C          -9.1458  -19.4398   20.7289 C.ar    1  UNL1        0.1263
      4 N         -10.6381  -19.3089   20.8063 N.ar    1  UNL1       -0.1633
      5 N         -11.2524  -18.1119   21.4694 N.ar    1  UNL1       -0.2270
      6 C         -12.6805  -17.7121   21.6950 C.ar    1  UNL1        0.1005
      7 C         -12.6851  -16.3990   22.4202 C.ar    1  UNL1        0.0223
      8 C         -11.2600  -15.9873   22.6427 C.ar    1  UNL1        0.0220
      9 C         -10.3745  -17.0459   22.0551 C.ar    1  UNL1        0.0961
     10 C          -6.7756  -18.5049   21.2371 C.2     1  UNL1        0.2456
     11 N          -6.0977  -18.5794   19.9011 N.am    1  UNL1       -0.3252
     12 O          -5.9614  -18.5612   22.4955 O.2     1  UNL1       -0.2703
     13 H          -6.6321  -18.5425   19.0752 H       1  UNL1        0.1453
     14 H          -5.1182  -18.6654   19.8503 H       1  UNL1        0.1453
     15 N          -8.0044  -16.1109   22.5633 N.pl3   1  UNL1       -0.3305
     16 H          -7.5392  -15.4763   21.9716 H       1  UNL1        0.1469
     17 C          -5.2015  -15.2129   25.2024 C.3     1  UNL1        0.0370
     18 C          -6.5779  -15.6247   24.7710 C.3     1  UNL1        0.1500
     19 F          -6.0087  -15.5071   23.3882 F       1  UNL1       -0.2383
     20 C          -6.8594  -15.6562   26.2440 C.3     1  UNL1        0.0343
     21 C          -8.2907  -16.0629   26.4338 C.3     1  UNL1        0.0046
     22 C          -8.8938  -16.2827   25.0782 C.3     1  UNL1        0.0223
     23 C          -7.8353  -16.0119   24.0505 C.3     1  UNL1        0.0993
@<TRIPOS>BOND
     1    18    17    1
     2    18    19    1
     3    18    20    1
     4    20    21    1
     5    21    22    1
     6    22    23    1
     7    23    15    1
     8    15     1    1
     9     1     2   ar
    10     2    10    1
    11    10    11   am
    12    10    12    2
    13     2     3   ar
    14     3     4   ar
    15     4     5   ar
    16     5     6   ar
    17     6     7   ar
    18     7     8   ar
    19     8     9   ar
    20    23    18    1
    21     9     1   ar
    22     9     5   ar
    23    15    16    1
    24    11    13    1
    25    11    14    1
@<TRIPOS>MOLECULE
*****
 23 25 0 0 0
SMALL
GASTEIGER

@<TRIPOS>ATOM
      1 C          -7.3751  -17.6198   22.5422 C.ar    1  UNL1        0.0685
      2 C          -6.8496  -16.5946   23.5029 C.ar    1  UNL1        0.0885
      3 C          -5.3785  -16.5152   23.7845 C.ar    1  UNL1        0.1263
      4 N          -4.4327  -17.4610   23.1055 N.ar    1  UNL1       -0.1633
      5 N          -4.9582  -18.4862   22.1448 N.ar    1  UNL1       -0.2270
      6 C          -4.2727  -19.5439   21.3315 C.ar    1  UNL1        0.1005
      7 C          -5.3203  -20.2769   20.5472 C.ar    1  UNL1        0.0223
      8 C          -6.6532  -19.6723   20.8758 C.ar    1  UNL1        0.0220
      9 C          -6.4294  -18.5656   21.8632 C.ar    1  UNL1        0.0961
     10 C          -7.7954  -15.6488   24.1819 C.2     1  UNL1        0.2456
     11 N          -7.7248  -14.1792   23.8900 N.am    1  UNL1       -0.3252
     12 O          -8.8118  -16.1726   25.1527 O.2     1  UNL1       -0.2703
     13 H          -7.0577  -13.8354   23.2527 H       1  UNL1        0.1453
     14 H          -8.3455  -13.5584   24.3356 H       1  UNL1        0.1453
     15 N          -8.8463  -17.6992   22.2605 N.pl3   1  UNL1       -0.3305
     16 H          -9.2301  -17.2005   21.5034 H       1  UNL1        0.1469
     17 C         -12.6057  -17.8116   23.4774 C.3     1  UNL1        0.0370
     18 C         -11.1890  -18.2983   23.3998 C.3     1  UNL1        0.1500
     19 F         -10.9995  -17.1185   22.4931 F       1  UNL1       -0.2383
     20 C         -11.6747  -19.3764   24.3227 C.3     1  UNL1        0.0343
     21 C         -10.5185  -20.2826   24.6258 C.3     1  UNL1        0.0046
     22 C          -9.3183  -19.7647   23.8903 C.3     1  UNL1        0.0223
     23 C          -9.7327  -18.5383   23.1325 C.3     1  UNL1        0.0993
@<TRIPOS>BOND
     1    18    17    1
     2    18    19    1
     3    18    20    1
     4    20    21    1
     5    21    22    1
     6    22    23    1
     7    23    15    1
     8    15     1    1
     9     1     2   ar
    10     2    10    1
    11    10    11   am
    12    10    12    2
    13     2     3   ar
    14     3     4   ar
    15     4     5   ar
    16     5     6   ar
    17     6     7   ar
    18     7     8   ar
    19     8     9   ar
    20    23    18    1
    21     9     1   ar
    22     9     5   ar
    23    15    16    1
    24    11    13    1
    25    11    14    1
@<TRIPOS>MOLECULE
*****
 23 25 0 0 0
SMALL
GASTEIGER

@<TRIPOS>ATOM
      1 C          -9.7401  -18.2308   22.4896 C.ar    1  UNL1        0.0685
      2 C         -10.9558  -17.7602   21.7476 C.ar    1  UNL1        0.0885
      3 C         -11.0677  -17.9891   20.2695 C.ar    1  UNL1        0.1263
      4 N          -9.9639  -18.6887   19.5331 N.ar    1  UNL1       -0.1633
      5 N          -8.7481  -19.1593   20.2751 N.ar    1  UNL1       -0.2270
      6 C          -7.5090  -19.8726   19.8214 C.ar    1  UNL1        0.1005
      7 C          -6.6313  -20.0844   21.0192 C.ar    1  UNL1        0.0223
      8 C          -7.3280  -19.5021   22.2132 C.ar    1  UNL1        0.0220
      9 C          -8.6362  -18.9304   21.7533 C.ar    1  UNL1        0.0961
     10 C         -12.0597  -17.0606   22.4840 C.2     1  UNL1        0.2456
     11 N         -12.0072  -15.5742   22.6783 N.am    1  UNL1       -0.3252
     12 O         -13.2160  -17.8474   23.0260 O.2     1  UNL1       -0.2703
     13 H         -11.2482  -15.0578   22.3225 H       1  UNL1        0.1453
     14 H         -12.7316  -15.1150   23.1615 H       1  UNL1        0.1453
     15 N          -9.6282  -18.0019   23.9678 N.pl3   1  UNL1       -0.3305
     16 H         -10.0988  -18.5971   24.5951 H       1  UNL1        0.1469
     17 C          -8.3991  -16.5397   27.4287 C.3     1  UNL1        0.0370
     18 C          -8.5113  -16.5756   25.9334 C.3     1  UNL1        0.1500
     19 F          -9.3522  -17.7924   26.1831 F       1  UNL1       -0.2383
     20 C          -7.6469  -15.3513   25.9962 C.3     1  UNL1        0.0343
     21 C          -7.4008  -14.8851   24.5920 C.3     1  UNL1        0.0046
     22 C          -8.1130  -15.8212   23.6612 C.3     1  UNL1        0.0223
     23 C          -8.7993  -16.8660   24.4902 C.3     1  UNL1        0.0993
@<TRIPOS>BOND
     1    18    17    1
     2    18    19    1
     3    18    20    1
     4    20    21    1
     5    21    22    1
     6    22    23    1
     7    23    15    1
     8    15     1    1
     9     1     2   ar
    10     2    10    1
    11    10    11   am
    12    10    12    2
    13     2     3   ar
    14     3     4   ar
    15     4     5   ar
    16     5     6   ar
    17     6     7   ar
    18     7     8   ar
    19     8     9   ar
    20    23    18    1
    21     9     1   ar
    22     9     5   ar
    23    15    16    1
    24    11    13    1
    25    11    14    1
@<TRIPOS>MOLECULE
*****
 23 25 0 0 0
SMALL
GASTEIGER

@<TRIPOS>ATOM
      1 C          -7.4004  -17.8042   22.8736 C.ar    1  UNL1        0.0685
      2 C          -6.8798  -16.6119   23.6202 C.ar    1  UNL1        0.0885
      3 C          -5.4101  -16.3125   23.6240 C.ar    1  UNL1        0.1263
      4 N          -4.4607  -17.2053   22.8812 N.ar    1  UNL1       -0.1633
      5 N          -4.9813  -18.3976   22.1346 N.ar    1  UNL1       -0.2270
      6 C          -4.2917  -19.4500   21.3180 C.ar    1  UNL1        0.1005
      7 C          -5.3353  -20.3999   20.8095 C.ar    1  UNL1        0.0223
      8 C          -6.6699  -19.9346   21.3119 C.ar    1  UNL1        0.0220
      9 C          -6.4511  -18.6971   22.1308 C.ar    1  UNL1        0.0961
     10 C          -7.8291  -15.7191   24.3630 C.2     1  UNL1        0.2456
     11 N          -7.7711  -14.2332   24.1656 N.am    1  UNL1       -0.3252
     12 O          -8.8363  -16.3120   25.3030 O.2     1  UNL1       -0.2703
     13 H          -7.1099  -13.8441   23.5486 H       1  UNL1        0.1453
     14 H          -8.3941  -13.6472   24.6531 H       1  UNL1        0.1453
     15 N          -8.8702  -18.1037   22.8699 N.pl3   1  UNL1       -0.3305
     16 H          -9.2633  -18.6489   23.5892 H       1  UNL1        0.1469
     17 C         -10.7672  -19.4137   19.6586 C.3     1  UNL1        0.0370
     18 C         -10.3281  -18.3731   20.6456 C.3     1  UNL1        0.1500
     19 F          -9.6205  -19.5209   21.3026 F       1  UNL1       -0.2383
     20 C         -11.1275  -17.4428   19.7823 C.3     1  UNL1        0.0343
     21 C         -11.0345  -16.0672   20.3732 C.3     1  UNL1        0.0046
     22 C         -10.1776  -16.1473   21.6016 C.3     1  UNL1        0.0223
     23 C          -9.7410  -17.5724   21.7700 C.3     1  UNL1        0.0993
@<TRIPOS>BOND
     1    18    17    1
     2    18    19    1
     3    18    20    1
     4    20    21    1
     5    21    22    1
     6    22    23    1
     7    23    15    1
     8    15     1    1
     9     1     2   ar
    10     2    10    1
    11    10    11   am
    12    10    12    2
    13     2     3   ar
    14     3     4   ar
    15     4     5   ar
    16     5     6   ar
    17     6     7   ar
    18     7     8   ar
    19     8     9   ar
    20    23    18    1
    21     9     1   ar
    22     9     5   ar
    23    15    16    1
    24    11    13    1
    25    11    14    1
@<TRIPOS>MOLECULE
*****
 23 25 0 0 0
SMALL
GASTEIGER

@<TRIPOS>ATOM
      1 C          -7.5364  -17.7455   21.9230 C.ar    1  UNL1        0.0685
      2 C          -6.4962  -18.6915   21.4004 C.ar    1  UNL1        0.0885
      3 C          -5.1044  -18.6586   21.9585 C.ar    1  UNL1        0.1263
      4 N          -4.7526  -17.6797   23.0393 N.ar    1  UNL1       -0.1633
      5 N          -5.7928  -16.7337   23.5619 N.ar    1  UNL1       -0.2270
      6 C          -5.7406  -15.6667   24.6148 C.ar    1  UNL1        0.1005
      7 C          -7.1003  -15.0401   24.7074 C.ar    1  UNL1        0.0223
      8 C          -7.9928  -15.7199   23.7117 C.ar    1  UNL1        0.0220
      9 C          -7.1847  -16.7667   23.0038 C.ar    1  UNL1        0.0961
     10 C          -6.8480  -19.6704   20.3196 C.2     1  UNL1        0.2456
     11 N          -6.1882  -21.0170   20.2836 N.am    1  UNL1       -0.3252
     12 O          -7.8596  -19.3027   19.2749 O.2     1  UNL1       -0.2703
     13 H          -5.5243  -21.2583   20.9693 H       1  UNL1        0.1453
     14 H          -6.4191  -21.6595   19.5743 H       1  UNL1        0.1453
     15 N          -8.9283  -17.7784   21.3649 N.pl3   1  UNL1       -0.3305
     16 H          -9.0782  -17.6135   20.4059 H       1  UNL1        0.1469
     17 C         -12.3438  -16.1146   22.4574 C.3     1  UNL1        0.0370
     18 C         -11.2900  -17.1821   22.4659 C.3     1  UNL1        0.1500
     19 F         -10.6001  -16.2884   21.4783 F       1  UNL1       -0.2383
     20 C         -12.2002  -17.8527   23.4516 C.3     1  UNL1        0.0343
     21 C         -11.5647  -19.1477   23.8628 C.3     1  UNL1        0.0046
     22 C         -10.2618  -19.2775   23.1312 C.3     1  UNL1        0.0223
     23 C         -10.0920  -18.0627   22.2678 C.3     1  UNL1        0.0993
@<TRIPOS>BOND
     1    18    17    1
     2    18    19    1
     3    18    20    1
     4    20    21    1
     5    21    22    1
     6    22    23    1
     7    23    15    1
     8    15     1    1
     9     1     2   ar
    10     2    10    1
    11    10    11   am
    12    10    12    2
    13     2     3   ar
    14     3     4   ar
    15     4     5   ar
    16     5     6   ar
    17     6     7   ar
    18     7     8   ar
    19     8     9   ar
    20    23    18    1
    21     9     1   ar
    22     9     5   ar
    23    15    16    1
    24    11    13    1
    25    11    14    1
@<TRIPOS>MOLECULE
*****
 23 25 0 0 0
SMALL
GASTEIGER

@<TRIPOS>ATOM
      1 C          -7.5325  -17.4694   23.3656 C.ar    1  UNL1        0.0685
      2 C          -6.6780  -16.3626   23.9084 C.ar    1  UNL1        0.0885
      3 C          -5.2123  -16.3227   23.5923 C.ar    1  UNL1        0.1263
      4 N          -4.6010  -17.3898   22.7332 N.ar    1  UNL1       -0.1633
      5 N          -5.4556  -18.4966   22.1904 N.ar    1  UNL1       -0.2270
      6 C          -5.1362  -19.6779   21.3230 C.ar    1  UNL1        0.1005
      7 C          -6.4046  -20.4478   21.1030 C.ar    1  UNL1        0.0223
      8 C          -7.5079  -19.7423   21.8346 C.ar    1  UNL1        0.0220
      9 C          -6.9213  -18.5364   22.5066 C.ar    1  UNL1        0.0961
     10 C          -7.2893  -15.2955   24.7675 C.2     1  UNL1        0.2456
     11 N          -7.8930  -14.0772   24.1341 N.am    1  UNL1       -0.3252
     12 O          -7.2969  -15.4469   26.2597 O.2     1  UNL1       -0.2703
     13 H          -7.8880  -13.9779   23.1546 H       1  UNL1        0.1453
     14 H          -8.2942  -13.3769   24.6978 H       1  UNL1        0.1453
     15 N          -8.9983  -17.5092   23.6818 N.pl3   1  UNL1       -0.3305
     16 H          -9.3055  -17.8600   24.5489 H       1  UNL1        0.1469
     17 C         -12.8896  -17.6648   23.0029 C.3     1  UNL1        0.0370
     18 C         -11.4755  -17.2602   22.7086 C.3     1  UNL1        0.1500
     19 F         -11.1633  -18.0201   23.9636 F       1  UNL1       -0.2383
     20 C         -12.0833  -16.5849   21.5152 C.3     1  UNL1        0.0343
     21 C         -10.9795  -15.9218   20.7457 C.3     1  UNL1        0.0046
     22 C          -9.6896  -16.1873   21.4637 C.3     1  UNL1        0.0223
     23 C          -9.9961  -17.0145   22.6768 C.3     1  UNL1        0.0993
@<TRIPOS>BOND
     1    18    17    1
     2    18    19    1
     3    18    20    1
     4    20    21    1
     5    21    22    1
     6    22    23    1
     7    23    15    1
     8    15     1    1
     9     1     2   ar
    10     2    10    1
    11    10    11   am
    12    10    12    2
    13     2     3   ar
    14     3     4   ar
    15     4     5   ar
    16     5     6   ar
    17     6     7   ar
    18     7     8   ar
    19     8     9   ar
    20    23    18    1
    21     9     1   ar
    22     9     5   ar
    23    15    16    1
    24    11    13    1
    25    11    14    1
@<TRIPOS>MOLECULE
*****
 23 25 0 0 0
SMALL
GASTEIGER

@<TRIPOS>ATOM
      1 C          -8.5217  -15.6874   24.2748 C.ar    1  UNL1        0.0685
      2 C          -7.7358  -15.5204   23.0081 C.ar    1  UNL1        0.0885
      3 C          -6.2684  -15.2163   23.0706 C.ar    1  UNL1        0.1263
      4 N          -5.5867  -15.0793   24.3997 N.ar    1  UNL1       -0.1633
      5 N          -6.3726  -15.2463   25.6664 N.ar    1  UNL1       -0.2270
      6 C          -5.9763  -15.1687   27.1110 C.ar    1  UNL1        0.1005
      7 C          -7.1990  -15.4249   27.9414 C.ar    1  UNL1        0.0223
      8 C          -8.3509  -15.6607   27.0099 C.ar    1  UNL1        0.0220
      9 C          -7.8401  -15.5503   25.6039 C.ar    1  UNL1        0.0961
     10 C          -8.4175  -15.6575   21.6790 C.2     1  UNL1        0.2456
     11 N          -8.6991  -14.4386   20.8513 N.am    1  UNL1       -0.3252
     12 O          -8.8176  -17.0133   21.1775 O.2     1  UNL1       -0.2703
     13 H          -8.4365  -13.5487   21.1804 H       1  UNL1        0.1453
     14 H          -9.1465  -14.5285   19.9790 H       1  UNL1        0.1453
     15 N          -9.9893  -15.9915   24.2123 N.pl3   1  UNL1       -0.3305
     16 H         -10.6473  -15.2725   24.3511 H       1  UNL1        0.1469
     17 C         -12.6439  -17.8773   21.9710 C.3     1  UNL1        0.0370
     18 C         -11.5387  -17.7884   22.9813 C.3     1  UNL1        0.1500
     19 F         -11.6375  -16.3135   22.7266 F       1  UNL1       -0.2383
     20 C         -11.6710  -19.2819   23.0248 C.3     1  UNL1        0.0343
     21 C         -10.6683  -19.8076   24.0087 C.3     1  UNL1        0.0046
     22 C          -9.9163  -18.6391   24.5733 C.3     1  UNL1        0.0223
     23 C         -10.4542  -17.3911   23.9383 C.3     1  UNL1        0.0993
@<TRIPOS>BOND
     1    18    17    1
     2    18    19    1
     3    18    20    1
     4    20    21    1
     5    21    22    1
     6    22    23    1
     7    23    15    1
     8    15     1    1
     9     1     2   ar
    10     2    10    1
    11    10    11   am
    12    10    12    2
    13     2     3   ar
    14     3     4   ar
    15     4     5   ar
    16     5     6   ar
    17     6     7   ar
    18     7     8   ar
    19     8     9   ar
    20    23    18    1
    21     9     1   ar
    22     9     5   ar
    23    15    16    1
    24    11    13    1
    25    11    14    1
@<TRIPOS>MOLECULE
*****
 23 25 0 0 0
SMALL
GASTEIGER

@<TRIPOS>ATOM
      1 C         -10.0127  -17.5145   22.9095 C.ar    1  UNL1        0.0685
      2 C         -10.8048  -18.2816   23.9264 C.ar    1  UNL1        0.0885
      3 C         -12.2926  -18.4044   23.7812 C.ar    1  UNL1        0.1263
      4 N         -12.9885  -17.7602   22.6189 N.ar    1  UNL1       -0.1633
      5 N         -12.1964  -16.9931   21.6020 N.ar    1  UNL1       -0.2270
      6 C         -12.6034  -16.2561   20.3605 C.ar    1  UNL1        0.1005
      7 C         -11.3670  -15.6778   19.7385 C.ar    1  UNL1        0.0223
      8 C         -10.1959  -16.0574   20.5956 C.ar    1  UNL1        0.0220
      9 C         -10.7085  -16.8703   21.7473 C.ar    1  UNL1        0.0961
     10 C         -10.1089  -18.9259   25.0887 C.2     1  UNL1        0.2456
     11 N         -10.2440  -20.4018   25.3193 N.am    1  UNL1       -0.3252
     12 O          -9.2780  -18.0942   26.0202 O.2     1  UNL1       -0.2703
     13 H         -10.7894  -20.9477   24.7079 H       1  UNL1        0.1453
     14 H          -9.7873  -20.8247   26.0821 H       1  UNL1        0.1453
     15 N          -8.5248  -17.3917   23.0547 N.pl3   1  UNL1       -0.3305
     16 H          -8.1429  -16.6963   23.6376 H       1  UNL1        0.1469
     17 C          -4.6667  -18.1853   22.7195 C.3     1  UNL1        0.0370
     18 C          -6.1230  -18.3744   22.4137 C.3     1  UNL1        0.1500
     19 F          -6.3122  -17.2511   23.3896 F       1  UNL1       -0.2383
     20 C          -5.6294  -19.4581   21.5017 C.3     1  UNL1        0.0343
     21 C          -6.8201  -20.0821   20.8363 C.3     1  UNL1        0.0046
     22 C          -8.0497  -19.3840   21.3371 C.3     1  UNL1        0.0223
     23 C          -7.6188  -18.3286   22.3120 C.3     1  UNL1        0.0993
@<TRIPOS>BOND
     1    18    17    1
     2    18    19    1
     3    18    20    1
     4    20    21    1
     5    21    22    1
     6    22    23    1
     7    23    15    1
     8    15     1    1
     9     1     2   ar
    10     2    10    1
    11    10    11   am
    12    10    12    2
    13     2     3   ar
    14     3     4   ar
    15     4     5   ar
    16     5     6   ar
    17     6     7   ar
    18     7     8   ar
    19     8     9   ar
    20    23    18    1
    21     9     1   ar
    22     9     5   ar
    23    15    16    1
    24    11    13    1
    25    11    14    1
@<TRIPOS>MOLECULE
*****
 23 25 0 0 0
SMALL
GASTEIGER

@<TRIPOS>ATOM
      1 C          -7.9832  -17.8052   22.7063 C.ar    1  UNL1        0.0685
      2 C          -8.1202  -16.3807   23.1558 C.ar    1  UNL1        0.0885
      3 C          -9.0057  -16.0430   24.3184 C.ar    1  UNL1        0.1263
      4 N          -9.7543  -17.1298   25.0316 N.ar    1  UNL1       -0.1633
      5 N          -9.6173  -18.5543   24.5821 N.ar    1  UNL1       -0.2270
      6 C         -10.2267  -19.8288   25.0862 C.ar    1  UNL1        0.1005
      7 C          -9.7178  -20.9542   24.2351 C.ar    1  UNL1        0.0223
      8 C          -8.7939  -20.3753   23.2049 C.ar    1  UNL1        0.0220
      9 C          -8.7317  -18.8920   23.4194 C.ar    1  UNL1        0.0961
     10 C          -7.3716  -15.2940   22.4425 C.2     1  UNL1        0.2456
     11 N          -6.0703  -14.7926   22.9950 N.am    1  UNL1       -0.3252
     12 O          -7.9243  -14.7086   21.1770 O.2     1  UNL1       -0.2703
     13 H          -5.7076  -15.1768   23.8257 H       1  UNL1        0.1453
     14 H          -5.5790  -14.0794   22.5269 H       1  UNL1        0.1453
     15 N          -7.0977  -18.1429   21.5436 N.pl3   1  UNL1       -0.3305
     16 H          -7.4430  -18.0707   20.6245 H       1  UNL1        0.1469
     17 C          -4.4474  -20.6326   19.9929 C.3     1  UNL1        0.0370
     18 C          -4.9338  -19.6037   20.9701 C.3     1  UNL1        0.1500
     19 F          -6.2044  -19.6795   20.1766 F       1  UNL1       -0.2383
     20 C          -3.5615  -19.7431   21.5594 C.3     1  UNL1        0.0343
     21 C          -3.4654  -18.8162   22.7348 C.3     1  UNL1        0.0046
     22 C          -4.7783  -18.1039   22.8720 C.3     1  UNL1        0.0223
     23 C          -5.6858  -18.5907   21.7813 C.3     1  UNL1        0.0993
@<TRIPOS>BOND
     1    18    17    1
     2    18    19    1
     3    18    20    1
     4    20    21    1
     5    21    22    1
     6    22    23    1
     7    23    15    1
     8    15     1    1
     9     1     2   ar
    10     2    10    1
    11    10    11   am
    12    10    12    2
    13     2     3   ar
    14     3     4   ar
    15     4     5   ar
    16     5     6   ar
    17     6     7   ar
    18     7     8   ar
    19     8     9   ar
    20    23    18    1
    21     9     1   ar
    22     9     5   ar
    23    15    16    1
    24    11    13    1
    25    11    14    1
