@<TRIPOS>MOLECULE
*****
 33 36 0 0 0
SMALL
GASTEIGER

@<TRIPOS>ATOM
      1 N           4.6181    0.8003   28.2775 N.am    1  UNL1       -0.2533
      2 C           4.3717   -0.0962   27.1005 C.2     1  UNL1        0.3092
      3 O           3.5376   -1.3326   27.2610 O.2     1  UNL1       -0.2521
      4 N           4.9594    0.2435   25.7629 N.am    1  UNL1       -0.2680
      5 H           5.1656    1.6118   28.1721 H       1  UNL1        0.1578
      6 H           5.5069    1.0550   25.6575 H       1  UNL1        0.1564
      7 C           4.7130   -0.6530   24.5858 C.ar    1  UNL1        0.0516
      8 C           3.6373   -0.3140   23.5970 C.ar    1  UNL1        0.0148
      9 C           3.3909   -1.2106   22.4200 C.ar    1  UNL1        0.0044
     10 C           4.2202   -2.4462   22.2317 C.ar    1  UNL1        0.0363
     11 C           5.2959   -2.7852   23.2206 C.ar    1  UNL1        0.0044
     12 C           5.5423   -1.8887   24.3976 C.ar    1  UNL1        0.0148
     13 C           3.9737   -3.3428   21.0547 C.ar    1  UNL1        0.1664
     14 C           3.5327   -2.9046   19.6896 C.ar    1  UNL1        0.1396
     15 N           3.4115   -4.1259   18.8273 N.ar    1  UNL1       -0.2026
     16 C           3.7777   -5.3190   19.6595 C.ar    1  UNL1        0.2851
     17 O           4.1252   -4.8350   21.0361 O.2     1  UNL1       -0.4311
     18 N           2.5978    0.6427   30.0207 N.ar    1  UNL1       -0.2162
     19 N           2.4542    0.1738   31.4382 N.ar    1  UNL1       -0.1683
     20 C           3.7980   -0.2982   31.9088 C.ar    1  UNL1        0.0810
     21 C           4.7722   -0.1209   30.7820 C.ar    1  UNL1        0.0509
     22 C           4.0304    0.4606   29.6151 C.ar    1  UNL1        0.1380
     23 C          -1.7880    2.8580   26.5772 C.3     1  UNL1        0.0310
     24 C          -0.6916    2.3041   27.4381 C.ar    1  UNL1       -0.0218
     25 C           0.3510    3.2205   28.0066 C.ar    1  UNL1       -0.0027
     26 C           1.4474    2.6667   28.8675 C.ar    1  UNL1        0.0189
     27 C           1.5013    1.1965   29.1598 C.ar    1  UNL1        0.0842
     28 C           0.4588    0.2801   28.5913 C.ar    1  UNL1        0.0189
     29 C          -0.6377    0.8339   27.7304 C.ar    1  UNL1       -0.0027
     30 C           4.1124   -0.8504   33.2675 C.3     1  UNL1        0.0372
     31 C           4.3934   -2.1916   32.6574 C.3     1  UNL1        0.0060
     32 C           3.8315    0.4908   33.8776 C.3     1  UNL1        0.0060
     33 C           4.4268   -1.4026   34.6262 C.3     1  UNL1        0.0060
@<TRIPOS>BOND
     1    23    24    1
     2    24    25   ar
     3    25    26   ar
     4    26    27   ar
     5    27    18    1
     6    18    19   ar
     7    19    20   ar
     8    20    30    1
     9    30    31    1
    10    30    32    1
    11    30    33    1
    12    20    21   ar
    13    21    22   ar
    14    22     1    1
    15     1     2   am
    16     2     3    2
    17     2     4   am
    18     4     7    1
    19     7     8   ar
    20     8     9   ar
    21     9    10   ar
    22    10    13    1
    23    13    14   ar
    24    14    15   ar
    25    15    16   ar
    26    16    17   ar
    27    10    11   ar
    28    11    12   ar
    29    27    28   ar
    30    28    29   ar
    31    29    24   ar
    32    22    18   ar
    33    12     7   ar
    34    17    13   ar
    35     1     5    1
    36     4     6    1
@<TRIPOS>MOLECULE
*****
 33 36 0 0 0
SMALL
GASTEIGER

@<TRIPOS>ATOM
      1 N           0.4146    3.3755   24.7585 N.am    1  UNL1       -0.2533
      2 C           0.8712    2.1411   24.0390 C.2     1  UNL1        0.3092
      3 O          -0.0389    0.9532   23.9358 O.2     1  UNL1       -0.2521
      4 N           2.2380    2.0944   23.4227 N.am    1  UNL1       -0.2680
      5 H           1.0120    4.1551   24.8262 H       1  UNL1        0.1578
      6 H           2.8354    2.8740   23.4905 H       1  UNL1        0.1564
      7 C           2.6945    0.8600   22.7033 C.ar    1  UNL1        0.0516
      8 C           2.5635    0.7694   21.2117 C.ar    1  UNL1        0.0148
      9 C           3.0201   -0.4650   20.4923 C.ar    1  UNL1        0.0044
     10 C           3.6077   -1.6090   21.2642 C.ar    1  UNL1        0.0363
     11 C           3.7387   -1.5185   22.7558 C.ar    1  UNL1        0.0044
     12 C           3.2821   -0.2840   23.4752 C.ar    1  UNL1        0.0148
     13 C           4.0642   -2.8435   20.5448 C.ar    1  UNL1        0.1664
     14 C           5.3209   -3.6132   20.8247 C.ar    1  UNL1        0.1396
     15 N           5.3776   -4.7704   19.8720 N.ar    1  UNL1       -0.2026
     16 C           4.1560   -4.7158   19.0032 C.ar    1  UNL1        0.2851
     17 O           3.3443   -3.5249   19.4190 O.2     1  UNL1       -0.4311
     18 N          -1.3402    2.8450   26.7038 N.ar    1  UNL1       -0.2162
     19 N          -2.7987    3.1203   26.9206 N.ar    1  UNL1       -0.1683
     20 C          -3.3120    3.8676   25.7255 C.ar    1  UNL1        0.0810
     21 C          -2.1708    4.0541   24.7702 C.ar    1  UNL1        0.0509
     22 C          -0.9522    3.4221   25.3748 C.ar    1  UNL1        0.1380
     23 C           2.3020   -0.0553   30.4883 C.3     1  UNL1        0.0310
     24 C           1.3914    0.6697   29.5422 C.ar    1  UNL1       -0.0218
     25 C           0.3024   -0.0761   28.8296 C.ar    1  UNL1       -0.0027
     26 C          -0.6081    0.6490   27.8835 C.ar    1  UNL1        0.0189
     27 C          -0.4297    2.1199   27.6499 C.ar    1  UNL1        0.0842
     28 C           0.6593    2.8657   28.3625 C.ar    1  UNL1        0.0189
     29 C           1.5699    2.1406   29.3086 C.ar    1  UNL1       -0.0027
     30 C          -4.7195    4.3445   25.5217 C.3     1  UNL1        0.0372
     31 C          -4.6652    5.0663   26.8355 C.3     1  UNL1        0.0060
     32 C          -4.7738    3.6228   24.2079 C.3     1  UNL1        0.0060
     33 C          -6.1269    4.8215   25.3179 C.3     1  UNL1        0.0060
@<TRIPOS>BOND
     1    23    24    1
     2    24    25   ar
     3    25    26   ar
     4    26    27   ar
     5    27    18    1
     6    18    19   ar
     7    19    20   ar
     8    20    30    1
     9    30    31    1
    10    30    32    1
    11    30    33    1
    12    20    21   ar
    13    21    22   ar
    14    22     1    1
    15     1     2   am
    16     2     3    2
    17     2     4   am
    18     4     7    1
    19     7     8   ar
    20     8     9   ar
    21     9    10   ar
    22    10    13    1
    23    13    14   ar
    24    14    15   ar
    25    15    16   ar
    26    16    17   ar
    27    10    11   ar
    28    11    12   ar
    29    27    28   ar
    30    28    29   ar
    31    29    24   ar
    32    22    18   ar
    33    12     7   ar
    34    17    13   ar
    35     1     5    1
    36     4     6    1
@<TRIPOS>MOLECULE
*****
 33 36 0 0 0
SMALL
GASTEIGER

@<TRIPOS>ATOM
      1 N          -0.7819    3.9584   20.6885 N.am    1  UNL1       -0.2533
      2 C          -0.1278    2.6197   20.5151 C.2     1  UNL1        0.3092
      3 O          -0.9639    1.3746   20.4856 O.2     1  UNL1       -0.2521
      4 N           1.3623    2.5260   20.3712 N.am    1  UNL1       -0.2680
      5 H          -0.2331    4.7755   20.7079 H       1  UNL1        0.1578
      6 H           1.9111    3.3432   20.3906 H       1  UNL1        0.1564
      7 C           2.0164    1.1873   20.1978 C.ar    1  UNL1        0.0516
      8 C           2.1850    0.2765   21.3777 C.ar    1  UNL1        0.0148
      9 C           2.8390   -1.0622   21.2043 C.ar    1  UNL1        0.0044
     10 C           3.3245   -1.4902   19.8511 C.ar    1  UNL1        0.0363
     11 C           3.1558   -0.5794   18.6713 C.ar    1  UNL1        0.0044
     12 C           2.5018    0.7593   18.8447 C.ar    1  UNL1        0.0148
     13 C           3.9785   -2.8289   19.6777 C.ar    1  UNL1        0.1664
     14 C           5.2900   -3.2527   20.2696 C.ar    1  UNL1        0.1396
     15 N           5.5579   -4.6646   19.8397 N.ar    1  UNL1       -0.2026
     16 C           4.4120   -5.1134   18.9821 C.ar    1  UNL1        0.2851
     17 O           3.4358   -3.9788   18.8820 O.2     1  UNL1       -0.4311
     18 N          -3.0254    4.2072   22.1202 N.ar    1  UNL1       -0.2162
     19 N          -4.4894    4.2581   21.7974 N.ar    1  UNL1       -0.1683
     20 C          -4.6408    4.1345   20.3102 C.ar    1  UNL1        0.0810
     21 C          -3.2703    4.0071   19.7138 C.ar    1  UNL1        0.0509
     22 C          -2.2720    4.0521   20.8324 C.ar    1  UNL1        0.1380
     23 C          -0.6076    4.5617   27.6000 C.3     1  UNL1        0.0310
     24 C          -1.2121    4.4731   26.2301 C.ar    1  UNL1       -0.0218
     25 C          -2.0718    3.2997   25.8641 C.ar    1  UNL1       -0.0027
     26 C          -2.6763    3.2111   24.4942 C.ar    1  UNL1        0.0189
     27 C          -2.4210    4.2958   23.4902 C.ar    1  UNL1        0.0842
     28 C          -1.5612    5.4692   23.8561 C.ar    1  UNL1        0.0189
     29 C          -0.9568    5.5578   25.2261 C.ar    1  UNL1       -0.0027
     30 C          -5.9353    4.1376   19.5525 C.3     1  UNL1        0.0372
     31 C          -6.6390    4.6891   20.7569 C.3     1  UNL1        0.0060
     32 C          -5.2316    3.5862   18.3480 C.3     1  UNL1        0.0060
     33 C          -7.2298    4.1408   18.7947 C.3     1  UNL1        0.0060
@<TRIPOS>BOND
     1    23    24    1
     2    24    25   ar
     3    25    26   ar
     4    26    27   ar
     5    27    18    1
     6    18    19   ar
     7    19    20   ar
     8    20    30    1
     9    30    31    1
    10    30    32    1
    11    30    33    1
    12    20    21   ar
    13    21    22   ar
    14    22     1    1
    15     1     2   am
    16     2     3    2
    17     2     4   am
    18     4     7    1
    19     7     8   ar
    20     8     9   ar
    21     9    10   ar
    22    10    13    1
    23    13    14   ar
    24    14    15   ar
    25    15    16   ar
    26    16    17   ar
    27    10    11   ar
    28    11    12   ar
    29    27    28   ar
    30    28    29   ar
    31    29    24   ar
    32    22    18   ar
    33    12     7   ar
    34    17    13   ar
    35     1     5    1
    36     4     6    1
@<TRIPOS>MOLECULE
*****
 33 36 0 0 0
SMALL
GASTEIGER

@<TRIPOS>ATOM
      1 N          -0.3437    3.6445   22.7714 N.am    1  UNL1       -0.2533
      2 C           0.2718    2.3465   22.3400 C.2     1  UNL1        0.3092
      3 O          -0.5072    1.0702   22.4606 O.2     1  UNL1       -0.2521
      4 N           1.6663    2.3245   21.7879 N.am    1  UNL1       -0.2680
      5 H           0.1675    4.4821   22.6922 H       1  UNL1        0.1578
      6 H           2.1776    3.1621   21.7087 H       1  UNL1        0.1564
      7 C           2.2819    1.0265   21.3564 C.ar    1  UNL1        0.0516
      8 C           2.2802    0.6408   19.9069 C.ar    1  UNL1        0.0148
      9 C           2.8957   -0.6573   19.4755 C.ar    1  UNL1        0.0044
     10 C           3.5129   -1.5697   20.4935 C.ar    1  UNL1        0.0363
     11 C           3.5145   -1.1841   21.9431 C.ar    1  UNL1        0.0044
     12 C           2.8990    0.1140   22.3745 C.ar    1  UNL1        0.0148
     13 C           4.1284   -2.8678   20.0621 C.ar    1  UNL1        0.1664
     14 C           5.3124   -3.5359   20.6960 C.ar    1  UNL1        0.1396
     15 N           5.5837   -4.8067   19.9467 N.ar    1  UNL1       -0.2026
     16 C           4.5674   -4.9240   18.8497 C.ar    1  UNL1        0.2851
     17 O           3.6680   -3.7257   18.9210 O.2     1  UNL1       -0.4311
     18 N          -2.1235    3.4375   24.7550 N.ar    1  UNL1       -0.2162
     19 N          -3.6157    3.5507   24.8572 N.ar    1  UNL1       -0.1683
     20 C          -4.1527    3.8496   23.4889 C.ar    1  UNL1        0.0810
     21 C          -2.9924    3.9211   22.5410 C.ar    1  UNL1        0.0509
     22 C          -1.7383    3.6664   23.3235 C.ar    1  UNL1        0.1380
     23 C           1.6431    2.2731   29.2780 C.3     1  UNL1        0.0310
     24 C           0.7014    2.5642   28.1472 C.ar    1  UNL1       -0.0218
     25 C           0.3578    1.4873   27.1612 C.ar    1  UNL1       -0.0027
     26 C          -0.5838    1.7784   26.0305 C.ar    1  UNL1        0.0189
     27 C          -1.1818    3.1464   25.8857 C.ar    1  UNL1        0.0842
     28 C          -0.8383    4.2232   26.8717 C.ar    1  UNL1        0.0189
     29 C           0.1034    3.9322   28.0025 C.ar    1  UNL1       -0.0027
     30 C          -5.5966    4.0431   23.1312 C.3     1  UNL1        0.0372
     31 C          -5.2811    3.7435   21.6957 C.3     1  UNL1        0.0060
     32 C          -5.9120    4.3427   24.5668 C.3     1  UNL1        0.0060
     33 C          -7.0404    4.2366   22.7736 C.3     1  UNL1        0.0060
@<TRIPOS>BOND
     1    23    24    1
     2    24    25   ar
     3    25    26   ar
     4    26    27   ar
     5    27    18    1
     6    18    19   ar
     7    19    20   ar
     8    20    30    1
     9    30    31    1
    10    30    32    1
    11    30    33    1
    12    20    21   ar
    13    21    22   ar
    14    22     1    1
    15     1     2   am
    16     2     3    2
    17     2     4   am
    18     4     7    1
    19     7     8   ar
    20     8     9   ar
    21     9    10   ar
    22    10    13    1
    23    13    14   ar
    24    14    15   ar
    25    15    16   ar
    26    16    17   ar
    27    10    11   ar
    28    11    12   ar
    29    27    28   ar
    30    28    29   ar
    31    29    24   ar
    32    22    18   ar
    33    12     7   ar
    34    17    13   ar
    35     1     5    1
    36     4     6    1
@<TRIPOS>MOLECULE
*****
 33 36 0 0 0
SMALL
GASTEIGER

@<TRIPOS>ATOM
      1 N           2.9056    1.0680   20.0350 N.am    1  UNL1       -0.2533
      2 C           1.4810    1.4310   19.7376 C.2     1  UNL1        0.3092
      3 O           0.4251    0.3658   19.7121 O.2     1  UNL1       -0.2521
      4 N           1.1120    2.8593   19.4657 N.am    1  UNL1       -0.2680
      5 H           3.5985    1.7671   20.0517 H       1  UNL1        0.1578
      6 H           1.8049    3.5584   19.4824 H       1  UNL1        0.1564
      7 C          -0.3127    3.2223   19.1684 C.ar    1  UNL1        0.0516
      8 C          -0.7156    3.5973   17.7730 C.ar    1  UNL1        0.0148
      9 C          -2.1403    3.9603   17.4756 C.ar    1  UNL1        0.0044
     10 C          -3.1622    3.9483   18.5736 C.ar    1  UNL1        0.0363
     11 C          -2.7593    3.5733   19.9690 C.ar    1  UNL1        0.0044
     12 C          -1.3346    3.2103   20.2663 C.ar    1  UNL1        0.0148
     13 C          -4.5869    4.3113   18.2762 C.ar    1  UNL1        0.1664
     14 C          -5.8028    3.5751   18.7555 C.ar    1  UNL1        0.1396
     15 N          -7.0132    4.2831   18.2229 N.ar    1  UNL1       -0.2026
     16 C          -6.5454    5.4567   17.4144 C.ar    1  UNL1        0.2851
     17 O          -5.0458    5.4742   17.4474 O.2     1  UNL1       -0.4311
     18 N           3.2720   -1.0316   21.6483 N.ar    1  UNL1       -0.2162
     19 N           3.7067   -2.4542   21.4554 N.ar    1  UNL1       -0.1683
     20 C           3.9781   -2.6621   19.9949 C.ar    1  UNL1        0.0810
     21 C           3.7110   -1.3680   19.2850 C.ar    1  UNL1        0.0509
     22 C           3.2746   -0.3603   20.3069 C.ar    1  UNL1        0.1380
     23 C           1.7836    1.5247   26.8684 C.3     1  UNL1        0.0310
     24 C           2.1557    0.8856   25.5634 C.ar    1  UNL1       -0.0218
     25 C           1.3145    1.1243   24.3446 C.ar    1  UNL1       -0.0027
     26 C           1.6866    0.4852   23.0396 C.ar    1  UNL1        0.0189
     27 C           2.8999   -0.3925   22.9533 C.ar    1  UNL1        0.0842
     28 C           3.7411   -0.6311   24.1720 C.ar    1  UNL1        0.0189
     29 C           3.3690    0.0080   25.4771 C.ar    1  UNL1       -0.0027
     30 C           4.4361   -3.9398   19.3564 C.3     1  UNL1        0.0372
     31 C           5.8623   -3.5673   19.6340 C.3     1  UNL1        0.0060
     32 C           3.0099   -4.3123   19.0788 C.3     1  UNL1        0.0060
     33 C           4.8941   -5.2175   18.7179 C.3     1  UNL1        0.0060
@<TRIPOS>BOND
     1    23    24    1
     2    24    25   ar
     3    25    26   ar
     4    26    27   ar
     5    27    18    1
     6    18    19   ar
     7    19    20   ar
     8    20    30    1
     9    30    31    1
    10    30    32    1
    11    30    33    1
    12    20    21   ar
    13    21    22   ar
    14    22     1    1
    15     1     2   am
    16     2     3    2
    17     2     4   am
    18     4     7    1
    19     7     8   ar
    20     8     9   ar
    21     9    10   ar
    22    10    13    1
    23    13    14   ar
    24    14    15   ar
    25    15    16   ar
    26    16    17   ar
    27    10    11   ar
    28    11    12   ar
    29    27    28   ar
    30    28    29   ar
    31    29    24   ar
    32    22    18   ar
    33    12     7   ar
    34    17    13   ar
    35     1     5    1
    36     4     6    1
@<TRIPOS>MOLECULE
*****
 33 36 0 0 0
SMALL
GASTEIGER

@<TRIPOS>ATOM
      1 N           4.3265    0.6485   23.6203 N.am    1  UNL1       -0.2533
      2 C           4.7104   -0.6816   24.1977 C.2     1  UNL1        0.3092
      3 O           3.6489   -1.6195   24.6914 O.2     1  UNL1       -0.2521
      4 N           6.1557   -1.0739   24.2815 N.am    1  UNL1       -0.2680
      5 H           5.0232    1.2640   23.2963 H       1  UNL1        0.1578
      6 H           6.8524   -0.4584   23.9575 H       1  UNL1        0.1564
      7 C           6.5396   -2.4040   24.8589 C.ar    1  UNL1        0.0516
      8 C           6.5256   -3.6294   23.9938 C.ar    1  UNL1        0.0148
      9 C           6.9095   -4.9595   24.5712 C.ar    1  UNL1        0.0044
     10 C           7.3073   -5.0644   26.0137 C.ar    1  UNL1        0.0363
     11 C           7.3212   -3.8390   26.8787 C.ar    1  UNL1        0.0044
     12 C           6.9374   -2.5089   26.3013 C.ar    1  UNL1        0.0148
     13 C           7.6911   -6.3945   26.5911 C.ar    1  UNL1        0.1664
     14 C           7.6228   -7.7156   25.8838 C.ar    1  UNL1        0.1396
     15 N           8.1001   -8.7746   26.8327 N.ar    1  UNL1       -0.2026
     16 C           8.4635   -8.1081   28.1265 C.ar    1  UNL1        0.2851
     17 O           8.2107   -6.6371   27.9771 O.2     1  UNL1       -0.4311
     18 N           2.0221    0.9846   22.3082 N.ar    1  UNL1       -0.2162
     19 N           0.6511    1.4673   22.6789 N.ar    1  UNL1       -0.1683
     20 C           0.6628    1.8218   24.1364 C.ar    1  UNL1        0.0810
     21 C           2.0411    1.5582   24.6664 C.ar    1  UNL1        0.0509
     22 C           2.8811    1.0408   23.5365 C.ar    1  UNL1        0.1380
     23 C           3.7638   -0.8491   16.8672 C.3     1  UNL1        0.0310
     24 C           3.3284   -0.3907   18.2275 C.ar    1  UNL1       -0.0218
     25 C           3.0648    1.0642   18.4798 C.ar    1  UNL1       -0.0027
     26 C           2.6293    1.5226   19.8401 C.ar    1  UNL1        0.0189
     27 C           2.4575    0.5262   20.9479 C.ar    1  UNL1        0.0842
     28 C           2.7211   -0.9287   20.6956 C.ar    1  UNL1        0.0189
     29 C           3.1565   -1.3872   19.3353 C.ar    1  UNL1       -0.0027
     30 C          -0.4996    2.3476   24.9253 C.3     1  UNL1        0.0372
     31 C          -0.1661    1.4060   26.0442 C.3     1  UNL1        0.0060
     32 C          -0.8330    3.2892   23.8063 C.3     1  UNL1        0.0060
     33 C          -1.6620    2.8734   25.7141 C.3     1  UNL1        0.0060
@<TRIPOS>BOND
     1    23    24    1
     2    24    25   ar
     3    25    26   ar
     4    26    27   ar
     5    27    18    1
     6    18    19   ar
     7    19    20   ar
     8    20    30    1
     9    30    31    1
    10    30    32    1
    11    30    33    1
    12    20    21   ar
    13    21    22   ar
    14    22     1    1
    15     1     2   am
    16     2     3    2
    17     2     4   am
    18     4     7    1
    19     7     8   ar
    20     8     9   ar
    21     9    10   ar
    22    10    13    1
    23    13    14   ar
    24    14    15   ar
    25    15    16   ar
    26    16    17   ar
    27    10    11   ar
    28    11    12   ar
    29    27    28   ar
    30    28    29   ar
    31    29    24   ar
    32    22    18   ar
    33    12     7   ar
    34    17    13   ar
    35     1     5    1
    36     4     6    1
@<TRIPOS>MOLECULE
*****
 33 36 0 0 0
SMALL
GASTEIGER

@<TRIPOS>ATOM
      1 N           0.3143    3.7281   23.0417 N.am    1  UNL1       -0.2533
      2 C           0.6989    2.9176   24.2437 C.2     1  UNL1        0.3092
      3 O          -0.2423    1.8807   24.7816 O.2     1  UNL1       -0.2521
      4 N           2.0245    3.1438   24.9081 N.am    1  UNL1       -0.2680
      5 H           0.9321    4.4086   22.6887 H       1  UNL1        0.1578
      6 H           2.6423    3.8242   24.5552 H       1  UNL1        0.1564
      7 C           2.4090    2.3331   26.1102 C.ar    1  UNL1        0.0516
      8 C           3.2007    1.0703   25.9413 C.ar    1  UNL1        0.0148
      9 C           3.5852    0.2597   27.1434 C.ar    1  UNL1        0.0044
     10 C           3.1780    0.7118   28.5145 C.ar    1  UNL1        0.0363
     11 C           2.3863    1.9747   28.6834 C.ar    1  UNL1        0.0044
     12 C           2.0019    2.7853   27.4813 C.ar    1  UNL1        0.0148
     13 C           3.5625   -0.0988   29.7166 C.ar    1  UNL1        0.1664
     14 C           2.6491   -0.5050   30.8350 C.ar    1  UNL1        0.1396
     15 N           3.4500   -1.3028   31.8209 N.ar    1  UNL1       -0.2026
     16 C           4.8583   -1.3896   31.3119 C.ar    1  UNL1        0.2851
     17 O           4.9278   -0.6455   30.0113 O.2     1  UNL1       -0.4311
     18 N          -1.2446    2.7207   21.1182 N.ar    1  UNL1       -0.2162
     19 N          -2.7140    2.7532   20.8182 N.ar    1  UNL1       -0.1683
     20 C          -3.3887    3.5546   21.8917 C.ar    1  UNL1        0.0810
     21 C          -2.3364    4.0173   22.8553 C.ar    1  UNL1        0.0509
     22 C          -1.0113    3.5019   22.3773 C.ar    1  UNL1        0.1380
     23 C           2.9609   -0.0482   17.8553 C.3     1  UNL1        0.0310
     24 C           1.9095    0.6440   18.6710 C.ar    1  UNL1       -0.0218
     25 C           1.1753   -0.1075   19.7416 C.ar    1  UNL1       -0.0027
     26 C           0.1239    0.5847   20.5573 C.ar    1  UNL1        0.0189
     27 C          -0.1933    2.0285   20.3025 C.ar    1  UNL1        0.0842
     28 C           0.5409    2.7800   19.2319 C.ar    1  UNL1        0.0189
     29 C           1.5923    2.0877   18.4162 C.ar    1  UNL1       -0.0027
     30 C          -4.8578    3.8426   21.9852 C.3     1  UNL1        0.0372
     31 C          -4.7998    4.5652   20.6720 C.3     1  UNL1        0.0060
     32 C          -4.9159    3.1201   23.2985 C.3     1  UNL1        0.0060
     33 C          -6.3269    4.1306   22.0788 C.3     1  UNL1        0.0060
@<TRIPOS>BOND
     1    23    24    1
     2    24    25   ar
     3    25    26   ar
     4    26    27   ar
     5    27    18    1
     6    18    19   ar
     7    19    20   ar
     8    20    30    1
     9    30    31    1
    10    30    32    1
    11    30    33    1
    12    20    21   ar
    13    21    22   ar
    14    22     1    1
    15     1     2   am
    16     2     3    2
    17     2     4   am
    18     4     7    1
    19     7     8   ar
    20     8     9   ar
    21     9    10   ar
    22    10    13    1
    23    13    14   ar
    24    14    15   ar
    25    15    16   ar
    26    16    17   ar
    27    10    11   ar
    28    11    12   ar
    29    27    28   ar
    30    28    29   ar
    31    29    24   ar
    32    22    18   ar
    33    12     7   ar
    34    17    13   ar
    35     1     5    1
    36     4     6    1
@<TRIPOS>MOLECULE
*****
 33 36 0 0 0
SMALL
GASTEIGER

@<TRIPOS>ATOM
      1 N           3.5524   -1.1852   31.7252 N.am    1  UNL1       -0.2533
      2 C           2.7013   -0.2954   30.8688 C.2     1  UNL1        0.3092
      3 O           2.5717    1.1623   31.1983 O.2     1  UNL1       -0.2521
      4 N           1.9795   -0.8631   29.6827 N.am    1  UNL1       -0.2680
      5 H           3.6374   -2.1419   31.5089 H       1  UNL1        0.1578
      6 H           2.0645   -1.8198   29.4663 H       1  UNL1        0.1564
      7 C           1.1283    0.0268   28.8262 C.ar    1  UNL1        0.0516
      8 C           1.7602    0.8615   27.7520 C.ar    1  UNL1        0.0148
      9 C           0.9090    1.7514   26.8955 C.ar    1  UNL1        0.0044
     10 C          -0.5740    1.8066   27.1132 C.ar    1  UNL1        0.0363
     11 C          -1.2059    0.9719   28.1874 C.ar    1  UNL1        0.0044
     12 C          -0.3547    0.0820   29.0439 C.ar    1  UNL1        0.0148
     13 C          -1.4252    2.6965   26.2567 C.ar    1  UNL1        0.1664
     14 C          -1.1669    3.0487   24.8217 C.ar    1  UNL1        0.1396
     15 N          -2.2662    3.9603   24.3630 N.ar    1  UNL1       -0.2026
     16 C          -3.2039    4.1716   25.5145 C.ar    1  UNL1        0.2851
     17 O          -2.6842    3.3905   26.6849 O.2     1  UNL1       -0.4311
     18 N           5.6686   -0.9628   33.3431 N.ar    1  UNL1       -0.2162
     19 N           5.9843   -0.1635   34.5725 N.ar    1  UNL1       -0.1683
     20 C           4.7851    0.6757   34.9006 C.ar    1  UNL1        0.0810
     21 C           3.7282    0.3951   33.8739 C.ar    1  UNL1        0.0509
     22 C           4.2742   -0.6175   32.9113 C.ar    1  UNL1        0.1380
     23 C           9.3386   -4.8570   30.6291 C.3     1  UNL1        0.0310
     24 C           8.4211   -3.8835   31.3076 C.ar    1  UNL1       -0.0218
     25 C           7.0416   -4.3106   31.7132 C.ar    1  UNL1       -0.0027
     26 C           6.1241   -3.3371   32.3917 C.ar    1  UNL1        0.0189
     27 C           6.5861   -1.9363   32.6646 C.ar    1  UNL1        0.0842
     28 C           7.9655   -1.5092   32.2590 C.ar    1  UNL1        0.0189
     29 C           8.8830   -2.4828   31.5805 C.ar    1  UNL1       -0.0027
     30 C           4.6642    1.6282   36.0530 C.3     1  UNL1        0.0372
     31 C           4.4025    0.4764   36.9776 C.3     1  UNL1        0.0060
     32 C           4.9258    2.7800   35.1284 C.3     1  UNL1        0.0060
     33 C           4.5432    2.5808   37.2054 C.3     1  UNL1        0.0060
@<TRIPOS>BOND
     1    23    24    1
     2    24    25   ar
     3    25    26   ar
     4    26    27   ar
     5    27    18    1
     6    18    19   ar
     7    19    20   ar
     8    20    30    1
     9    30    31    1
    10    30    32    1
    11    30    33    1
    12    20    21   ar
    13    21    22   ar
    14    22     1    1
    15     1     2   am
    16     2     3    2
    17     2     4   am
    18     4     7    1
    19     7     8   ar
    20     8     9   ar
    21     9    10   ar
    22    10    13    1
    23    13    14   ar
    24    14    15   ar
    25    15    16   ar
    26    16    17   ar
    27    10    11   ar
    28    11    12   ar
    29    27    28   ar
    30    28    29   ar
    31    29    24   ar
    32    22    18   ar
    33    12     7   ar
    34    17    13   ar
    35     1     5    1
    36     4     6    1
@<TRIPOS>MOLECULE
*****
 33 36 0 0 0
SMALL
GASTEIGER

@<TRIPOS>ATOM
      1 N           6.1817   -1.2294   25.0296 N.am    1  UNL1       -0.2533
      2 C           4.7890   -0.6985   25.1980 C.2     1  UNL1        0.3092
      3 O           3.7089   -1.5857   25.7425 O.2     1  UNL1       -0.2521
      4 N           4.4762    0.7195   24.8219 N.am    1  UNL1       -0.2680
      5 H           6.8905   -0.6471   24.6722 H       1  UNL1        0.1578
      6 H           5.1850    1.3018   24.4645 H       1  UNL1        0.1564
      7 C           3.0834    1.2503   24.9904 C.ar    1  UNL1        0.0516
      8 C           2.7573    2.1467   26.1480 C.ar    1  UNL1        0.0148
      9 C           1.3645    2.6775   26.3165 C.ar    1  UNL1        0.0044
     10 C           0.2978    2.3119   25.3274 C.ar    1  UNL1        0.0363
     11 C           0.6239    1.4155   24.1697 C.ar    1  UNL1        0.0044
     12 C           2.0166    0.8847   24.0013 C.ar    1  UNL1        0.0148
     13 C          -1.0950    2.8427   25.4958 C.ar    1  UNL1        0.1664
     14 C          -1.7960    3.0809   26.8004 C.ar    1  UNL1        0.1396
     15 N          -3.1656    3.6139   26.5001 N.ar    1  UNL1       -0.2026
     16 C          -3.3111    3.7051   25.0100 C.ar    1  UNL1        0.2851
     17 O          -2.0313    3.2285   24.3893 O.2     1  UNL1       -0.4311
     18 N           6.4630   -3.8312   24.4850 N.ar    1  UNL1       -0.2162
     19 N           6.8428   -5.0459   25.2788 N.ar    1  UNL1       -0.1683
     20 C           7.1091   -4.6129   26.6900 C.ar    1  UNL1        0.0810
     21 C           6.8938   -3.1305   26.7684 C.ar    1  UNL1        0.0509
     22 C           6.4945   -2.6474   25.4056 C.ar    1  UNL1        0.1380
     23 C           5.0633   -3.7259   18.6515 C.3     1  UNL1        0.0310
     24 C           5.4132   -3.7522   20.1098 C.ar    1  UNL1       -0.0218
     25 C           6.8381   -3.9472   20.5358 C.ar    1  UNL1       -0.0027
     26 C           7.1880   -3.9736   21.9942 C.ar    1  UNL1        0.0189
     27 C           6.1131   -3.8048   23.0266 C.ar    1  UNL1        0.0842
     28 C           4.6881   -3.6098   22.6006 C.ar    1  UNL1        0.0189
     29 C           4.3382   -3.5834   21.1422 C.ar    1  UNL1       -0.0027
     30 C           7.5187   -5.5055   27.8238 C.3     1  UNL1        0.0372
     31 C           6.4140   -4.9413   28.6671 C.3     1  UNL1        0.0060
     32 C           8.6234   -6.0697   26.9804 C.3     1  UNL1        0.0060
     33 C           7.9283   -6.3982   28.9575 C.3     1  UNL1        0.0060
@<TRIPOS>BOND
     1    23    24    1
     2    24    25   ar
     3    25    26   ar
     4    26    27   ar
     5    27    18    1
     6    18    19   ar
     7    19    20   ar
     8    20    30    1
     9    30    31    1
    10    30    32    1
    11    30    33    1
    12    20    21   ar
    13    21    22   ar
    14    22     1    1
    15     1     2   am
    16     2     3    2
    17     2     4   am
    18     4     7    1
    19     7     8   ar
    20     8     9   ar
    21     9    10   ar
    22    10    13    1
    23    13    14   ar
    24    14    15   ar
    25    15    16   ar
    26    16    17   ar
    27    10    11   ar
    28    11    12   ar
    29    27    28   ar
    30    28    29   ar
    31    29    24   ar
    32    22    18   ar
    33    12     7   ar
    34    17    13   ar
    35     1     5    1
    36     4     6    1
